MODEL 1
REMARK VINA RESULT:      -8.8      0.000      0.000
REMARK  Name = 
REMARK  9 active torsions:
REMARK  status: ('A' for Active; 'I' for Inactive)
REMARK    1  A    between atoms: C_1  and  C_2
REMARK    2  A    between atoms: C_2  and  N_3
REMARK    3  A    between atoms: C_2  and  C_11
REMARK    4  A    between atoms: C_4  and  C_6
REMARK    5  A    between atoms: C_14  and  O_15
REMARK    6  A    between atoms: O_15  and  C_16
REMARK    7  A    between atoms: N_25  and  C_26
REMARK    8  A    between atoms: N_25  and  C_27
REMARK    9  A    between atoms: C_27  and  C_28
REMARK                            x       y       z     vdW  Elec       q    Type
REMARK                         _______ _______ _______ _____ _____    ______ ____
ROOT
ATOM      1  C   UNL     1       2.473   4.256  18.571  0.00  0.00    +0.000 A 
ATOM      2  C   UNL     1       2.103   3.878  19.874  0.00  0.00    +0.000 A 
ATOM      3  C   UNL     1       1.721   4.842  20.828  0.00  0.00    +0.000 A 
ATOM      4  C   UNL     1       1.694   6.193  20.489  0.00  0.00    +0.000 A 
ATOM      5  C   UNL     1       2.013   6.558  19.187  0.00  0.00    +0.000 A 
ATOM      6  C   UNL     1       2.414   5.611  18.249  0.00  0.00    +0.000 A 
ENDROOT
BRANCH   1   8
ATOM      7  C   UNL     1       3.193   1.852  18.115  0.00  0.00    +0.000 C 
ATOM      8  C   UNL     1       2.837   3.223  17.516  0.00  0.00    +0.000 C 
BRANCH   8   9
ATOM      9  N   UNL     1       3.938   3.718  16.703  0.00  0.00    +0.000 N 
ATOM     10  C   UNL     1       5.153   4.039  17.263  0.00  0.00    +0.000 C 
ATOM     11  O   UNL     1       5.413   3.845  18.445  0.00  0.00    +0.000 OA
ATOM     12  H   UNL     1       3.760   3.923  15.731  0.00  0.00    +0.000 HD
BRANCH  10  13
ATOM     13  C   UNL     1       6.125   4.635  16.358  0.00  0.00    +0.000 A 
ATOM     14  C   UNL     1       6.937   5.760  16.630  0.00  0.00    +0.000 A 
ATOM     15  N   UNL     1       7.735   6.094  15.613  0.00  0.00    +0.000 NA
ATOM     16  N   UNL     1       7.442   5.185  14.675  0.00  0.00    +0.000 N 
ATOM     17  C   UNL     1       6.478   4.294  15.066  0.00  0.00    +0.000 A 
ATOM     18  H   UNL     1       7.928   5.247  13.784  0.00  0.00    +0.000 HD
ENDBRANCH  10  13
ENDBRANCH   8   9
ENDBRANCH   1   8
BRANCH   4  19
ATOM     19  O   UNL     1       1.132   7.102  21.347  0.00  0.00    +0.000 OA
BRANCH  19  20
ATOM     20  C   UNL     1       1.262   8.499  21.020  0.00  0.00    +0.000 C 
ATOM     21  C   UNL     1       1.448   9.253  22.361  0.00  0.00    +0.000 C 
ATOM     22  C   UNL     1       0.192  10.114  22.517  0.00  0.00    +0.000 C 
ATOM     23  N   UNL     1      -0.096  10.459  21.130  0.00  0.00    +0.000 N 
ATOM     24  C   UNL     1      -1.138  11.316  20.793  0.00  0.00    +0.000 A 
ATOM     25  C   UNL     1      -1.360  12.452  21.545  0.00  0.00    +0.000 A 
ATOM     26  C   UNL     1      -2.346  13.301  21.118  0.00  0.00    +0.000 A 
ATOM     27  N   UNL     1      -3.112  13.060  20.048  0.00  0.00    +0.000 NA
ATOM     28  C   UNL     1      -2.858  11.945  19.352  0.00  0.00    +0.000 A 
ATOM     29  N   UNL     1      -3.681  11.635  18.278  0.00  0.00    +0.000 N 
ATOM     30  C   UNL     1      -4.917  12.390  18.146  0.00  0.00    +0.000 C 
ATOM     31  N   UNL     1      -1.867  11.086  19.675  0.00  0.00    +0.000 NA
ATOM     32  C   UNL     1       0.046   9.216  20.373  0.00  0.00    +0.000 C 
BRANCH  29  33
ATOM     33  C   UNL     1      -2.967  11.320  17.033  0.00  0.00    +0.000 C 
BRANCH  33  34
ATOM     34  C   UNL     1      -2.893   9.823  16.758  0.00  0.00    +0.000 C 
ATOM     35  F   UNL     1      -1.606   9.390  16.865  0.00  0.00    +0.000 F 
ATOM     36  F   UNL     1      -3.588   9.156  17.721  0.00  0.00    +0.000 F 
ENDBRANCH  33  34
ENDBRANCH  29  33
ENDBRANCH  19  20
ENDBRANCH   4  19
TORSDOF 7
ENDMDL
MODEL 2
REMARK VINA RESULT:      -8.6      6.178      8.326
REMARK  Name = 
REMARK  9 active torsions:
REMARK  status: ('A' for Active; 'I' for Inactive)
REMARK    1  A    between atoms: C_1  and  C_2
REMARK    2  A    between atoms: C_2  and  N_3
REMARK    3  A    between atoms: C_2  and  C_11
REMARK    4  A    between atoms: C_4  and  C_6
REMARK    5  A    between atoms: C_14  and  O_15
REMARK    6  A    between atoms: O_15  and  C_16
REMARK    7  A    between atoms: N_25  and  C_26
REMARK    8  A    between atoms: N_25  and  C_27
REMARK    9  A    between atoms: C_27  and  C_28
REMARK                            x       y       z     vdW  Elec       q    Type
REMARK                         _______ _______ _______ _____ _____    ______ ____
ROOT
ATOM      1  C   UNL     1       6.808   5.878  17.800  0.00  0.00    +0.000 A 
ATOM      2  C   UNL     1       7.692   5.892  18.893  0.00  0.00    +0.000 A 
ATOM      3  C   UNL     1       8.456   7.037  19.194  0.00  0.00    +0.000 A 
ATOM      4  C   UNL     1       8.341   8.183  18.411  0.00  0.00    +0.000 A 
ATOM      5  C   UNL     1       7.431   8.182  17.361  0.00  0.00    +0.000 A 
ATOM      6  C   UNL     1       6.691   7.046  17.047  0.00  0.00    +0.000 A 
ENDROOT
BRANCH   1   8
ATOM      7  C   UNL     1       5.623   4.516  15.997  0.00  0.00    +0.000 C 
ATOM      8  C   UNL     1       5.937   4.668  17.495  0.00  0.00    +0.000 C 
BRANCH   8   9
ATOM      9  N   UNL     1       4.704   4.746  18.263  0.00  0.00    +0.000 N 
ATOM     10  C   UNL     1       4.432   3.851  19.273  0.00  0.00    +0.000 C 
ATOM     11  O   UNL     1       5.235   3.005  19.646  0.00  0.00    +0.000 OA
ATOM     12  H   UNL     1       4.000   5.408  17.971  0.00  0.00    +0.000 HD
BRANCH  10  13
ATOM     13  C   UNL     1       3.113   3.969  19.878  0.00  0.00    +0.000 A 
ATOM     14  C   UNL     1       2.344   2.909  20.412  0.00  0.00    +0.000 A 
ATOM     15  N   UNL     1       1.166   3.306  20.899  0.00  0.00    +0.000 NA
ATOM     16  N   UNL     1       1.166   4.626  20.681  0.00  0.00    +0.000 N 
ATOM     17  C   UNL     1       2.304   5.075  20.064  0.00  0.00    +0.000 A 
ATOM     18  H   UNL     1       0.345   5.155  20.964  0.00  0.00    +0.000 HD
ENDBRANCH  10  13
ENDBRANCH   8   9
ENDBRANCH   1   8
BRANCH   4  19
ATOM     19  O   UNL     1       8.927   9.353  18.820  0.00  0.00    +0.000 OA
BRANCH  19  20
ATOM     20  C   UNL     1       9.020  10.426  17.863  0.00  0.00    +0.000 C 
ATOM     21  C   UNL     1      10.488  10.920  17.891  0.00  0.00    +0.000 C 
ATOM     22  C   UNL     1      10.422  12.344  18.448  0.00  0.00    +0.000 C 
ATOM     23  N   UNL     1       9.151  12.808  17.907  0.00  0.00    +0.000 N 
ATOM     24  C   UNL     1       8.708  14.112  18.101  0.00  0.00    +0.000 A 
ATOM     25  C   UNL     1       9.599  15.161  17.992  0.00  0.00    +0.000 A 
ATOM     26  C   UNL     1       9.092  16.427  18.110  0.00  0.00    +0.000 A 
ATOM     27  N   UNL     1       7.803  16.683  18.362  0.00  0.00    +0.000 NA
ATOM     28  C   UNL     1       6.979  15.632  18.460  0.00  0.00    +0.000 A 
ATOM     29  N   UNL     1       5.650  15.864  18.789  0.00  0.00    +0.000 N 
ATOM     30  C   UNL     1       5.304  17.194  19.266  0.00  0.00    +0.000 C 
ATOM     31  N   UNL     1       7.391  14.356  18.300  0.00  0.00    +0.000 NA
ATOM     32  C   UNL     1       8.202  11.718  18.131  0.00  0.00    +0.000 C 
BRANCH  29  33
ATOM     33  C   UNL     1       4.679  15.211  17.901  0.00  0.00    +0.000 C 
BRANCH  33  34
ATOM     34  C   UNL     1       3.394  16.014  17.737  0.00  0.00    +0.000 C 
ATOM     35  F   UNL     1       3.210  16.342  16.428  0.00  0.00    +0.000 F 
ATOM     36  F   UNL     1       2.332  15.230  18.074  0.00  0.00    +0.000 F 
ENDBRANCH  33  34
ENDBRANCH  29  33
ENDBRANCH  19  20
ENDBRANCH   4  19
TORSDOF 7
ENDMDL
MODEL 3
REMARK VINA RESULT:      -8.4      2.745      4.221
REMARK  Name = 
REMARK  9 active torsions:
REMARK  status: ('A' for Active; 'I' for Inactive)
REMARK    1  A    between atoms: C_1  and  C_2
REMARK    2  A    between atoms: C_2  and  N_3
REMARK    3  A    between atoms: C_2  and  C_11
REMARK    4  A    between atoms: C_4  and  C_6
REMARK    5  A    between atoms: C_14  and  O_15
REMARK    6  A    between atoms: O_15  and  C_16
REMARK    7  A    between atoms: N_25  and  C_26
REMARK    8  A    between atoms: N_25  and  C_27
REMARK    9  A    between atoms: C_27  and  C_28
REMARK                            x       y       z     vdW  Elec       q    Type
REMARK                         _______ _______ _______ _____ _____    ______ ____
ROOT
ATOM      1  C   UNL     1       2.695   6.944  18.674  0.00  0.00    +0.000 A 
ATOM      2  C   UNL     1       2.049   7.310  19.868  0.00  0.00    +0.000 A 
ATOM      3  C   UNL     1       1.316   8.511  19.958  0.00  0.00    +0.000 A 
ATOM      4  C   UNL     1       1.213   9.355  18.855  0.00  0.00    +0.000 A 
ATOM      5  C   UNL     1       1.812   8.966  17.663  0.00  0.00    +0.000 A 
ATOM      6  C   UNL     1       2.556   7.793  17.576  0.00  0.00    +0.000 A 
ENDROOT
BRANCH   1   8
ATOM      7  C   UNL     1       4.174   5.223  19.838  0.00  0.00    +0.000 C 
ATOM      8  C   UNL     1       3.445   5.627  18.546  0.00  0.00    +0.000 C 
BRANCH   8   9
ATOM      9  N   UNL     1       4.387   5.704  17.439  0.00  0.00    +0.000 N 
ATOM     10  C   UNL     1       4.699   4.595  16.687  0.00  0.00    +0.000 C 
ATOM     11  O   UNL     1       4.146   3.512  16.837  0.00  0.00    +0.000 OA
ATOM     12  H   UNL     1       4.889   6.568  17.299  0.00  0.00    +0.000 HD
BRANCH  10  13
ATOM     13  C   UNL     1       5.743   4.785  15.691  0.00  0.00    +0.000 A 
ATOM     14  C   UNL     1       5.722   4.310  14.359  0.00  0.00    +0.000 A 
ATOM     15  N   UNL     1       6.819   4.627  13.668  0.00  0.00    +0.000 NA
ATOM     16  N   UNL     1       7.558   5.309  14.550  0.00  0.00    +0.000 N 
ATOM     17  C   UNL     1       6.966   5.426  15.780  0.00  0.00    +0.000 A 
ATOM     18  H   UNL     1       8.467   5.650  14.247  0.00  0.00    +0.000 HD
ENDBRANCH  10  13
ENDBRANCH   8   9
ENDBRANCH   1   8
BRANCH   4  19
ATOM     19  O   UNL     1       0.341  10.411  18.881  0.00  0.00    +0.000 OA
BRANCH  19  20
ATOM     20  C   UNL     1      -1.069  10.115  18.893  0.00  0.00    +0.000 C 
ATOM     21  C   UNL     1      -1.556  10.213  17.425  0.00  0.00    +0.000 C 
ATOM     22  C   UNL     1      -2.509  11.409  17.396  0.00  0.00    +0.000 C 
ATOM     23  N   UNL     1      -3.117  11.328  18.718  0.00  0.00    +0.000 N 
ATOM     24  C   UNL     1      -4.128  12.198  19.111  0.00  0.00    +0.000 A 
ATOM     25  C   UNL     1      -5.134  12.523  18.224  0.00  0.00    +0.000 A 
ATOM     26  C   UNL     1      -6.147  13.317  18.691  0.00  0.00    +0.000 A 
ATOM     27  N   UNL     1      -6.180  13.813  19.933  0.00  0.00    +0.000 NA
ATOM     28  C   UNL     1      -5.180  13.470  20.756  0.00  0.00    +0.000 A 
ATOM     29  N   UNL     1      -5.152  14.026  22.028  0.00  0.00    +0.000 N 
ATOM     30  C   UNL     1      -6.050  15.140  22.288  0.00  0.00    +0.000 C 
ATOM     31  N   UNL     1      -4.175  12.646  20.388  0.00  0.00    +0.000 NA
ATOM     32  C   UNL     1      -2.015  11.087  19.648  0.00  0.00    +0.000 C 
BRANCH  29  33
ATOM     33  C   UNL     1      -4.980  13.052  23.114  0.00  0.00    +0.000 C 
BRANCH  33  34
ATOM     34  C   UNL     1      -3.584  13.089  23.725  0.00  0.00    +0.000 C 
ATOM     35  F   UNL     1      -3.625  13.683  24.950  0.00  0.00    +0.000 F 
ATOM     36  F   UNL     1      -3.160  11.814  23.947  0.00  0.00    +0.000 F 
ENDBRANCH  33  34
ENDBRANCH  29  33
ENDBRANCH  19  20
ENDBRANCH   4  19
TORSDOF 7
ENDMDL
MODEL 4
REMARK VINA RESULT:      -8.4      5.982      8.157
REMARK  Name = 
REMARK  9 active torsions:
REMARK  status: ('A' for Active; 'I' for Inactive)
REMARK    1  A    between atoms: C_1  and  C_2
REMARK    2  A    between atoms: C_2  and  N_3
REMARK    3  A    between atoms: C_2  and  C_11
REMARK    4  A    between atoms: C_4  and  C_6
REMARK    5  A    between atoms: C_14  and  O_15
REMARK    6  A    between atoms: O_15  and  C_16
REMARK    7  A    between atoms: N_25  and  C_26
REMARK    8  A    between atoms: N_25  and  C_27
REMARK    9  A    between atoms: C_27  and  C_28
REMARK                            x       y       z     vdW  Elec       q    Type
REMARK                         _______ _______ _______ _____ _____    ______ ____
ROOT
ATOM      1  C   UNL     1       7.202   5.830  17.580  0.00  0.00    +0.000 A 
ATOM      2  C   UNL     1       7.076   7.019  16.840  0.00  0.00    +0.000 A 
ATOM      3  C   UNL     1       7.619   8.230  17.315  0.00  0.00    +0.000 A 
ATOM      4  C   UNL     1       8.303   8.265  18.528  0.00  0.00    +0.000 A 
ATOM      5  C   UNL     1       8.468   7.078  19.232  0.00  0.00    +0.000 A 
ATOM      6  C   UNL     1       7.913   5.886  18.778  0.00  0.00    +0.000 A 
ENDROOT
BRANCH   1   8
ATOM      7  C   UNL     1       6.964   4.288  15.562  0.00  0.00    +0.000 C 
ATOM      8  C   UNL     1       6.668   4.506  17.055  0.00  0.00    +0.000 C 
BRANCH   8   9
ATOM      9  N   UNL     1       5.236   4.423  17.302  0.00  0.00    +0.000 N 
ATOM     10  C   UNL     1       4.741   3.887  18.470  0.00  0.00    +0.000 C 
ATOM     11  O   UNL     1       5.460   3.538  19.398  0.00  0.00    +0.000 OA
ATOM     12  H   UNL     1       4.607   4.670  16.553  0.00  0.00    +0.000 HD
BRANCH  10  13
ATOM     13  C   UNL     1       3.293   3.755  18.536  0.00  0.00    +0.000 A 
ATOM     14  C   UNL     1       2.376   4.111  17.520  0.00  0.00    +0.000 A 
ATOM     15  N   UNL     1       1.104   3.887  17.855  0.00  0.00    +0.000 NA
ATOM     16  N   UNL     1       1.190   3.385  19.092  0.00  0.00    +0.000 N 
ATOM     17  C   UNL     1       2.477   3.293  19.552  0.00  0.00    +0.000 A 
ATOM     18  H   UNL     1       0.325   3.143  19.570  0.00  0.00    +0.000 HD
ENDBRANCH  10  13
ENDBRANCH   8   9
ENDBRANCH   1   8
BRANCH   4  19
ATOM     19  O   UNL     1       9.000   9.388  18.887  0.00  0.00    +0.000 OA
BRANCH  19  20
ATOM     20  C   UNL     1       9.090  10.457  17.925  0.00  0.00    +0.000 C 
ATOM     21  C   UNL     1      10.541  10.996  17.994  0.00  0.00    +0.000 C 
ATOM     22  C   UNL     1      10.417  12.420  18.538  0.00  0.00    +0.000 C 
ATOM     23  N   UNL     1       9.149  12.843  17.955  0.00  0.00    +0.000 N 
ATOM     24  C   UNL     1       8.662  14.134  18.126  0.00  0.00    +0.000 A 
ATOM     25  C   UNL     1       9.525  15.208  18.035  0.00  0.00    +0.000 A 
ATOM     26  C   UNL     1       8.976  16.459  18.129  0.00  0.00    +0.000 A 
ATOM     27  N   UNL     1       7.673  16.678  18.339  0.00  0.00    +0.000 NA
ATOM     28  C   UNL     1       6.878  15.604  18.420  0.00  0.00    +0.000 A 
ATOM     29  N   UNL     1       5.533  15.798  18.707  0.00  0.00    +0.000 N 
ATOM     30  C   UNL     1       5.134  17.120  19.163  0.00  0.00    +0.000 C 
ATOM     31  N   UNL     1       7.333  14.340  18.283  0.00  0.00    +0.000 NA
ATOM     32  C   UNL     1       8.227  11.727  18.158  0.00  0.00    +0.000 C 
BRANCH  29  33
ATOM     33  C   UNL     1       4.610  15.110  17.795  0.00  0.00    +0.000 C 
BRANCH  33  34
ATOM     34  C   UNL     1       3.406  14.512  18.513  0.00  0.00    +0.000 C 
ATOM     35  F   UNL     1       2.282  15.218  18.211  0.00  0.00    +0.000 F 
ATOM     36  F   UNL     1       3.188  13.251  18.045  0.00  0.00    +0.000 F 
ENDBRANCH  33  34
ENDBRANCH  29  33
ENDBRANCH  19  20
ENDBRANCH   4  19
TORSDOF 7
ENDMDL
MODEL 5
REMARK VINA RESULT:      -8.3      2.907      4.271
REMARK  Name = 
REMARK  9 active torsions:
REMARK  status: ('A' for Active; 'I' for Inactive)
REMARK    1  A    between atoms: C_1  and  C_2
REMARK    2  A    between atoms: C_2  and  N_3
REMARK    3  A    between atoms: C_2  and  C_11
REMARK    4  A    between atoms: C_4  and  C_6
REMARK    5  A    between atoms: C_14  and  O_15
REMARK    6  A    between atoms: O_15  and  C_16
REMARK    7  A    between atoms: N_25  and  C_26
REMARK    8  A    between atoms: N_25  and  C_27
REMARK    9  A    between atoms: C_27  and  C_28
REMARK                            x       y       z     vdW  Elec       q    Type
REMARK                         _______ _______ _______ _____ _____    ______ ____
ROOT
ATOM      1  C   UNL     1       2.122   6.576  19.454  0.00  0.00    +0.000 A 
ATOM      2  C   UNL     1       2.226   7.628  18.526  0.00  0.00    +0.000 A 
ATOM      3  C   UNL     1       1.825   8.936  18.865  0.00  0.00    +0.000 A 
ATOM      4  C   UNL     1       1.325   9.210  20.135  0.00  0.00    +0.000 A 
ATOM      5  C   UNL     1       1.271   8.179  21.065  0.00  0.00    +0.000 A 
ATOM      6  C   UNL     1       1.643   6.882  20.727  0.00  0.00    +0.000 A 
ENDROOT
BRANCH   1   8
ATOM      7  C   UNL     1       2.708   4.264  20.358  0.00  0.00    +0.000 C 
ATOM      8  C   UNL     1       2.600   5.171  19.121  0.00  0.00    +0.000 C 
BRANCH   8   9
ATOM      9  N   UNL     1       3.881   5.239  18.433  0.00  0.00    +0.000 N 
ATOM     10  C   UNL     1       4.174   4.401  17.382  0.00  0.00    +0.000 C 
ATOM     11  O   UNL     1       3.358   3.623  16.904  0.00  0.00    +0.000 OA
ATOM     12  H   UNL     1       4.595   5.844  18.812  0.00  0.00    +0.000 HD
BRANCH  10  13
ATOM     13  C   UNL     1       5.532   4.493  16.865  0.00  0.00    +0.000 A 
ATOM     14  C   UNL     1       6.716   4.534  17.636  0.00  0.00    +0.000 A 
ATOM     15  N   UNL     1       7.824   4.626  16.896  0.00  0.00    +0.000 NA
ATOM     16  N   UNL     1       7.362   4.646  15.641  0.00  0.00    +0.000 N 
ATOM     17  C   UNL     1       5.996   4.578  15.565  0.00  0.00    +0.000 A 
ATOM     18  H   UNL     1       8.038   4.726  14.886  0.00  0.00    +0.000 HD
ENDBRANCH  10  13
ENDBRANCH   8   9
ENDBRANCH   1   8
BRANCH   4  19
ATOM     19  O   UNL     1       1.128  10.509  20.527  0.00  0.00    +0.000 OA
BRANCH  19  20
ATOM     20  C   UNL     1       0.030  11.227  19.933  0.00  0.00    +0.000 C 
ATOM     21  C   UNL     1       0.648  12.246  18.943  0.00  0.00    +0.000 C 
ATOM     22  C   UNL     1       0.332  13.623  19.530  0.00  0.00    +0.000 C 
ATOM     23  N   UNL     1      -0.971  13.385  20.140  0.00  0.00    +0.000 N 
ATOM     24  C   UNL     1      -1.693  14.409  20.742  0.00  0.00    +0.000 A 
ATOM     25  C   UNL     1      -1.750  15.650  20.141  0.00  0.00    +0.000 A 
ATOM     26  C   UNL     1      -2.543  16.596  20.734  0.00  0.00    +0.000 A 
ATOM     27  N   UNL     1      -3.217  16.384  21.870  0.00  0.00    +0.000 NA
ATOM     28  C   UNL     1      -3.128  15.164  22.415  0.00  0.00    +0.000 A 
ATOM     29  N   UNL     1      -3.761  14.936  23.630  0.00  0.00    +0.000 N 
ATOM     30  C   UNL     1      -4.247  16.099  24.357  0.00  0.00    +0.000 C 
ATOM     31  N   UNL     1      -2.413  14.161  21.861  0.00  0.00    +0.000 NA
ATOM     32  C   UNL     1      -0.848  12.116  20.856  0.00  0.00    +0.000 C 
BRANCH  29  33
ATOM     33  C   UNL     1      -4.613  13.739  23.658  0.00  0.00    +0.000 C 
BRANCH  33  34
ATOM     34  C   UNL     1      -4.076  12.654  24.584  0.00  0.00    +0.000 C 
ATOM     35  F   UNL     1      -5.107  11.944  25.121  0.00  0.00    +0.000 F 
ATOM     36  F   UNL     1      -3.354  11.760  23.853  0.00  0.00    +0.000 F 
ENDBRANCH  33  34
ENDBRANCH  29  33
ENDBRANCH  19  20
ENDBRANCH   4  19
TORSDOF 7
ENDMDL
MODEL 6
REMARK VINA RESULT:      -8.3      3.186      4.601
REMARK  Name = 
REMARK  9 active torsions:
REMARK  status: ('A' for Active; 'I' for Inactive)
REMARK    1  A    between atoms: C_1  and  C_2
REMARK    2  A    between atoms: C_2  and  N_3
REMARK    3  A    between atoms: C_2  and  C_11
REMARK    4  A    between atoms: C_4  and  C_6
REMARK    5  A    between atoms: C_14  and  O_15
REMARK    6  A    between atoms: O_15  and  C_16
REMARK    7  A    between atoms: N_25  and  C_26
REMARK    8  A    between atoms: N_25  and  C_27
REMARK    9  A    between atoms: C_27  and  C_28
REMARK                            x       y       z     vdW  Elec       q    Type
REMARK                         _______ _______ _______ _____ _____    ______ ____
ROOT
ATOM      1  C   UNL     1       2.330   7.068  18.974  0.00  0.00    +0.000 A 
ATOM      2  C   UNL     1       1.833   7.451  20.232  0.00  0.00    +0.000 A 
ATOM      3  C   UNL     1       1.288   8.734  20.438  0.00  0.00    +0.000 A 
ATOM      4  C   UNL     1       1.224   9.646  19.387  0.00  0.00    +0.000 A 
ATOM      5  C   UNL     1       1.671   9.247  18.133  0.00  0.00    +0.000 A 
ATOM      6  C   UNL     1       2.231   7.989  17.932  0.00  0.00    +0.000 A 
ENDROOT
BRANCH   1   8
ATOM      7  C   UNL     1       3.314   4.957  20.014  0.00  0.00    +0.000 C 
ATOM      8  C   UNL     1       2.873   5.669  18.724  0.00  0.00    +0.000 C 
BRANCH   8   9
ATOM      9  N   UNL     1       3.978   5.733  17.780  0.00  0.00    +0.000 N 
ATOM     10  C   UNL     1       4.407   4.614  17.103  0.00  0.00    +0.000 C 
ATOM     11  O   UNL     1       3.837   3.533  17.178  0.00  0.00    +0.000 OA
ATOM     12  H   UNL     1       4.496   6.596  17.710  0.00  0.00    +0.000 HD
BRANCH  10  13
ATOM     13  C   UNL     1       5.596   4.794  16.283  0.00  0.00    +0.000 A 
ATOM     14  C   UNL     1       5.648   5.420  15.017  0.00  0.00    +0.000 A 
ATOM     15  N   UNL     1       6.874   5.439  14.487  0.00  0.00    +0.000 NA
ATOM     16  N   UNL     1       7.622   4.822  15.409  0.00  0.00    +0.000 N 
ATOM     17  C   UNL     1       6.906   4.407  16.501  0.00  0.00    +0.000 A 
ATOM     18  H   UNL     1       8.614   4.704  15.216  0.00  0.00    +0.000 HD
ENDBRANCH  10  13
ENDBRANCH   8   9
ENDBRANCH   1   8
BRANCH   4  19
ATOM     19  O   UNL     1       0.516  10.810  19.534  0.00  0.00    +0.000 OA
BRANCH  19  20
ATOM     20  C   UNL     1      -0.845  10.711  19.996  0.00  0.00    +0.000 C 
ATOM     21  C   UNL     1      -1.734  10.572  18.735  0.00  0.00    +0.000 C 
ATOM     22  C   UNL     1      -2.570  11.853  18.689  0.00  0.00    +0.000 C 
ATOM     23  N   UNL     1      -2.766  12.123  20.108  0.00  0.00    +0.000 N 
ATOM     24  C   UNL     1      -3.555  13.180  20.547  0.00  0.00    +0.000 A 
ATOM     25  C   UNL     1      -4.753  13.448  19.916  0.00  0.00    +0.000 A 
ATOM     26  C   UNL     1      -5.527  14.448  20.443  0.00  0.00    +0.000 A 
ATOM     27  N   UNL     1      -5.159  15.186  21.497  0.00  0.00    +0.000 NA
ATOM     28  C   UNL     1      -3.987  14.887  22.073  0.00  0.00    +0.000 A 
ATOM     29  N   UNL     1      -3.548  15.681  23.124  0.00  0.00    +0.000 N 
ATOM     30  C   UNL     1      -4.251  16.934  23.353  0.00  0.00    +0.000 C 
ATOM     31  N   UNL     1      -3.194  13.881  21.648  0.00  0.00    +0.000 NA
ATOM     32  C   UNL     1      -1.459  11.933  20.733  0.00  0.00    +0.000 C 
BRANCH  29  33
ATOM     33  C   UNL     1      -3.131  14.934  24.319  0.00  0.00    +0.000 C 
BRANCH  33  34
ATOM     34  C   UNL     1      -1.665  15.155  24.672  0.00  0.00    +0.000 C 
ATOM     35  F   UNL     1      -1.502  15.145  26.024  0.00  0.00    +0.000 F 
ATOM     36  F   UNL     1      -0.930  14.108  24.204  0.00  0.00    +0.000 F 
ENDBRANCH  33  34
ENDBRANCH  29  33
ENDBRANCH  19  20
ENDBRANCH   4  19
TORSDOF 7
ENDMDL
MODEL 7
REMARK VINA RESULT:      -8.3      6.862     10.560
REMARK  Name = 
REMARK  9 active torsions:
REMARK  status: ('A' for Active; 'I' for Inactive)
REMARK    1  A    between atoms: C_1  and  C_2
REMARK    2  A    between atoms: C_2  and  N_3
REMARK    3  A    between atoms: C_2  and  C_11
REMARK    4  A    between atoms: C_4  and  C_6
REMARK    5  A    between atoms: C_14  and  O_15
REMARK    6  A    between atoms: O_15  and  C_16
REMARK    7  A    between atoms: N_25  and  C_26
REMARK    8  A    between atoms: N_25  and  C_27
REMARK    9  A    between atoms: C_27  and  C_28
REMARK                            x       y       z     vdW  Elec       q    Type
REMARK                         _______ _______ _______ _____ _____    ______ ____
ROOT
ATOM      1  C   UNL     1       1.511  11.603  19.000  0.00  0.00    +0.000 A 
ATOM      2  C   UNL     1       1.470  12.211  20.267  0.00  0.00    +0.000 A 
ATOM      3  C   UNL     1       2.067  13.469  20.488  0.00  0.00    +0.000 A 
ATOM      4  C   UNL     1       2.702  14.137  19.445  0.00  0.00    +0.000 A 
ATOM      5  C   UNL     1       2.698  13.556  18.182  0.00  0.00    +0.000 A 
ATOM      6  C   UNL     1       2.131  12.304  17.965  0.00  0.00    +0.000 A 
ENDROOT
BRANCH   1   8
ATOM      7  C   UNL     1       1.779   9.211  18.155  0.00  0.00    +0.000 C 
ATOM      8  C   UNL     1       0.826  10.271  18.733  0.00  0.00    +0.000 C 
BRANCH   8   9
ATOM      9  N   UNL     1      -0.305  10.471  17.841  0.00  0.00    +0.000 N 
ATOM     10  C   UNL     1      -1.537  10.852  18.322  0.00  0.00    +0.000 C 
ATOM     11  O   UNL     1      -1.735  11.132  19.498  0.00  0.00    +0.000 OA
ATOM     12  H   UNL     1      -0.197  10.223  16.869  0.00  0.00    +0.000 HD
BRANCH  10  13
ATOM     13  C   UNL     1      -2.609  10.899  17.337  0.00  0.00    +0.000 A 
ATOM     14  C   UNL     1      -2.516  10.498  15.985  0.00  0.00    +0.000 A 
ATOM     15  N   UNL     1      -3.656  10.658  15.308  0.00  0.00    +0.000 NA
ATOM     16  N   UNL     1      -4.493  11.165  16.220  0.00  0.00    +0.000 N 
ATOM     17  C   UNL     1      -3.915  11.339  17.450  0.00  0.00    +0.000 A 
ATOM     18  H   UNL     1      -5.441  11.386  15.925  0.00  0.00    +0.000 HD
ENDBRANCH  10  13
ENDBRANCH   8   9
ENDBRANCH   1   8
BRANCH   4  19
ATOM     19  O   UNL     1       3.100  15.438  19.608  0.00  0.00    +0.000 OA
BRANCH  19  20
ATOM     20  C   UNL     1       4.356  15.675  20.274  0.00  0.00    +0.000 C 
ATOM     21  C   UNL     1       4.650  17.191  20.140  0.00  0.00    +0.000 C 
ATOM     22  C   UNL     1       5.892  17.282  19.251  0.00  0.00    +0.000 C 
ATOM     23  N   UNL     1       6.622  16.085  19.648  0.00  0.00    +0.000 N 
ATOM     24  C   UNL     1       7.882  15.795  19.137  0.00  0.00    +0.000 A 
ATOM     25  C   UNL     1       8.812  16.806  18.995  0.00  0.00    +0.000 A 
ATOM     26  C   UNL     1      10.062  16.449  18.564  0.00  0.00    +0.000 A 
ATOM     27  N   UNL     1      10.400  15.194  18.245  0.00  0.00    +0.000 NA
ATOM     28  C   UNL     1       9.463  14.250  18.399  0.00  0.00    +0.000 A 
ATOM     29  N   UNL     1       9.763  12.951  18.010  0.00  0.00    +0.000 N 
ATOM     30  C   UNL     1      10.968  12.755  17.218  0.00  0.00    +0.000 C 
ATOM     31  N   UNL     1       8.225  14.512  18.871  0.00  0.00    +0.000 NA
ATOM     32  C   UNL     1       5.632  15.011  19.690  0.00  0.00    +0.000 C 
BRANCH  29  33
ATOM     33  C   UNL     1       9.467  11.928  19.021  0.00  0.00    +0.000 C 
BRANCH  33  34
ATOM     34  C   UNL     1       9.340  10.530  18.428  0.00  0.00    +0.000 C 
ATOM     35  F   UNL     1       9.319   9.599  19.422  0.00  0.00    +0.000 F 
ATOM     36  F   UNL     1       8.138  10.422  17.795  0.00  0.00    +0.000 F 
ENDBRANCH  33  34
ENDBRANCH  29  33
ENDBRANCH  19  20
ENDBRANCH   4  19
TORSDOF 7
ENDMDL
MODEL 8
REMARK VINA RESULT:      -8.3      6.575      9.312
REMARK  Name = 
REMARK  9 active torsions:
REMARK  status: ('A' for Active; 'I' for Inactive)
REMARK    1  A    between atoms: C_1  and  C_2
REMARK    2  A    between atoms: C_2  and  N_3
REMARK    3  A    between atoms: C_2  and  C_11
REMARK    4  A    between atoms: C_4  and  C_6
REMARK    5  A    between atoms: C_14  and  O_15
REMARK    6  A    between atoms: O_15  and  C_16
REMARK    7  A    between atoms: N_25  and  C_26
REMARK    8  A    between atoms: N_25  and  C_27
REMARK    9  A    between atoms: C_27  and  C_28
REMARK                            x       y       z     vdW  Elec       q    Type
REMARK                         _______ _______ _______ _____ _____    ______ ____
ROOT
ATOM      1  C   UNL     1       6.504   5.730  17.677  0.00  0.00    +0.000 A 
ATOM      2  C   UNL     1       6.555   6.949  16.979  0.00  0.00    +0.000 A 
ATOM      3  C   UNL     1       7.414   7.988  17.392  0.00  0.00    +0.000 A 
ATOM      4  C   UNL     1       8.238   7.817  18.501  0.00  0.00    +0.000 A 
ATOM      5  C   UNL     1       8.222   6.593  19.159  0.00  0.00    +0.000 A 
ATOM      6  C   UNL     1       7.358   5.574  18.769  0.00  0.00    +0.000 A 
ENDROOT
BRANCH   1   8
ATOM      7  C   UNL     1       5.350   4.609  15.698  0.00  0.00    +0.000 C 
ATOM      8  C   UNL     1       5.622   4.582  17.212  0.00  0.00    +0.000 C 
BRANCH   8   9
ATOM      9  N   UNL     1       4.367   4.598  17.949  0.00  0.00    +0.000 N 
ATOM     10  C   UNL     1       4.172   3.792  19.048  0.00  0.00    +0.000 C 
ATOM     11  O   UNL     1       5.057   3.091  19.524  0.00  0.00    +0.000 OA
ATOM     12  H   UNL     1       3.600   5.137  17.576  0.00  0.00    +0.000 HD
BRANCH  10  13
ATOM     13  C   UNL     1       2.833   3.820  19.617  0.00  0.00    +0.000 A 
ATOM     14  C   UNL     1       2.143   4.968  20.070  0.00  0.00    +0.000 A 
ATOM     15  N   UNL     1       0.928   4.697  20.553  0.00  0.00    +0.000 NA
ATOM     16  N   UNL     1       0.825   3.370  20.415  0.00  0.00    +0.000 N 
ATOM     17  C   UNL     1       1.941   2.793  19.869  0.00  0.00    +0.000 A 
ATOM     18  H   UNL     1      -0.031   2.923  20.734  0.00  0.00    +0.000 HD
ENDBRANCH  10  13
ENDBRANCH   8   9
ENDBRANCH   1   8
BRANCH   4  19
ATOM     19  O   UNL     1       9.211   8.741  18.778  0.00  0.00    +0.000 OA
BRANCH  19  20
ATOM     20  C   UNL     1       8.854  10.134  18.696  0.00  0.00    +0.000 C 
ATOM     21  C   UNL     1      10.020  10.849  17.968  0.00  0.00    +0.000 C 
ATOM     22  C   UNL     1      10.638  11.779  19.013  0.00  0.00    +0.000 C 
ATOM     23  N   UNL     1       9.465  12.168  19.785  0.00  0.00    +0.000 N 
ATOM     24  C   UNL     1       9.546  13.092  20.821  0.00  0.00    +0.000 A 
ATOM     25  C   UNL     1      10.322  14.223  20.670  0.00  0.00    +0.000 A 
ATOM     26  C   UNL     1      10.300  15.138  21.689  0.00  0.00    +0.000 A 
ATOM     27  N   UNL     1       9.603  14.964  22.818  0.00  0.00    +0.000 NA
ATOM     28  C   UNL     1       8.867  13.850  22.917  0.00  0.00    +0.000 A 
ATOM     29  N   UNL     1       8.189  13.611  24.105  0.00  0.00    +0.000 N 
ATOM     30  C   UNL     1       8.535  14.440  25.249  0.00  0.00    +0.000 C 
ATOM     31  N   UNL     1       8.792  12.927  21.934  0.00  0.00    +0.000 NA
ATOM     32  C   UNL     1       8.716  10.934  20.019  0.00  0.00    +0.000 C 
BRANCH  29  33
ATOM     33  C   UNL     1       6.767  13.279  23.939  0.00  0.00    +0.000 C 
BRANCH  33  34
ATOM     34  C   UNL     1       6.388  11.957  24.597  0.00  0.00    +0.000 C 
ATOM     35  F   UNL     1       7.462  11.120  24.621  0.00  0.00    +0.000 F 
ATOM     36  F   UNL     1       6.068  12.183  25.901  0.00  0.00    +0.000 F 
ENDBRANCH  33  34
ENDBRANCH  29  33
ENDBRANCH  19  20
ENDBRANCH   4  19
TORSDOF 7
ENDMDL
MODEL 9
REMARK VINA RESULT:      -8.3      2.368      3.297
REMARK  Name = 
REMARK  9 active torsions:
REMARK  status: ('A' for Active; 'I' for Inactive)
REMARK    1  A    between atoms: C_1  and  C_2
REMARK    2  A    between atoms: C_2  and  N_3
REMARK    3  A    between atoms: C_2  and  C_11
REMARK    4  A    between atoms: C_4  and  C_6
REMARK    5  A    between atoms: C_14  and  O_15
REMARK    6  A    between atoms: O_15  and  C_16
REMARK    7  A    between atoms: N_25  and  C_26
REMARK    8  A    between atoms: N_25  and  C_27
REMARK    9  A    between atoms: C_27  and  C_28
REMARK                            x       y       z     vdW  Elec       q    Type
REMARK                         _______ _______ _______ _____ _____    ______ ____
ROOT
ATOM      1  C   UNL     1       2.079   6.901  18.614  0.00  0.00    +0.000 A 
ATOM      2  C   UNL     1       1.895   8.135  17.966  0.00  0.00    +0.000 A 
ATOM      3  C   UNL     1       1.489   9.279  18.682  0.00  0.00    +0.000 A 
ATOM      4  C   UNL     1       1.270   9.205  20.055  0.00  0.00    +0.000 A 
ATOM      5  C   UNL     1       1.500   7.997  20.702  0.00  0.00    +0.000 A 
ATOM      6  C   UNL     1       1.878   6.860  19.994  0.00  0.00    +0.000 A 
ENDROOT
BRANCH   1   8
ATOM      7  C   UNL     1       1.680   4.437  18.092  0.00  0.00    +0.000 C 
ATOM      8  C   UNL     1       2.568   5.672  17.864  0.00  0.00    +0.000 C 
BRANCH   8   9
ATOM      9  N   UNL     1       3.943   5.381  18.242  0.00  0.00    +0.000 N 
ATOM     10  C   UNL     1       5.003   5.853  17.503  0.00  0.00    +0.000 C 
ATOM     11  O   UNL     1       4.865   6.612  16.551  0.00  0.00    +0.000 OA
ATOM     12  H   UNL     1       4.103   4.736  19.001  0.00  0.00    +0.000 HD
BRANCH  10  13
ATOM     13  C   UNL     1       6.317   5.390  17.923  0.00  0.00    +0.000 A 
ATOM     14  C   UNL     1       7.170   4.529  17.194  0.00  0.00    +0.000 A 
ATOM     15  N   UNL     1       8.316   4.263  17.825  0.00  0.00    +0.000 NA
ATOM     16  N   UNL     1       8.212   4.952  18.967  0.00  0.00    +0.000 N 
ATOM     17  C   UNL     1       7.031   5.637  19.082  0.00  0.00    +0.000 A 
ATOM     18  H   UNL     1       8.980   4.892  19.631  0.00  0.00    +0.000 HD
ENDBRANCH  10  13
ENDBRANCH   8   9
ENDBRANCH   1   8
BRANCH   4  19
ATOM     19  O   UNL     1       1.074  10.353  20.779  0.00  0.00    +0.000 OA
BRANCH  19  20
ATOM     20  C   UNL     1       0.483  11.478  20.101  0.00  0.00    +0.000 C 
ATOM     21  C   UNL     1       1.073  12.752  20.758  0.00  0.00    +0.000 C 
ATOM     22  C   UNL     1      -0.107  13.430  21.456  0.00  0.00    +0.000 C 
ATOM     23  N   UNL     1      -1.203  13.107  20.551  0.00  0.00    +0.000 N 
ATOM     24  C   UNL     1      -2.488  13.597  20.756  0.00  0.00    +0.000 A 
ATOM     25  C   UNL     1      -2.665  14.908  21.152  0.00  0.00    +0.000 A 
ATOM     26  C   UNL     1      -3.953  15.360  21.259  0.00  0.00    +0.000 A 
ATOM     27  N   UNL     1      -5.024  14.588  21.039  0.00  0.00    +0.000 NA
ATOM     28  C   UNL     1      -4.800  13.324  20.659  0.00  0.00    +0.000 A 
ATOM     29  N   UNL     1      -5.891  12.482  20.491  0.00  0.00    +0.000 N 
ATOM     30  C   UNL     1      -7.174  12.945  20.996  0.00  0.00    +0.000 C 
ATOM     31  N   UNL     1      -3.561  12.820  20.476  0.00  0.00    +0.000 NA
ATOM     32  C   UNL     1      -1.050  11.688  20.231  0.00  0.00    +0.000 C 
BRANCH  29  33
ATOM     33  C   UNL     1      -5.910  11.756  19.214  0.00  0.00    +0.000 C 
BRANCH  33  34
ATOM     34  C   UNL     1      -6.775  10.502  19.260  0.00  0.00    +0.000 C 
ATOM     35  F   UNL     1      -6.076   9.433  18.786  0.00  0.00    +0.000 F 
ATOM     36  F   UNL     1      -7.064  10.207  20.558  0.00  0.00    +0.000 F 
ENDBRANCH  33  34
ENDBRANCH  29  33
ENDBRANCH  19  20
ENDBRANCH   4  19
TORSDOF 7
ENDMDL
