MODEL 1
REMARK VINA RESULT:      -8.3      0.000      0.000
REMARK  Name = 
REMARK  5 active torsions:
REMARK  status: ('A' for Active; 'I' for Inactive)
REMARK    1  A    between atoms: C_1  and  C_2
REMARK    2  A    between atoms: C_2  and  C_3
REMARK    3  A    between atoms: C_8  and  C_9
REMARK    4  A    between atoms: C_9  and  N_10
REMARK    5  A    between atoms: C_18  and  C_20
REMARK                            x       y       z     vdW  Elec       q    Type
REMARK                         _______ _______ _______ _____ _____    ______ ____
ROOT
ATOM      1  N   UNL     1       3.277   5.251  18.784  0.00  0.00    +0.000 NA
ATOM      2  C   UNL     1       2.611   4.414  17.779  0.00  0.00    +0.000 C 
ATOM      3  C   UNL     1       3.268   3.043  17.565  0.00  0.00    +0.000 C 
ATOM      4  C   UNL     1       3.396   2.271  18.886  0.00  0.00    +0.000 C 
ATOM      5  C   UNL     1       3.828   3.162  20.043  0.00  0.00    +0.000 C 
ATOM      6  C   UNL     1       4.306   4.536  19.565  0.00  0.00    +0.000 C 
ATOM      7  C   UNL     1       5.642   4.393  18.781  0.00  0.00    +0.000 C 
ATOM      8  N   UNL     1       5.548   4.162  17.337  0.00  0.00    +0.000 N 
ATOM      9  C   UNL     1       6.737   4.405  16.627  0.00  0.00    +0.000 C 
ATOM     10  O   UNL     1       7.818   4.612  17.175  0.00  0.00    +0.000 OA
ATOM     11  C   UNL     1       4.614   3.151  16.841  0.00  0.00    +0.000 C 
ENDROOT
BRANCH   9  12
ATOM     12  C   UNL     1       6.688   4.471  15.145  0.00  0.00    +0.000 A 
ATOM     13  C   UNL     1       5.768   3.670  14.460  0.00  0.00    +0.000 A 
ATOM     14  C   UNL     1       5.770   3.652  13.064  0.00  0.00    +0.000 A 
ATOM     15  C   UNL     1       6.690   4.428  12.357  0.00  0.00    +0.000 A 
ATOM     16  C   UNL     1       7.614   5.220  13.039  0.00  0.00    +0.000 A 
ATOM     17  C   UNL     1       7.624   5.230  14.433  0.00  0.00    +0.000 A 
ENDBRANCH   9  12
BRANCH   1  18
ATOM     18  C   UNL     1       2.321   5.997  19.615  0.00  0.00    +0.000 C 
BRANCH  18  24
ATOM     19  C   UNL     1       1.445   8.400  20.015  0.00  0.00    +0.000 A 
ATOM     20  C   UNL     1       1.234   9.704  19.518  0.00  0.00    +0.000 A 
ATOM     21  C   UNL     1       1.682  10.079  18.256  0.00  0.00    +0.000 A 
ATOM     22  C   UNL     1       2.365   9.161  17.468  0.00  0.00    +0.000 A 
ATOM     23  C   UNL     1       2.587   7.867  17.940  0.00  0.00    +0.000 A 
ATOM     24  C   UNL     1       2.130   7.456  19.210  0.00  0.00    +0.000 A 
BRANCH  19  26
ATOM     25  C   UNL     1       0.033   9.211  21.922  0.00  0.00    +0.000 C 
ATOM     26  C   UNL     1       0.871   8.068  21.372  0.00  0.00    +0.000 C 
ENDBRANCH  19  26
ENDBRANCH  18  24
ENDBRANCH   1  18
TORSDOF 4
ENDMDL
MODEL 2
REMARK VINA RESULT:      -8.0      0.781      1.252
REMARK  Name = 
REMARK  5 active torsions:
REMARK  status: ('A' for Active; 'I' for Inactive)
REMARK    1  A    between atoms: C_1  and  C_2
REMARK    2  A    between atoms: C_2  and  C_3
REMARK    3  A    between atoms: C_8  and  C_9
REMARK    4  A    between atoms: C_9  and  N_10
REMARK    5  A    between atoms: C_18  and  C_20
REMARK                            x       y       z     vdW  Elec       q    Type
REMARK                         _______ _______ _______ _____ _____    ______ ____
ROOT
ATOM      1  N   UNL     1       2.738   5.455  19.257  0.00  0.00    +0.000 NA
ATOM      2  C   UNL     1       2.096   4.693  18.179  0.00  0.00    +0.000 C 
ATOM      3  C   UNL     1       2.621   3.259  18.021  0.00  0.00    +0.000 C 
ATOM      4  C   UNL     1       2.529   2.480  19.341  0.00  0.00    +0.000 C 
ATOM      5  C   UNL     1       2.930   3.320  20.545  0.00  0.00    +0.000 C 
ATOM      6  C   UNL     1       3.599   4.635  20.132  0.00  0.00    +0.000 C 
ATOM      7  C   UNL     1       4.986   4.349  19.490  0.00  0.00    +0.000 C 
ATOM      8  N   UNL     1       5.019   4.128  18.041  0.00  0.00    +0.000 N 
ATOM      9  C   UNL     1       6.294   4.242  17.460  0.00  0.00    +0.000 C 
ATOM     10  O   UNL     1       7.328   4.333  18.119  0.00  0.00    +0.000 OA
ATOM     11  C   UNL     1       4.039   3.222  17.441  0.00  0.00    +0.000 C 
ENDROOT
BRANCH   9  12
ATOM     12  C   UNL     1       6.407   4.311  15.982  0.00  0.00    +0.000 A 
ATOM     13  C   UNL     1       7.428   5.082  15.415  0.00  0.00    +0.000 A 
ATOM     14  C   UNL     1       7.494   5.231  14.028  0.00  0.00    +0.000 A 
ATOM     15  C   UNL     1       6.543   4.615  13.213  0.00  0.00    +0.000 A 
ATOM     16  C   UNL     1       5.519   3.854  13.778  0.00  0.00    +0.000 A 
ATOM     17  C   UNL     1       5.441   3.714  15.163  0.00  0.00    +0.000 A 
ENDBRANCH   9  12
BRANCH   1  18
ATOM     18  C   UNL     1       1.787   6.300  19.991  0.00  0.00    +0.000 C 
BRANCH  18  24
ATOM     19  C   UNL     1       0.999   8.757  20.199  0.00  0.00    +0.000 A 
ATOM     20  C   UNL     1       0.919  10.049  19.635  0.00  0.00    +0.000 A 
ATOM     21  C   UNL     1       1.532  10.349  18.424  0.00  0.00    +0.000 A 
ATOM     22  C   UNL     1       2.254   9.367  17.757  0.00  0.00    +0.000 A 
ATOM     23  C   UNL     1       2.348   8.084  18.296  0.00  0.00    +0.000 A 
ATOM     24  C   UNL     1       1.723   7.749  19.516  0.00  0.00    +0.000 A 
BRANCH  19  26
ATOM     25  C   UNL     1       0.716   9.441  22.595  0.00  0.00    +0.000 C 
ATOM     26  C   UNL     1       0.251   8.509  21.488  0.00  0.00    +0.000 C 
ENDBRANCH  19  26
ENDBRANCH  18  24
ENDBRANCH   1  18
TORSDOF 4
ENDMDL
MODEL 3
REMARK VINA RESULT:      -8.0      1.429      2.023
REMARK  Name = 
REMARK  5 active torsions:
REMARK  status: ('A' for Active; 'I' for Inactive)
REMARK    1  A    between atoms: C_1  and  C_2
REMARK    2  A    between atoms: C_2  and  C_3
REMARK    3  A    between atoms: C_8  and  C_9
REMARK    4  A    between atoms: C_9  and  N_10
REMARK    5  A    between atoms: C_18  and  C_20
REMARK                            x       y       z     vdW  Elec       q    Type
REMARK                         _______ _______ _______ _____ _____    ______ ____
ROOT
ATOM      1  N   UNL     1       2.090   5.898  19.980  0.00  0.00    +0.000 NA
ATOM      2  C   UNL     1       1.380   5.472  18.768  0.00  0.00    +0.000 C 
ATOM      3  C   UNL     1       1.617   4.005  18.382  0.00  0.00    +0.000 C 
ATOM      4  C   UNL     1       1.284   3.059  19.543  0.00  0.00    +0.000 C 
ATOM      5  C   UNL     1       1.765   3.590  20.886  0.00  0.00    +0.000 C 
ATOM      6  C   UNL     1       2.709   4.787  20.727  0.00  0.00    +0.000 C 
ATOM      7  C   UNL     1       4.051   4.325  20.088  0.00  0.00    +0.000 C 
ATOM      8  N   UNL     1       4.133   4.340  18.625  0.00  0.00    +0.000 N 
ATOM      9  C   UNL     1       5.441   4.279  18.112  0.00  0.00    +0.000 C 
ATOM     10  O   UNL     1       6.427   4.044  18.809  0.00  0.00    +0.000 OA
ATOM     11  C   UNL     1       3.034   3.768  17.848  0.00  0.00    +0.000 C 
ENDROOT
BRANCH   9  12
ATOM     12  C   UNL     1       5.662   4.562  16.672  0.00  0.00    +0.000 A 
ATOM     13  C   UNL     1       5.368   5.838  16.178  0.00  0.00    +0.000 A 
ATOM     14  C   UNL     1       5.484   6.095  14.811  0.00  0.00    +0.000 A 
ATOM     15  C   UNL     1       5.890   5.081  13.942  0.00  0.00    +0.000 A 
ATOM     16  C   UNL     1       6.174   3.806  14.432  0.00  0.00    +0.000 A 
ATOM     17  C   UNL     1       6.046   3.541  15.794  0.00  0.00    +0.000 A 
ENDBRANCH   9  12
BRANCH   1  18
ATOM     18  C   UNL     1       1.280   6.793  20.819  0.00  0.00    +0.000 C 
BRANCH  18  24
ATOM     19  C   UNL     1       0.370   9.213  20.929  0.00  0.00    +0.000 A 
ATOM     20  C   UNL     1       0.225  10.475  20.314  0.00  0.00    +0.000 A 
ATOM     21  C   UNL     1       0.823  10.758  19.091  0.00  0.00    +0.000 A 
ATOM     22  C   UNL     1       1.594   9.787  18.463  0.00  0.00    +0.000 A 
ATOM     23  C   UNL     1       1.753   8.533  19.054  0.00  0.00    +0.000 A 
ATOM     24  C   UNL     1       1.144   8.216  20.287  0.00  0.00    +0.000 A 
BRANCH  19  26
ATOM     25  C   UNL     1      -0.630  10.282  22.966  0.00  0.00    +0.000 C 
ATOM     26  C   UNL     1      -0.366   8.980  22.228  0.00  0.00    +0.000 C 
ENDBRANCH  19  26
ENDBRANCH  18  24
ENDBRANCH   1  18
TORSDOF 4
ENDMDL
MODEL 4
REMARK VINA RESULT:      -7.8      4.089      7.274
REMARK  Name = 
REMARK  5 active torsions:
REMARK  status: ('A' for Active; 'I' for Inactive)
REMARK    1  A    between atoms: C_1  and  C_2
REMARK    2  A    between atoms: C_2  and  C_3
REMARK    3  A    between atoms: C_8  and  C_9
REMARK    4  A    between atoms: C_9  and  N_10
REMARK    5  A    between atoms: C_18  and  C_20
REMARK                            x       y       z     vdW  Elec       q    Type
REMARK                         _______ _______ _______ _____ _____    ______ ____
ROOT
ATOM      1  N   UNL     1      -0.258  10.683  18.453  0.00  0.00    +0.000 NA
ATOM      2  C   UNL     1      -0.772  10.095  19.696  0.00  0.00    +0.000 C 
ATOM      3  C   UNL     1       0.303   9.837  20.762  0.00  0.00    +0.000 C 
ATOM      4  C   UNL     1       1.099  11.112  21.075  0.00  0.00    +0.000 C 
ATOM      5  C   UNL     1       1.429  11.916  19.826  0.00  0.00    +0.000 C 
ATOM      6  C   UNL     1       1.146  11.128  18.542  0.00  0.00    +0.000 C 
ATOM      7  C   UNL     1       2.147   9.945  18.412  0.00  0.00    +0.000 C 
ATOM      8  N   UNL     1       1.759   8.671  19.023  0.00  0.00    +0.000 N 
ATOM      9  C   UNL     1       2.492   7.558  18.575  0.00  0.00    +0.000 C 
ATOM     10  O   UNL     1       3.499   7.654  17.874  0.00  0.00    +0.000 OA
ATOM     11  C   UNL     1       1.226   8.673  20.386  0.00  0.00    +0.000 C 
ENDROOT
BRANCH   9  12
ATOM     12  C   UNL     1       2.011   6.196  18.913  0.00  0.00    +0.000 A 
ATOM     13  C   UNL     1       1.879   5.837  20.259  0.00  0.00    +0.000 A 
ATOM     14  C   UNL     1       1.515   4.532  20.595  0.00  0.00    +0.000 A 
ATOM     15  C   UNL     1       1.287   3.590  19.590  0.00  0.00    +0.000 A 
ATOM     16  C   UNL     1       1.427   3.944  18.248  0.00  0.00    +0.000 A 
ATOM     17  C   UNL     1       1.804   5.243  17.909  0.00  0.00    +0.000 A 
ENDBRANCH   9  12
BRANCH   1  18
ATOM     18  C   UNL     1      -1.164  11.697  17.896  0.00  0.00    +0.000 C 
BRANCH  18  24
ATOM     19  C   UNL     1      -3.409  10.548  17.317  0.00  0.00    +0.000 A 
ATOM     20  C   UNL     1      -4.797  10.429  17.548  0.00  0.00    +0.000 A 
ATOM     21  C   UNL     1      -5.429  11.154  18.552  0.00  0.00    +0.000 A 
ATOM     22  C   UNL     1      -4.682  12.005  19.358  0.00  0.00    +0.000 A 
ATOM     23  C   UNL     1      -3.310  12.137  19.150  0.00  0.00    +0.000 A 
ATOM     24  C   UNL     1      -2.647  11.424  18.128  0.00  0.00    +0.000 A 
BRANCH  19  26
ATOM     25  C   UNL     1      -3.269  10.322  14.823  0.00  0.00    +0.000 C 
ATOM     26  C   UNL     1      -2.823   9.766  16.166  0.00  0.00    +0.000 C 
ENDBRANCH  19  26
ENDBRANCH  18  24
ENDBRANCH   1  18
TORSDOF 4
ENDMDL
MODEL 5
REMARK VINA RESULT:      -7.7      3.847      6.701
REMARK  Name = 
REMARK  5 active torsions:
REMARK  status: ('A' for Active; 'I' for Inactive)
REMARK    1  A    between atoms: C_1  and  C_2
REMARK    2  A    between atoms: C_2  and  C_3
REMARK    3  A    between atoms: C_8  and  C_9
REMARK    4  A    between atoms: C_9  and  N_10
REMARK    5  A    between atoms: C_18  and  C_20
REMARK                            x       y       z     vdW  Elec       q    Type
REMARK                         _______ _______ _______ _____ _____    ______ ____
ROOT
ATOM      1  N   UNL     1      -0.677  10.002  19.331  0.00  0.00    +0.000 NA
ATOM      2  C   UNL     1      -0.627   9.171  20.539  0.00  0.00    +0.000 C 
ATOM      3  C   UNL     1       0.758   9.102  21.199  0.00  0.00    +0.000 C 
ATOM      4  C   UNL     1       1.305  10.504  21.503  0.00  0.00    +0.000 C 
ATOM      5  C   UNL     1       1.034  11.493  20.379  0.00  0.00    +0.000 C 
ATOM      6  C   UNL     1       0.545  10.798  19.104  0.00  0.00    +0.000 C 
ATOM      7  C   UNL     1       1.693   9.948  18.487  0.00  0.00    +0.000 C 
ATOM      8  N   UNL     1       1.814   8.559  18.941  0.00  0.00    +0.000 N 
ATOM      9  C   UNL     1       2.599   7.739  18.112  0.00  0.00    +0.000 C 
ATOM     10  O   UNL     1       3.284   8.175  17.188  0.00  0.00    +0.000 OA
ATOM     11  C   UNL     1       1.752   8.275  20.375  0.00  0.00    +0.000 C 
ENDROOT
BRANCH   9  12
ATOM     12  C   UNL     1       2.568   6.270  18.317  0.00  0.00    +0.000 A 
ATOM     13  C   UNL     1       3.666   5.645  18.920  0.00  0.00    +0.000 A 
ATOM     14  C   UNL     1       3.693   4.255  19.039  0.00  0.00    +0.000 A 
ATOM     15  C   UNL     1       2.628   3.492  18.554  0.00  0.00    +0.000 A 
ATOM     16  C   UNL     1       1.537   4.113  17.945  0.00  0.00    +0.000 A 
ATOM     17  C   UNL     1       1.513   5.500  17.813  0.00  0.00    +0.000 A 
ENDBRANCH   9  12
BRANCH   1  18
ATOM     18  C   UNL     1      -1.916  10.788  19.242  0.00  0.00    +0.000 C 
BRANCH  18  24
ATOM     19  C   UNL     1      -3.873  11.318  17.634  0.00  0.00    +0.000 A 
ATOM     20  C   UNL     1      -4.473  11.148  16.367  0.00  0.00    +0.000 A 
ATOM     21  C   UNL     1      -3.841  10.427  15.358  0.00  0.00    +0.000 A 
ATOM     22  C   UNL     1      -2.588   9.874  15.591  0.00  0.00    +0.000 A 
ATOM     23  C   UNL     1      -1.976  10.032  16.834  0.00  0.00    +0.000 A 
ATOM     24  C   UNL     1      -2.602  10.745  17.879  0.00  0.00    +0.000 A 
BRANCH  19  26
ATOM     25  C   UNL     1      -6.071  11.512  18.828  0.00  0.00    +0.000 C 
ATOM     26  C   UNL     1      -4.662  12.065  18.684  0.00  0.00    +0.000 C 
ENDBRANCH  19  26
ENDBRANCH  18  24
ENDBRANCH   1  18
TORSDOF 4
ENDMDL
MODEL 6
REMARK VINA RESULT:      -7.7      4.020      6.975
REMARK  Name = 
REMARK  5 active torsions:
REMARK  status: ('A' for Active; 'I' for Inactive)
REMARK    1  A    between atoms: C_1  and  C_2
REMARK    2  A    between atoms: C_2  and  C_3
REMARK    3  A    between atoms: C_8  and  C_9
REMARK    4  A    between atoms: C_9  and  N_10
REMARK    5  A    between atoms: C_18  and  C_20
REMARK                            x       y       z     vdW  Elec       q    Type
REMARK                         _______ _______ _______ _____ _____    ______ ____
ROOT
ATOM      1  N   UNL     1      -0.684  10.184  19.492  0.00  0.00    +0.000 NA
ATOM      2  C   UNL     1      -0.811   9.441  20.751  0.00  0.00    +0.000 C 
ATOM      3  C   UNL     1       0.510   9.259  21.512  0.00  0.00    +0.000 C 
ATOM      4  C   UNL     1       1.201  10.606  21.766  0.00  0.00    +0.000 C 
ATOM      5  C   UNL     1       1.125  11.537  20.565  0.00  0.00    +0.000 C 
ATOM      6  C   UNL     1       0.638  10.814  19.305  0.00  0.00    +0.000 C 
ATOM      7  C   UNL     1       1.712   9.794  18.827  0.00  0.00    +0.000 C 
ATOM      8  N   UNL     1       1.635   8.437  19.375  0.00  0.00    +0.000 N 
ATOM      9  C   UNL     1       2.366   7.474  18.659  0.00  0.00    +0.000 C 
ATOM     10  O   UNL     1       3.157   7.761  17.761  0.00  0.00    +0.000 OA
ATOM     11  C   UNL     1       1.447   8.265  20.816  0.00  0.00    +0.000 C 
ENDROOT
BRANCH   9  12
ATOM     12  C   UNL     1       2.145   6.037  18.954  0.00  0.00    +0.000 A 
ATOM     13  C   UNL     1       1.891   5.158  17.895  0.00  0.00    +0.000 A 
ATOM     14  C   UNL     1       1.591   3.821  18.160  0.00  0.00    +0.000 A 
ATOM     15  C   UNL     1       1.542   3.365  19.479  0.00  0.00    +0.000 A 
ATOM     16  C   UNL     1       1.785   4.243  20.536  0.00  0.00    +0.000 A 
ATOM     17  C   UNL     1       2.072   5.582  20.275  0.00  0.00    +0.000 A 
ENDBRANCH   9  12
BRANCH   1  18
ATOM     18  C   UNL     1      -1.810  11.101  19.264  0.00  0.00    +0.000 C 
BRANCH  18  24
ATOM     19  C   UNL     1      -3.830  11.395  17.674  0.00  0.00    +0.000 A 
ATOM     20  C   UNL     1      -4.446  11.096  16.440  0.00  0.00    +0.000 A 
ATOM     21  C   UNL     1      -3.796  10.339  15.471  0.00  0.00    +0.000 A 
ATOM     22  C   UNL     1      -2.507   9.877  15.710  0.00  0.00    +0.000 A 
ATOM     23  C   UNL     1      -1.878  10.163  16.922  0.00  0.00    +0.000 A 
ATOM     24  C   UNL     1      -2.522  10.916  17.928  0.00  0.00    +0.000 A 
BRANCH  19  26
ATOM     25  C   UNL     1      -5.951  11.479  19.011  0.00  0.00    +0.000 C 
ATOM     26  C   UNL     1      -4.638  12.173  18.687  0.00  0.00    +0.000 C 
ENDBRANCH  19  26
ENDBRANCH  18  24
ENDBRANCH   1  18
TORSDOF 4
ENDMDL
MODEL 7
REMARK VINA RESULT:      -7.6      1.792      7.465
REMARK  Name = 
REMARK  5 active torsions:
REMARK  status: ('A' for Active; 'I' for Inactive)
REMARK    1  A    between atoms: C_1  and  C_2
REMARK    2  A    between atoms: C_2  and  C_3
REMARK    3  A    between atoms: C_8  and  C_9
REMARK    4  A    between atoms: C_9  and  N_10
REMARK    5  A    between atoms: C_18  and  C_20
REMARK                            x       y       z     vdW  Elec       q    Type
REMARK                         _______ _______ _______ _____ _____    ______ ____
ROOT
ATOM      1  N   UNL     1       5.274   4.482  16.187  0.00  0.00    +0.000 NA
ATOM      2  C   UNL     1       5.549   5.874  15.813  0.00  0.00    +0.000 C 
ATOM      3  C   UNL     1       6.139   6.726  16.945  0.00  0.00    +0.000 C 
ATOM      4  C   UNL     1       7.403   6.082  17.532  0.00  0.00    +0.000 C 
ATOM      5  C   UNL     1       7.270   4.574  17.690  0.00  0.00    +0.000 C 
ATOM      6  C   UNL     1       5.825   4.100  17.502  0.00  0.00    +0.000 C 
ATOM      7  C   UNL     1       4.941   4.605  18.678  0.00  0.00    +0.000 C 
ATOM      8  N   UNL     1       4.304   5.915  18.521  0.00  0.00    +0.000 N 
ATOM      9  C   UNL     1       3.246   6.164  19.413  0.00  0.00    +0.000 C 
ATOM     10  O   UNL     1       2.988   5.434  20.369  0.00  0.00    +0.000 OA
ATOM     11  C   UNL     1       5.107   7.038  18.034  0.00  0.00    +0.000 C 
ENDROOT
BRANCH   9  12
ATOM     12  C   UNL     1       2.359   7.327  19.170  0.00  0.00    +0.000 A 
ATOM     13  C   UNL     1       2.224   7.818  17.866  0.00  0.00    +0.000 A 
ATOM     14  C   UNL     1       1.466   8.966  17.632  0.00  0.00    +0.000 A 
ATOM     15  C   UNL     1       0.848   9.623  18.698  0.00  0.00    +0.000 A 
ATOM     16  C   UNL     1       0.989   9.141  20.000  0.00  0.00    +0.000 A 
ATOM     17  C   UNL     1       1.757   8.002  20.238  0.00  0.00    +0.000 A 
ENDBRANCH   9  12
BRANCH   1  18
ATOM     18  C   UNL     1       5.605   3.535  15.113  0.00  0.00    +0.000 C 
BRANCH  18  24
ATOM     19  C   UNL     1       6.053   3.809  12.579  0.00  0.00    +0.000 A 
ATOM     20  C   UNL     1       6.844   4.360  11.547  0.00  0.00    +0.000 A 
ATOM     21  C   UNL     1       7.894   5.228  11.825  0.00  0.00    +0.000 A 
ATOM     22  C   UNL     1       8.167   5.576  13.142  0.00  0.00    +0.000 A 
ATOM     23  C   UNL     1       7.398   5.046  14.178  0.00  0.00    +0.000 A 
ATOM     24  C   UNL     1       6.336   4.152  13.924  0.00  0.00    +0.000 A 
BRANCH  19  26
ATOM     25  C   UNL     1       4.065   3.400  11.106  0.00  0.00    +0.000 C 
ATOM     26  C   UNL     1       4.973   2.830  12.183  0.00  0.00    +0.000 C 
ENDBRANCH  19  26
ENDBRANCH  18  24
ENDBRANCH   1  18
TORSDOF 4
ENDMDL
MODEL 8
REMARK VINA RESULT:      -7.6      2.167      7.479
REMARK  Name = 
REMARK  5 active torsions:
REMARK  status: ('A' for Active; 'I' for Inactive)
REMARK    1  A    between atoms: C_1  and  C_2
REMARK    2  A    between atoms: C_2  and  C_3
REMARK    3  A    between atoms: C_8  and  C_9
REMARK    4  A    between atoms: C_9  and  N_10
REMARK    5  A    between atoms: C_18  and  C_20
REMARK                            x       y       z     vdW  Elec       q    Type
REMARK                         _______ _______ _______ _____ _____    ______ ____
ROOT
ATOM      1  N   UNL     1       4.141   5.032  19.241  0.00  0.00    +0.000 NA
ATOM      2  C   UNL     1       3.295   4.372  20.242  0.00  0.00    +0.000 C 
ATOM      3  C   UNL     1       1.795   4.393  19.912  0.00  0.00    +0.000 C 
ATOM      4  C   UNL     1       1.519   3.803  18.521  0.00  0.00    +0.000 C 
ATOM      5  C   UNL     1       2.543   4.245  17.485  0.00  0.00    +0.000 C 
ATOM      6  C   UNL     1       3.426   5.387  17.999  0.00  0.00    +0.000 C 
ATOM      7  C   UNL     1       2.581   6.684  18.159  0.00  0.00    +0.000 C 
ATOM      8  N   UNL     1       1.924   6.898  19.451  0.00  0.00    +0.000 N 
ATOM      9  C   UNL     1       1.494   8.217  19.678  0.00  0.00    +0.000 C 
ATOM     10  O   UNL     1       1.492   9.083  18.805  0.00  0.00    +0.000 OA
ATOM     11  C   UNL     1       1.187   5.791  20.063  0.00  0.00    +0.000 C 
ENDROOT
BRANCH   9  12
ATOM     12  C   UNL     1       1.069   8.610  21.044  0.00  0.00    +0.000 A 
ATOM     13  C   UNL     1      -0.293   8.798  21.304  0.00  0.00    +0.000 A 
ATOM     14  C   UNL     1      -0.703   9.256  22.557  0.00  0.00    +0.000 A 
ATOM     15  C   UNL     1       0.246   9.526  23.546  0.00  0.00    +0.000 A 
ATOM     16  C   UNL     1       1.605   9.348  23.285  0.00  0.00    +0.000 A 
ATOM     17  C   UNL     1       2.018   8.905  22.030  0.00  0.00    +0.000 A 
ENDBRANCH   9  12
BRANCH   1  18
ATOM     18  C   UNL     1       5.401   4.313  19.009  0.00  0.00    +0.000 C 
BRANCH  18  24
ATOM     19  C   UNL     1       6.939   5.509  17.306  0.00  0.00    +0.000 A 
ATOM     20  C   UNL     1       7.364   5.668  15.969  0.00  0.00    +0.000 A 
ATOM     21  C   UNL     1       6.872   4.857  14.952  0.00  0.00    +0.000 A 
ATOM     22  C   UNL     1       5.955   3.857  15.254  0.00  0.00    +0.000 A 
ATOM     23  C   UNL     1       5.523   3.681  16.568  0.00  0.00    +0.000 A 
ATOM     24  C   UNL     1       5.995   4.500  17.616  0.00  0.00    +0.000 A 
BRANCH  19  26
ATOM     25  C   UNL     1       7.729   7.851  17.732  0.00  0.00    +0.000 C 
ATOM     26  C   UNL     1       7.484   6.476  18.331  0.00  0.00    +0.000 C 
ENDBRANCH  19  26
ENDBRANCH  18  24
ENDBRANCH   1  18
TORSDOF 4
ENDMDL
MODEL 9
REMARK VINA RESULT:      -7.5      5.205      9.032
REMARK  Name = 
REMARK  5 active torsions:
REMARK  status: ('A' for Active; 'I' for Inactive)
REMARK    1  A    between atoms: C_1  and  C_2
REMARK    2  A    between atoms: C_2  and  C_3
REMARK    3  A    between atoms: C_8  and  C_9
REMARK    4  A    between atoms: C_9  and  N_10
REMARK    5  A    between atoms: C_18  and  C_20
REMARK                            x       y       z     vdW  Elec       q    Type
REMARK                         _______ _______ _______ _____ _____    ______ ____
ROOT
ATOM      1  N   UNL     1      -0.084  13.588  19.535  0.00  0.00    +0.000 NA
ATOM      2  C   UNL     1      -0.672  12.858  18.405  0.00  0.00    +0.000 C 
ATOM      3  C   UNL     1      -1.654  11.750  18.813  0.00  0.00    +0.000 C 
ATOM      4  C   UNL     1      -2.765  12.294  19.722  0.00  0.00    +0.000 C 
ATOM      5  C   UNL     1      -2.244  13.282  20.756  0.00  0.00    +0.000 C 
ATOM      6  C   UNL     1      -0.714  13.281  20.833  0.00  0.00    +0.000 C 
ATOM      7  C   UNL     1      -0.211  11.934  21.426  0.00  0.00    +0.000 C 
ATOM      8  N   UNL     1       0.051  10.844  20.481  0.00  0.00    +0.000 N 
ATOM      9  C   UNL     1       0.836   9.798  20.996  0.00  0.00    +0.000 C 
ATOM     10  O   UNL     1       1.128   9.700  22.187  0.00  0.00    +0.000 OA
ATOM     11  C   UNL     1      -0.942  10.550  19.448  0.00  0.00    +0.000 C 
ENDROOT
BRANCH   9  12
ATOM     12  C   UNL     1       1.390   8.788  20.062  0.00  0.00    +0.000 A 
ATOM     13  C   UNL     1       1.694   7.511  20.546  0.00  0.00    +0.000 A 
ATOM     14  C   UNL     1       2.300   6.576  19.704  0.00  0.00    +0.000 A 
ATOM     15  C   UNL     1       2.603   6.919  18.385  0.00  0.00    +0.000 A 
ATOM     16  C   UNL     1       2.309   8.195  17.903  0.00  0.00    +0.000 A 
ATOM     17  C   UNL     1       1.716   9.135  18.746  0.00  0.00    +0.000 A 
ENDBRANCH   9  12
BRANCH   1  18
ATOM     18  C   UNL     1       0.043  15.027  19.267  0.00  0.00    +0.000 C 
BRANCH  18  24
ATOM     19  C   UNL     1       1.558  16.658  17.947  0.00  0.00    +0.000 A 
ATOM     20  C   UNL     1       2.804  16.920  17.337  0.00  0.00    +0.000 A 
ATOM     21  C   UNL     1       3.855  16.013  17.419  0.00  0.00    +0.000 A 
ATOM     22  C   UNL     1       3.687  14.829  18.127  0.00  0.00    +0.000 A 
ATOM     23  C   UNL     1       2.465  14.550  18.739  0.00  0.00    +0.000 A 
ATOM     24  C   UNL     1       1.378  15.447  18.658  0.00  0.00    +0.000 A 
BRANCH  19  26
ATOM     25  C   UNL     1       0.771  18.631  16.612  0.00  0.00    +0.000 C 
ATOM     26  C   UNL     1       0.458  17.676  17.753  0.00  0.00    +0.000 C 
ENDBRANCH  19  26
ENDBRANCH  18  24
ENDBRANCH   1  18
TORSDOF 4
ENDMDL
