MODEL 1
REMARK VINA RESULT:      -7.5      0.000      0.000
REMARK  Name = 
REMARK  5 active torsions:
REMARK  status: ('A' for Active; 'I' for Inactive)
REMARK    1  A    between atoms: C_1  and  C_2
REMARK    2  A    between atoms: C_3  and  C_4
REMARK    3  A    between atoms: C_4  and  C_6
REMARK    4  A    between atoms: C_6  and  C_7
REMARK    5  A    between atoms: N_13  and  C_14
REMARK                            x       y       z     vdW  Elec       q    Type
REMARK                         _______ _______ _______ _____ _____    ______ ____
ROOT
ATOM      1  C   UNL     1       3.813   6.815  17.467  0.00  0.00    +0.000 C 
ATOM      2  C   UNL     1       3.608   5.373  17.812  0.00  0.00    +0.000 A 
ATOM      3  C   UNL     1       4.157   4.230  17.195  0.00  0.00    +0.000 A 
ATOM      4  N   UNL     1       3.580   3.146  17.856  0.00  0.00    +0.000 N 
ATOM      5  C   UNL     1       3.709   1.729  17.595  0.00  0.00    +0.000 C 
ATOM      6  C   UNL     1       2.783   3.567  18.911  0.00  0.00    +0.000 A 
ATOM      7  C   UNL     1       2.060   2.833  19.870  0.00  0.00    +0.000 A 
ATOM      8  C   UNL     1       1.330   3.533  20.833  0.00  0.00    +0.000 A 
ATOM      9  C   UNL     1       1.312   4.922  20.837  0.00  0.00    +0.000 A 
ATOM     10  C   UNL     1       2.022   5.641  19.872  0.00  0.00    +0.000 A 
ATOM     11  C   UNL     1       2.777   4.954  18.895  0.00  0.00    +0.000 A 
ENDROOT
BRANCH   3  12
ATOM     12  C   UNL     1       5.134   4.262  16.083  0.00  0.00    +0.000 C 
ATOM     13  O   UNL     1       4.758   4.318  14.904  0.00  0.00    +0.000 OA
BRANCH  12  14
ATOM     14  C   UNL     1       6.637   4.224  16.302  0.00  0.00    +0.000 C 
BRANCH  14  15
ATOM     15  C   UNL     1       7.171   5.359  17.154  0.00  0.00    +0.000 A 
ATOM     16  C   UNL     1       7.226   6.673  16.672  0.00  0.00    +0.000 A 
ATOM     17  C   UNL     1       7.759   7.699  17.456  0.00  0.00    +0.000 A 
ATOM     18  C   UNL     1       8.225   7.428  18.738  0.00  0.00    +0.000 A 
ATOM     19  C   UNL     1       8.133   6.136  19.250  0.00  0.00    +0.000 A 
ATOM     20  C   UNL     1       7.592   5.111  18.471  0.00  0.00    +0.000 A 
ENDBRANCH  14  15
ENDBRANCH  12  14
ENDBRANCH   3  12
TORSDOF 3
ENDMDL
MODEL 2
REMARK VINA RESULT:      -7.0      0.606      2.332
REMARK  Name = 
REMARK  5 active torsions:
REMARK  status: ('A' for Active; 'I' for Inactive)
REMARK    1  A    between atoms: C_1  and  C_2
REMARK    2  A    between atoms: C_3  and  C_4
REMARK    3  A    between atoms: C_4  and  C_6
REMARK    4  A    between atoms: C_6  and  C_7
REMARK    5  A    between atoms: N_13  and  C_14
REMARK                            x       y       z     vdW  Elec       q    Type
REMARK                         _______ _______ _______ _____ _____    ______ ____
ROOT
ATOM      1  C   UNL     1       4.051   1.678  17.684  0.00  0.00    +0.000 C 
ATOM      2  C   UNL     1       3.738   3.124  17.911  0.00  0.00    +0.000 A 
ATOM      3  C   UNL     1       4.221   4.252  17.217  0.00  0.00    +0.000 A 
ATOM      4  N   UNL     1       3.675   5.350  17.880  0.00  0.00    +0.000 N 
ATOM      5  C   UNL     1       3.889   6.764  17.661  0.00  0.00    +0.000 C 
ATOM      6  C   UNL     1       2.802   4.948  18.883  0.00  0.00    +0.000 A 
ATOM      7  C   UNL     1       1.996   5.700  19.759  0.00  0.00    +0.000 A 
ATOM      8  C   UNL     1       1.203   5.018  20.684  0.00  0.00    +0.000 A 
ATOM      9  C   UNL     1       1.219   3.630  20.743  0.00  0.00    +0.000 A 
ATOM     10  C   UNL     1       2.033   2.895  19.878  0.00  0.00    +0.000 A 
ATOM     11  C   UNL     1       2.834   3.563  18.926  0.00  0.00    +0.000 A 
ENDROOT
BRANCH   3  12
ATOM     12  C   UNL     1       5.119   4.196  16.041  0.00  0.00    +0.000 C 
ATOM     13  O   UNL     1       4.661   4.136  14.891  0.00  0.00    +0.000 OA
BRANCH  12  14
ATOM     14  C   UNL     1       6.633   4.200  16.156  0.00  0.00    +0.000 C 
BRANCH  14  15
ATOM     15  C   UNL     1       7.184   5.266  17.082  0.00  0.00    +0.000 A 
ATOM     16  C   UNL     1       7.660   4.950  18.361  0.00  0.00    +0.000 A 
ATOM     17  C   UNL     1       8.126   5.951  19.217  0.00  0.00    +0.000 A 
ATOM     18  C   UNL     1       8.141   7.277  18.797  0.00  0.00    +0.000 A 
ATOM     19  C   UNL     1       7.716   7.602  17.511  0.00  0.00    +0.000 A 
ATOM     20  C   UNL     1       7.259   6.601  16.652  0.00  0.00    +0.000 A 
ENDBRANCH  14  15
ENDBRANCH  12  14
ENDBRANCH   3  12
TORSDOF 3
ENDMDL
MODEL 3
REMARK VINA RESULT:      -7.0      0.585      2.069
REMARK  Name = 
REMARK  5 active torsions:
REMARK  status: ('A' for Active; 'I' for Inactive)
REMARK    1  A    between atoms: C_1  and  C_2
REMARK    2  A    between atoms: C_3  and  C_4
REMARK    3  A    between atoms: C_4  and  C_6
REMARK    4  A    between atoms: C_6  and  C_7
REMARK    5  A    between atoms: N_13  and  C_14
REMARK                            x       y       z     vdW  Elec       q    Type
REMARK                         _______ _______ _______ _____ _____    ______ ____
ROOT
ATOM      1  C   UNL     1       4.101   1.594  17.684  0.00  0.00    +0.000 C 
ATOM      2  C   UNL     1       3.755   3.030  17.926  0.00  0.00    +0.000 A 
ATOM      3  C   UNL     1       4.225   4.177  17.254  0.00  0.00    +0.000 A 
ATOM      4  N   UNL     1       3.648   5.255  17.925  0.00  0.00    +0.000 N 
ATOM      5  C   UNL     1       3.837   6.675  17.727  0.00  0.00    +0.000 C 
ATOM      6  C   UNL     1       2.770   4.822  18.909  0.00  0.00    +0.000 A 
ATOM      7  C   UNL     1       1.938   5.545  19.785  0.00  0.00    +0.000 A 
ATOM      8  C   UNL     1       1.147   4.835  20.690  0.00  0.00    +0.000 A 
ATOM      9  C   UNL     1       1.189   3.447  20.731  0.00  0.00    +0.000 A 
ATOM     10  C   UNL     1       2.030   2.740  19.867  0.00  0.00    +0.000 A 
ATOM     11  C   UNL     1       2.830   3.437  18.935  0.00  0.00    +0.000 A 
ENDROOT
BRANCH   3  12
ATOM     12  C   UNL     1       5.139   4.154  16.089  0.00  0.00    +0.000 C 
ATOM     13  O   UNL     1       4.698   4.104  14.933  0.00  0.00    +0.000 OA
BRANCH  12  14
ATOM     14  C   UNL     1       6.652   4.184  16.225  0.00  0.00    +0.000 C 
BRANCH  14  15
ATOM     15  C   UNL     1       7.175   5.293  17.116  0.00  0.00    +0.000 A 
ATOM     16  C   UNL     1       7.184   6.629  16.693  0.00  0.00    +0.000 A 
ATOM     17  C   UNL     1       7.708   7.633  17.510  0.00  0.00    +0.000 A 
ATOM     18  C   UNL     1       8.211   7.318  18.768  0.00  0.00    +0.000 A 
ATOM     19  C   UNL     1       8.166   6.001  19.223  0.00  0.00    +0.000 A 
ATOM     20  C   UNL     1       7.634   4.999  18.410  0.00  0.00    +0.000 A 
ENDBRANCH  14  15
ENDBRANCH  12  14
ENDBRANCH   3  12
TORSDOF 3
ENDMDL
MODEL 4
REMARK VINA RESULT:      -6.7      2.067      3.321
REMARK  Name = 
REMARK  5 active torsions:
REMARK  status: ('A' for Active; 'I' for Inactive)
REMARK    1  A    between atoms: C_1  and  C_2
REMARK    2  A    between atoms: C_3  and  C_4
REMARK    3  A    between atoms: C_4  and  C_6
REMARK    4  A    between atoms: C_6  and  C_7
REMARK    5  A    between atoms: N_13  and  C_14
REMARK                            x       y       z     vdW  Elec       q    Type
REMARK                         _______ _______ _______ _____ _____    ______ ____
ROOT
ATOM      1  C   UNL     1       3.118   7.521  18.029  0.00  0.00    +0.000 C 
ATOM      2  C   UNL     1       3.305   6.037  18.061  0.00  0.00    +0.000 A 
ATOM      3  C   UNL     1       4.182   5.240  17.297  0.00  0.00    +0.000 A 
ATOM      4  N   UNL     1       3.898   3.926  17.665  0.00  0.00    +0.000 N 
ATOM      5  C   UNL     1       4.430   2.685  17.148  0.00  0.00    +0.000 C 
ATOM      6  C   UNL     1       2.961   3.884  18.689  0.00  0.00    +0.000 A 
ATOM      7  C   UNL     1       2.423   2.795  19.400  0.00  0.00    +0.000 A 
ATOM      8  C   UNL     1       1.478   3.052  20.396  0.00  0.00    +0.000 A 
ATOM      9  C   UNL     1       1.073   4.352  20.670  0.00  0.00    +0.000 A 
ATOM     10  C   UNL     1       1.603   5.425  19.947  0.00  0.00    +0.000 A 
ATOM     11  C   UNL     1       2.569   5.189  18.944  0.00  0.00    +0.000 A 
ENDROOT
BRANCH   3  12
ATOM     12  C   UNL     1       5.169   5.769  16.326  0.00  0.00    +0.000 C 
ATOM     13  O   UNL     1       4.970   6.839  15.734  0.00  0.00    +0.000 OA
BRANCH  12  14
ATOM     14  C   UNL     1       6.464   5.051  15.989  0.00  0.00    +0.000 C 
BRANCH  14  15
ATOM     15  C   UNL     1       6.616   4.697  14.523  0.00  0.00    +0.000 A 
ATOM     16  C   UNL     1       5.783   3.752  13.908  0.00  0.00    +0.000 A 
ATOM     17  C   UNL     1       5.964   3.408  12.567  0.00  0.00    +0.000 A 
ATOM     18  C   UNL     1       6.967   4.017  11.818  0.00  0.00    +0.000 A 
ATOM     19  C   UNL     1       7.772   4.993  12.402  0.00  0.00    +0.000 A 
ATOM     20  C   UNL     1       7.586   5.344  13.740  0.00  0.00    +0.000 A 
ENDBRANCH  14  15
ENDBRANCH  12  14
ENDBRANCH   3  12
TORSDOF 3
ENDMDL
MODEL 5
REMARK VINA RESULT:      -6.7      2.206      6.181
REMARK  Name = 
REMARK  5 active torsions:
REMARK  status: ('A' for Active; 'I' for Inactive)
REMARK    1  A    between atoms: C_1  and  C_2
REMARK    2  A    between atoms: C_3  and  C_4
REMARK    3  A    between atoms: C_4  and  C_6
REMARK    4  A    between atoms: C_6  and  C_7
REMARK    5  A    between atoms: N_13  and  C_14
REMARK                            x       y       z     vdW  Elec       q    Type
REMARK                         _______ _______ _______ _____ _____    ______ ____
ROOT
ATOM      1  C   UNL     1       3.876   3.273  16.986  0.00  0.00    +0.000 C 
ATOM      2  C   UNL     1       5.025   4.187  16.691  0.00  0.00    +0.000 A 
ATOM      3  C   UNL     1       5.671   5.100  17.549  0.00  0.00    +0.000 A 
ATOM      4  N   UNL     1       6.616   5.745  16.752  0.00  0.00    +0.000 N 
ATOM      5  C   UNL     1       7.510   6.834  17.076  0.00  0.00    +0.000 C 
ATOM      6  C   UNL     1       6.649   5.203  15.474  0.00  0.00    +0.000 A 
ATOM      7  C   UNL     1       7.470   5.498  14.369  0.00  0.00    +0.000 A 
ATOM      8  C   UNL     1       7.277   4.781  13.187  0.00  0.00    +0.000 A 
ATOM      9  C   UNL     1       6.290   3.807  13.102  0.00  0.00    +0.000 A 
ATOM     10  C   UNL     1       5.471   3.532  14.200  0.00  0.00    +0.000 A 
ATOM     11  C   UNL     1       5.657   4.236  15.411  0.00  0.00    +0.000 A 
ENDROOT
BRANCH   3  12
ATOM     12  C   UNL     1       5.351   5.275  18.984  0.00  0.00    +0.000 C 
ATOM     13  O   UNL     1       6.172   4.976  19.862  0.00  0.00    +0.000 OA
BRANCH  12  14
ATOM     14  C   UNL     1       4.019   5.817  19.473  0.00  0.00    +0.000 C 
BRANCH  14  15
ATOM     15  C   UNL     1       3.062   4.756  19.979  0.00  0.00    +0.000 A 
ATOM     16  C   UNL     1       1.675   4.895  19.839  0.00  0.00    +0.000 A 
ATOM     17  C   UNL     1       0.806   3.926  20.347  0.00  0.00    +0.000 A 
ATOM     18  C   UNL     1       1.313   2.798  20.983  0.00  0.00    +0.000 A 
ATOM     19  C   UNL     1       2.691   2.622  21.088  0.00  0.00    +0.000 A 
ATOM     20  C   UNL     1       3.561   3.585  20.573  0.00  0.00    +0.000 A 
ENDBRANCH  14  15
ENDBRANCH  12  14
ENDBRANCH   3  12
TORSDOF 3
ENDMDL
MODEL 6
REMARK VINA RESULT:      -6.7      2.197      6.248
REMARK  Name = 
REMARK  5 active torsions:
REMARK  status: ('A' for Active; 'I' for Inactive)
REMARK    1  A    between atoms: C_1  and  C_2
REMARK    2  A    between atoms: C_3  and  C_4
REMARK    3  A    between atoms: C_4  and  C_6
REMARK    4  A    between atoms: C_6  and  C_7
REMARK    5  A    between atoms: N_13  and  C_14
REMARK                            x       y       z     vdW  Elec       q    Type
REMARK                         _______ _______ _______ _____ _____    ______ ____
ROOT
ATOM      1  C   UNL     1       3.822   3.282  16.931  0.00  0.00    +0.000 C 
ATOM      2  C   UNL     1       4.992   4.171  16.644  0.00  0.00    +0.000 A 
ATOM      3  C   UNL     1       5.661   5.060  17.511  0.00  0.00    +0.000 A 
ATOM      4  N   UNL     1       6.619   5.690  16.719  0.00  0.00    +0.000 N 
ATOM      5  C   UNL     1       7.539   6.755  17.053  0.00  0.00    +0.000 C 
ATOM      6  C   UNL     1       6.638   5.161  15.436  0.00  0.00    +0.000 A 
ATOM      7  C   UNL     1       7.465   5.448  14.333  0.00  0.00    +0.000 A 
ATOM      8  C   UNL     1       7.253   4.748  13.143  0.00  0.00    +0.000 A 
ATOM      9  C   UNL     1       6.244   3.799  13.049  0.00  0.00    +0.000 A 
ATOM     10  C   UNL     1       5.420   3.532  14.146  0.00  0.00    +0.000 A 
ATOM     11  C   UNL     1       5.623   4.219  15.364  0.00  0.00    +0.000 A 
ENDROOT
BRANCH   3  12
ATOM     12  C   UNL     1       5.346   5.228  18.948  0.00  0.00    +0.000 C 
ATOM     13  O   UNL     1       6.164   4.907  19.822  0.00  0.00    +0.000 OA
BRANCH  12  14
ATOM     14  C   UNL     1       4.025   5.788  19.445  0.00  0.00    +0.000 C 
BRANCH  14  15
ATOM     15  C   UNL     1       3.067   4.743  19.982  0.00  0.00    +0.000 A 
ATOM     16  C   UNL     1       3.531   3.543  20.538  0.00  0.00    +0.000 A 
ATOM     17  C   UNL     1       2.633   2.573  20.991  0.00  0.00    +0.000 A 
ATOM     18  C   UNL     1       1.263   2.799  20.911  0.00  0.00    +0.000 A 
ATOM     19  C   UNL     1       0.787   4.006  20.405  0.00  0.00    +0.000 A 
ATOM     20  C   UNL     1       1.683   4.980  19.961  0.00  0.00    +0.000 A 
ENDBRANCH  14  15
ENDBRANCH  12  14
ENDBRANCH   3  12
TORSDOF 3
ENDMDL
MODEL 7
REMARK VINA RESULT:      -6.6      2.063      3.380
REMARK  Name = 
REMARK  5 active torsions:
REMARK  status: ('A' for Active; 'I' for Inactive)
REMARK    1  A    between atoms: C_1  and  C_2
REMARK    2  A    between atoms: C_3  and  C_4
REMARK    3  A    between atoms: C_4  and  C_6
REMARK    4  A    between atoms: C_6  and  C_7
REMARK    5  A    between atoms: N_13  and  C_14
REMARK                            x       y       z     vdW  Elec       q    Type
REMARK                         _______ _______ _______ _____ _____    ______ ____
ROOT
ATOM      1  C   UNL     1       3.731   6.849  18.010  0.00  0.00    +0.000 C 
ATOM      2  C   UNL     1       3.634   5.365  18.177  0.00  0.00    +0.000 A 
ATOM      3  C   UNL     1       4.403   4.354  17.565  0.00  0.00    +0.000 A 
ATOM      4  N   UNL     1       3.849   3.154  18.009  0.00  0.00    +0.000 N 
ATOM      5  C   UNL     1       4.177   1.794  17.644  0.00  0.00    +0.000 C 
ATOM      6  C   UNL     1       2.844   3.379  18.939  0.00  0.00    +0.000 A 
ATOM      7  C   UNL     1       2.057   2.478  19.681  0.00  0.00    +0.000 A 
ATOM      8  C   UNL     1       1.102   2.994  20.560  0.00  0.00    +0.000 A 
ATOM      9  C   UNL     1       0.928   4.367  20.689  0.00  0.00    +0.000 A 
ATOM     10  C   UNL     1       1.705   5.252  19.937  0.00  0.00    +0.000 A 
ATOM     11  C   UNL     1       2.685   4.752  19.052  0.00  0.00    +0.000 A 
ENDROOT
BRANCH   3  12
ATOM     12  C   UNL     1       5.543   4.602  16.653  0.00  0.00    +0.000 C 
ATOM     13  O   UNL     1       6.658   4.108  16.877  0.00  0.00    +0.000 OA
BRANCH  12  14
ATOM     14  C   UNL     1       5.434   5.465  15.408  0.00  0.00    +0.000 C 
BRANCH  14  15
ATOM     15  C   UNL     1       5.995   4.824  14.155  0.00  0.00    +0.000 A 
ATOM     16  C   UNL     1       7.237   5.206  13.630  0.00  0.00    +0.000 A 
ATOM     17  C   UNL     1       7.720   4.634  12.451  0.00  0.00    +0.000 A 
ATOM     18  C   UNL     1       6.978   3.659  11.793  0.00  0.00    +0.000 A 
ATOM     19  C   UNL     1       5.764   3.233  12.327  0.00  0.00    +0.000 A 
ATOM     20  C   UNL     1       5.284   3.798  13.510  0.00  0.00    +0.000 A 
ENDBRANCH  14  15
ENDBRANCH  12  14
ENDBRANCH   3  12
TORSDOF 3
ENDMDL
MODEL 8
REMARK VINA RESULT:      -6.6      2.042      3.221
REMARK  Name = 
REMARK  5 active torsions:
REMARK  status: ('A' for Active; 'I' for Inactive)
REMARK    1  A    between atoms: C_1  and  C_2
REMARK    2  A    between atoms: C_3  and  C_4
REMARK    3  A    between atoms: C_4  and  C_6
REMARK    4  A    between atoms: C_6  and  C_7
REMARK    5  A    between atoms: N_13  and  C_14
REMARK                            x       y       z     vdW  Elec       q    Type
REMARK                         _______ _______ _______ _____ _____    ______ ____
ROOT
ATOM      1  C   UNL     1       3.241   7.426  18.346  0.00  0.00    +0.000 C 
ATOM      2  C   UNL     1       3.317   5.938  18.204  0.00  0.00    +0.000 A 
ATOM      3  C   UNL     1       4.084   5.174  17.301  0.00  0.00    +0.000 A 
ATOM      4  N   UNL     1       3.722   3.850  17.544  0.00  0.00    +0.000 N 
ATOM      5  C   UNL     1       4.127   2.641  16.860  0.00  0.00    +0.000 C 
ATOM      6  C   UNL     1       2.847   3.757  18.617  0.00  0.00    +0.000 A 
ATOM      7  C   UNL     1       2.270   2.635  19.241  0.00  0.00    +0.000 A 
ATOM      8  C   UNL     1       1.408   2.843  20.320  0.00  0.00    +0.000 A 
ATOM      9  C   UNL     1       1.120   4.129  20.759  0.00  0.00    +0.000 A 
ATOM     10  C   UNL     1       1.688   5.236  20.123  0.00  0.00    +0.000 A 
ATOM     11  C   UNL     1       2.572   5.049  19.038  0.00  0.00    +0.000 A 
ENDROOT
BRANCH   3  12
ATOM     12  C   UNL     1       5.049   5.740  16.329  0.00  0.00    +0.000 C 
ATOM     13  O   UNL     1       4.787   6.775  15.700  0.00  0.00    +0.000 OA
BRANCH  12  14
ATOM     14  C   UNL     1       6.396   5.103  16.037  0.00  0.00    +0.000 C 
BRANCH  14  15
ATOM     15  C   UNL     1       6.611   4.742  14.580  0.00  0.00    +0.000 A 
ATOM     16  C   UNL     1       7.593   5.376  13.807  0.00  0.00    +0.000 A 
ATOM     17  C   UNL     1       7.750   5.061  12.455  0.00  0.00    +0.000 A 
ATOM     18  C   UNL     1       6.941   4.095  11.865  0.00  0.00    +0.000 A 
ATOM     19  C   UNL     1       5.993   3.422  12.632  0.00  0.00    +0.000 A 
ATOM     20  C   UNL     1       5.841   3.730  13.985  0.00  0.00    +0.000 A 
ENDBRANCH  14  15
ENDBRANCH  12  14
ENDBRANCH   3  12
TORSDOF 3
ENDMDL
MODEL 9
REMARK VINA RESULT:      -6.5      2.065      6.061
REMARK  Name = 
REMARK  5 active torsions:
REMARK  status: ('A' for Active; 'I' for Inactive)
REMARK    1  A    between atoms: C_1  and  C_2
REMARK    2  A    between atoms: C_3  and  C_4
REMARK    3  A    between atoms: C_4  and  C_6
REMARK    4  A    between atoms: C_6  and  C_7
REMARK    5  A    between atoms: N_13  and  C_14
REMARK                            x       y       z     vdW  Elec       q    Type
REMARK                         _______ _______ _______ _____ _____    ______ ____
ROOT
ATOM      1  C   UNL     1       7.449   6.907  17.126  0.00  0.00    +0.000 C 
ATOM      2  C   UNL     1       6.582   5.779  16.661  0.00  0.00    +0.000 A 
ATOM      3  C   UNL     1       5.567   5.097  17.363  0.00  0.00    +0.000 A 
ATOM      4  N   UNL     1       5.136   4.092  16.499  0.00  0.00    +0.000 N 
ATOM      5  C   UNL     1       4.172   3.036  16.716  0.00  0.00    +0.000 C 
ATOM      6  C   UNL     1       5.767   4.185  15.266  0.00  0.00    +0.000 A 
ATOM      7  C   UNL     1       5.608   3.428  14.090  0.00  0.00    +0.000 A 
ATOM      8  C   UNL     1       6.391   3.751  12.980  0.00  0.00    +0.000 A 
ATOM      9  C   UNL     1       7.312   4.790  13.040  0.00  0.00    +0.000 A 
ATOM     10  C   UNL     1       7.471   5.526  14.217  0.00  0.00    +0.000 A 
ATOM     11  C   UNL     1       6.681   5.225  15.348  0.00  0.00    +0.000 A 
ENDROOT
BRANCH   3  12
ATOM     12  C   UNL     1       5.114   5.442  18.731  0.00  0.00    +0.000 C 
ATOM     13  O   UNL     1       5.848   5.256  19.712  0.00  0.00    +0.000 OA
BRANCH  12  14
ATOM     14  C   UNL     1       3.744   6.029  19.025  0.00  0.00    +0.000 C 
BRANCH  14  15
ATOM     15  C   UNL     1       2.695   5.002  19.401  0.00  0.00    +0.000 A 
ATOM     16  C   UNL     1       2.494   4.616  20.733  0.00  0.00    +0.000 A 
ATOM     17  C   UNL     1       1.550   3.638  21.058  0.00  0.00    +0.000 A 
ATOM     18  C   UNL     1       0.782   3.050  20.059  0.00  0.00    +0.000 A 
ATOM     19  C   UNL     1       0.936   3.458  18.735  0.00  0.00    +0.000 A 
ATOM     20  C   UNL     1       1.872   4.441  18.411  0.00  0.00    +0.000 A 
ENDBRANCH  14  15
ENDBRANCH  12  14
ENDBRANCH   3  12
TORSDOF 3
ENDMDL
