MODEL 1
REMARK VINA RESULT:      -8.0      0.000      0.000
REMARK  Name = 
REMARK  5 active torsions:
REMARK  status: ('A' for Active; 'I' for Inactive)
REMARK    1  A    between atoms: C_1  and  C_2
REMARK    2  A    between atoms: C_2  and  C_3
REMARK    3  A    between atoms: C_9  and  C_11
REMARK    4  A    between atoms: C_14  and  C_15
REMARK    5  A    between atoms: C_22  and  C_23
REMARK                            x       y       z     vdW  Elec       q    Type
REMARK                         _______ _______ _______ _____ _____    ______ ____
ROOT
ATOM      1  C   UNL     1       2.482   6.102  18.792  0.00  0.00    +0.000 A 
ATOM      2  C   UNL     1       2.397   7.402  18.346  0.00  0.00    +0.000 A 
ATOM      3  N   UNL     1       1.855   8.420  19.045  0.00  0.00    +0.000 NA
ATOM      4  C   UNL     1       1.429   8.126  20.284  0.00  0.00    +0.000 A 
ATOM      5  N   UNL     1       1.565   6.914  20.857  0.00  0.00    +0.000 NA
ATOM      6  C   UNL     1       2.113   5.913  20.116  0.00  0.00    +0.000 A 
ATOM      7  C   UNL     1       2.298   4.620  20.856  0.00  0.00    +0.000 C 
ENDROOT
BRANCH   1  14
ATOM      8  C   UNL     1       5.470   5.878  18.029  0.00  0.00    +0.000 C 
ATOM      9  C   UNL     1       6.110   6.256  16.673  0.00  0.00    +0.000 C 
ATOM     10  O   UNL     1       6.627   5.099  16.000  0.00  0.00    +0.000 OA
ATOM     11  C   UNL     1       5.564   4.177  15.705  0.00  0.00    +0.000 C 
ATOM     12  C   UNL     1       4.868   3.708  16.986  0.00  0.00    +0.000 C 
ATOM     13  N   UNL     1       4.409   4.852  17.791  0.00  0.00    +0.000 N 
ATOM     14  C   UNL     1       3.026   5.038  17.919  0.00  0.00    +0.000 C 
ATOM     15  O   UNL     1       2.217   4.312  17.338  0.00  0.00    +0.000 OA
BRANCH   8  17
ATOM     16  C   UNL     1       7.837   6.107  19.011  0.00  0.00    +0.000 C 
ATOM     17  C   UNL     1       6.512   5.355  19.047  0.00  0.00    +0.000 C 
ENDBRANCH   8  17
ENDBRANCH   1  14
BRANCH   4  18
ATOM     18  C   UNL     1       0.758   9.188  21.054  0.00  0.00    +0.000 A 
ATOM     19  C   UNL     1       0.718  10.518  20.589  0.00  0.00    +0.000 A 
ATOM     20  C   UNL     1       0.076  11.526  21.313  0.00  0.00    +0.000 A 
ATOM     21  C   UNL     1      -0.544  11.227  22.521  0.00  0.00    +0.000 A 
ATOM     22  C   UNL     1      -0.524   9.922  23.005  0.00  0.00    +0.000 A 
ATOM     23  C   UNL     1       0.118   8.916  22.279  0.00  0.00    +0.000 A 
ENDBRANCH   4  18
TORSDOF 3
ENDMDL
MODEL 2
REMARK VINA RESULT:      -8.0      0.053      1.005
REMARK  Name = 
REMARK  5 active torsions:
REMARK  status: ('A' for Active; 'I' for Inactive)
REMARK    1  A    between atoms: C_1  and  C_2
REMARK    2  A    between atoms: C_2  and  C_3
REMARK    3  A    between atoms: C_9  and  C_11
REMARK    4  A    between atoms: C_14  and  C_15
REMARK    5  A    between atoms: C_22  and  C_23
REMARK                            x       y       z     vdW  Elec       q    Type
REMARK                         _______ _______ _______ _____ _____    ______ ____
ROOT
ATOM      1  C   UNL     1       2.455   6.137  18.814  0.00  0.00    +0.000 A 
ATOM      2  C   UNL     1       2.369   7.434  18.359  0.00  0.00    +0.000 A 
ATOM      3  N   UNL     1       1.826   8.457  19.051  0.00  0.00    +0.000 NA
ATOM      4  C   UNL     1       1.399   8.171  20.292  0.00  0.00    +0.000 A 
ATOM      5  N   UNL     1       1.537   6.962  20.874  0.00  0.00    +0.000 NA
ATOM      6  C   UNL     1       2.086   5.957  20.140  0.00  0.00    +0.000 A 
ATOM      7  C   UNL     1       2.273   4.670  20.888  0.00  0.00    +0.000 C 
ENDROOT
BRANCH   1  14
ATOM      8  C   UNL     1       5.447   5.902  18.068  0.00  0.00    +0.000 C 
ATOM      9  C   UNL     1       6.095   6.273  16.713  0.00  0.00    +0.000 C 
ATOM     10  O   UNL     1       6.612   5.112  16.048  0.00  0.00    +0.000 OA
ATOM     11  C   UNL     1       5.549   4.191  15.752  0.00  0.00    +0.000 C 
ATOM     12  C   UNL     1       4.845   3.729  17.031  0.00  0.00    +0.000 C 
ATOM     13  N   UNL     1       4.384   4.878  17.828  0.00  0.00    +0.000 N 
ATOM     14  C   UNL     1       3.002   5.069  17.949  0.00  0.00    +0.000 C 
ATOM     15  O   UNL     1       2.194   4.342  17.366  0.00  0.00    +0.000 OA
BRANCH   8  17
ATOM     16  C   UNL     1       7.834   6.081  19.012  0.00  0.00    +0.000 C 
ATOM     17  C   UNL     1       6.483   5.382  19.093  0.00  0.00    +0.000 C 
ENDBRANCH   8  17
ENDBRANCH   1  14
BRANCH   4  18
ATOM     18  C   UNL     1       0.726   9.237  21.055  0.00  0.00    +0.000 A 
ATOM     19  C   UNL     1       0.083   8.968  22.280  0.00  0.00    +0.000 A 
ATOM     20  C   UNL     1      -0.550   9.979  23.009  0.00  0.00    +0.000 A 
ATOM     21  C   UNL     1      -0.553  11.284  22.530  0.00  0.00    +0.000 A 
ATOM     22  C   UNL     1       0.077  11.581  21.325  0.00  0.00    +0.000 A 
ATOM     23  C   UNL     1       0.710  10.569  20.598  0.00  0.00    +0.000 A 
ENDBRANCH   4  18
TORSDOF 3
ENDMDL
MODEL 3
REMARK VINA RESULT:      -7.5      3.532      6.477
REMARK  Name = 
REMARK  5 active torsions:
REMARK  status: ('A' for Active; 'I' for Inactive)
REMARK    1  A    between atoms: C_1  and  C_2
REMARK    2  A    between atoms: C_2  and  C_3
REMARK    3  A    between atoms: C_9  and  C_11
REMARK    4  A    between atoms: C_14  and  C_15
REMARK    5  A    between atoms: C_22  and  C_23
REMARK                            x       y       z     vdW  Elec       q    Type
REMARK                         _______ _______ _______ _____ _____    ______ ____
ROOT
ATOM      1  C   UNL     1       6.940   6.339  17.623  0.00  0.00    +0.000 A 
ATOM      2  C   UNL     1       6.827   7.465  16.839  0.00  0.00    +0.000 A 
ATOM      3  N   UNL     1       7.412   8.650  17.107  0.00  0.00    +0.000 NA
ATOM      4  C   UNL     1       8.203   8.688  18.192  0.00  0.00    +0.000 A 
ATOM      5  N   UNL     1       8.470   7.615  18.963  0.00  0.00    +0.000 NA
ATOM      6  C   UNL     1       7.856   6.439  18.661  0.00  0.00    +0.000 A 
ATOM      7  C   UNL     1       8.269   5.281  19.522  0.00  0.00    +0.000 C 
ENDROOT
BRANCH   1  14
ATOM      8  C   UNL     1       4.125   5.681  18.721  0.00  0.00    +0.000 C 
ATOM      9  C   UNL     1       3.780   4.667  19.836  0.00  0.00    +0.000 C 
ATOM     10  O   UNL     1       3.014   3.568  19.323  0.00  0.00    +0.000 OA
ATOM     11  C   UNL     1       3.773   2.847  18.338  0.00  0.00    +0.000 C 
ATOM     12  C   UNL     1       4.152   3.751  17.161  0.00  0.00    +0.000 C 
ATOM     13  N   UNL     1       4.846   4.964  17.625  0.00  0.00    +0.000 N 
ATOM     14  C   UNL     1       6.197   5.105  17.284  0.00  0.00    +0.000 C 
ATOM     15  O   UNL     1       6.807   4.227  16.671  0.00  0.00    +0.000 OA
BRANCH   8  17
ATOM     16  C   UNL     1       3.130   7.829  17.713  0.00  0.00    +0.000 C 
ATOM     17  C   UNL     1       2.870   6.398  18.168  0.00  0.00    +0.000 C 
ENDBRANCH   8  17
ENDBRANCH   1  14
BRANCH   4  18
ATOM     18  C   UNL     1       8.799   9.981  18.568  0.00  0.00    +0.000 A 
ATOM     19  C   UNL     1       8.708  11.105  17.723  0.00  0.00    +0.000 A 
ATOM     20  C   UNL     1       9.265  12.336  18.080  0.00  0.00    +0.000 A 
ATOM     21  C   UNL     1       9.929  12.471  19.295  0.00  0.00    +0.000 A 
ATOM     22  C   UNL     1      10.033  11.380  20.152  0.00  0.00    +0.000 A 
ATOM     23  C   UNL     1       9.474  10.151  19.793  0.00  0.00    +0.000 A 
ENDBRANCH   4  18
TORSDOF 3
ENDMDL
MODEL 4
REMARK VINA RESULT:      -7.5      3.543      6.555
REMARK  Name = 
REMARK  5 active torsions:
REMARK  status: ('A' for Active; 'I' for Inactive)
REMARK    1  A    between atoms: C_1  and  C_2
REMARK    2  A    between atoms: C_2  and  C_3
REMARK    3  A    between atoms: C_9  and  C_11
REMARK    4  A    between atoms: C_14  and  C_15
REMARK    5  A    between atoms: C_22  and  C_23
REMARK                            x       y       z     vdW  Elec       q    Type
REMARK                         _______ _______ _______ _____ _____    ______ ____
ROOT
ATOM      1  C   UNL     1       6.947   6.354  17.626  0.00  0.00    +0.000 A 
ATOM      2  C   UNL     1       6.846   7.487  16.851  0.00  0.00    +0.000 A 
ATOM      3  N   UNL     1       7.440   8.666  17.132  0.00  0.00    +0.000 NA
ATOM      4  C   UNL     1       8.227   8.687  18.220  0.00  0.00    +0.000 A 
ATOM      5  N   UNL     1       8.482   7.606  18.983  0.00  0.00    +0.000 NA
ATOM      6  C   UNL     1       7.859   6.438  18.669  0.00  0.00    +0.000 A 
ATOM      7  C   UNL     1       8.259   5.269  19.521  0.00  0.00    +0.000 C 
ENDROOT
BRANCH   1  14
ATOM      8  C   UNL     1       4.137   5.694  18.734  0.00  0.00    +0.000 C 
ATOM      9  C   UNL     1       3.794   4.665  19.836  0.00  0.00    +0.000 C 
ATOM     10  O   UNL     1       3.019   3.578  19.311  0.00  0.00    +0.000 OA
ATOM     11  C   UNL     1       3.767   2.868  18.310  0.00  0.00    +0.000 C 
ATOM     12  C   UNL     1       4.142   3.788  17.144  0.00  0.00    +0.000 C 
ATOM     13  N   UNL     1       4.846   4.990  17.622  0.00  0.00    +0.000 N 
ATOM     14  C   UNL     1       6.195   5.129  17.274  0.00  0.00    +0.000 C 
ATOM     15  O   UNL     1       6.796   4.257  16.642  0.00  0.00    +0.000 OA
BRANCH   8  17
ATOM     16  C   UNL     1       3.163   7.829  17.679  0.00  0.00    +0.000 C 
ATOM     17  C   UNL     1       2.881   6.426  18.201  0.00  0.00    +0.000 C 
ENDBRANCH   8  17
ENDBRANCH   1  14
BRANCH   4  18
ATOM     18  C   UNL     1       8.833   9.973  18.610  0.00  0.00    +0.000 A 
ATOM     19  C   UNL     1       9.403  10.158  19.885  0.00  0.00    +0.000 A 
ATOM     20  C   UNL     1       9.985  11.373  20.255  0.00  0.00    +0.000 A 
ATOM     21  C   UNL     1      10.010  12.434  19.357  0.00  0.00    +0.000 A 
ATOM     22  C   UNL     1       9.456  12.281  18.089  0.00  0.00    +0.000 A 
ATOM     23  C   UNL     1       8.877  11.064  17.721  0.00  0.00    +0.000 A 
ENDBRANCH   4  18
TORSDOF 3
ENDMDL
MODEL 5
REMARK VINA RESULT:      -6.9      3.321      6.227
REMARK  Name = 
REMARK  5 active torsions:
REMARK  status: ('A' for Active; 'I' for Inactive)
REMARK    1  A    between atoms: C_1  and  C_2
REMARK    2  A    between atoms: C_2  and  C_3
REMARK    3  A    between atoms: C_9  and  C_11
REMARK    4  A    between atoms: C_14  and  C_15
REMARK    5  A    between atoms: C_22  and  C_23
REMARK                            x       y       z     vdW  Elec       q    Type
REMARK                         _______ _______ _______ _____ _____    ______ ____
ROOT
ATOM      1  C   UNL     1       5.952   5.938  17.084  0.00  0.00    +0.000 A 
ATOM      2  C   UNL     1       5.589   7.221  16.743  0.00  0.00    +0.000 A 
ATOM      3  N   UNL     1       6.294   8.328  17.056  0.00  0.00    +0.000 NA
ATOM      4  C   UNL     1       7.458   8.127  17.694  0.00  0.00    +0.000 A 
ATOM      5  N   UNL     1       7.959   6.908  17.977  0.00  0.00    +0.000 NA
ATOM      6  C   UNL     1       7.214   5.817  17.649  0.00  0.00    +0.000 A 
ATOM      7  C   UNL     1       7.880   4.502  17.927  0.00  0.00    +0.000 C 
ENDROOT
BRANCH   1  14
ATOM      8  C   UNL     1       4.164   4.513  19.166  0.00  0.00    +0.000 C 
ATOM      9  C   UNL     1       4.426   3.138  19.825  0.00  0.00    +0.000 C 
ATOM     10  O   UNL     1       3.439   2.175  19.430  0.00  0.00    +0.000 OA
ATOM     11  C   UNL     1       3.489   1.961  18.010  0.00  0.00    +0.000 C 
ATOM     12  C   UNL     1       3.215   3.260  17.245  0.00  0.00    +0.000 C 
ATOM     13  N   UNL     1       4.122   4.335  17.682  0.00  0.00    +0.000 N 
ATOM     14  C   UNL     1       5.072   4.793  16.761  0.00  0.00    +0.000 C 
ATOM     15  O   UNL     1       5.191   4.284  15.644  0.00  0.00    +0.000 OA
BRANCH   8  17
ATOM     16  C   UNL     1       2.661   6.600  19.188  0.00  0.00    +0.000 C 
ATOM     17  C   UNL     1       2.858   5.169  19.673  0.00  0.00    +0.000 C 
ENDBRANCH   8  17
ENDBRANCH   1  14
BRANCH   4  18
ATOM     18  C   UNL     1       8.223   9.310  18.126  0.00  0.00    +0.000 A 
ATOM     19  C   UNL     1       8.137  10.533  17.430  0.00  0.00    +0.000 A 
ATOM     20  C   UNL     1       8.855  11.659  17.842  0.00  0.00    +0.000 A 
ATOM     21  C   UNL     1       9.677  11.589  18.962  0.00  0.00    +0.000 A 
ATOM     22  C   UNL     1       9.780  10.396  19.671  0.00  0.00    +0.000 A 
ATOM     23  C   UNL     1       9.060   9.272  19.258  0.00  0.00    +0.000 A 
ENDBRANCH   4  18
TORSDOF 3
ENDMDL
MODEL 6
REMARK VINA RESULT:      -6.7      3.399      6.439
REMARK  Name = 
REMARK  5 active torsions:
REMARK  status: ('A' for Active; 'I' for Inactive)
REMARK    1  A    between atoms: C_1  and  C_2
REMARK    2  A    between atoms: C_2  and  C_3
REMARK    3  A    between atoms: C_9  and  C_11
REMARK    4  A    between atoms: C_14  and  C_15
REMARK    5  A    between atoms: C_22  and  C_23
REMARK                            x       y       z     vdW  Elec       q    Type
REMARK                         _______ _______ _______ _____ _____    ______ ____
ROOT
ATOM      1  C   UNL     1       6.486   5.842  17.434  0.00  0.00    +0.000 A 
ATOM      2  C   UNL     1       7.455   5.960  18.405  0.00  0.00    +0.000 A 
ATOM      3  N   UNL     1       8.103   7.103  18.708  0.00  0.00    +0.000 NA
ATOM      4  C   UNL     1       7.712   8.201  18.040  0.00  0.00    +0.000 A 
ATOM      5  N   UNL     1       6.700   8.216  17.150  0.00  0.00    +0.000 NA
ATOM      6  C   UNL     1       6.075   7.041  16.869  0.00  0.00    +0.000 A 
ATOM      7  C   UNL     1       4.912   7.163  15.929  0.00  0.00    +0.000 C 
ENDROOT
BRANCH   1  14
ATOM      8  C   UNL     1       3.882   4.798  18.735  0.00  0.00    +0.000 C 
ATOM      9  C   UNL     1       3.767   3.729  19.847  0.00  0.00    +0.000 C 
ATOM     10  O   UNL     1       3.112   2.547  19.367  0.00  0.00    +0.000 OA
ATOM     11  C   UNL     1       3.874   1.949  18.305  0.00  0.00    +0.000 C 
ATOM     12  C   UNL     1       4.032   2.914  17.126  0.00  0.00    +0.000 C 
ATOM     13  N   UNL     1       4.597   4.201  17.566  0.00  0.00    +0.000 N 
ATOM     14  C   UNL     1       5.886   4.526  17.123  0.00  0.00    +0.000 C 
ATOM     15  O   UNL     1       6.552   3.746  16.439  0.00  0.00    +0.000 OA
BRANCH   8  17
ATOM     16  C   UNL     1       2.375   6.862  18.442  0.00  0.00    +0.000 C 
ATOM     17  C   UNL     1       2.502   5.350  18.304  0.00  0.00    +0.000 C 
ENDBRANCH   8  17
ENDBRANCH   1  14
BRANCH   4  18
ATOM     18  C   UNL     1       8.446   9.455  18.281  0.00  0.00    +0.000 A 
ATOM     19  C   UNL     1       8.242  10.592  17.473  0.00  0.00    +0.000 A 
ATOM     20  C   UNL     1       8.931  11.786  17.704  0.00  0.00    +0.000 A 
ATOM     21  C   UNL     1       9.842  11.871  18.751  0.00  0.00    +0.000 A 
ATOM     22  C   UNL     1      10.063  10.766  19.568  0.00  0.00    +0.000 A 
ATOM     23  C   UNL     1       9.372   9.574  19.335  0.00  0.00    +0.000 A 
ENDBRANCH   4  18
TORSDOF 3
ENDMDL
MODEL 7
REMARK VINA RESULT:      -6.7      3.616      7.679
REMARK  Name = 
REMARK  5 active torsions:
REMARK  status: ('A' for Active; 'I' for Inactive)
REMARK    1  A    between atoms: C_1  and  C_2
REMARK    2  A    between atoms: C_2  and  C_3
REMARK    3  A    between atoms: C_9  and  C_11
REMARK    4  A    between atoms: C_14  and  C_15
REMARK    5  A    between atoms: C_22  and  C_23
REMARK                            x       y       z     vdW  Elec       q    Type
REMARK                         _______ _______ _______ _____ _____    ______ ____
ROOT
ATOM      1  C   UNL     1       0.847   9.915  19.403  0.00  0.00    +0.000 A 
ATOM      2  C   UNL     1       1.093   9.750  18.059  0.00  0.00    +0.000 A 
ATOM      3  N   UNL     1       1.820   8.745  17.529  0.00  0.00    +0.000 NA
ATOM      4  C   UNL     1       2.274   7.823  18.393  0.00  0.00    +0.000 A 
ATOM      5  N   UNL     1       1.998   7.831  19.712  0.00  0.00    +0.000 NA
ATOM      6  C   UNL     1       1.265   8.864  20.208  0.00  0.00    +0.000 A 
ATOM      7  C   UNL     1       0.938   8.753  21.668  0.00  0.00    +0.000 C 
ENDROOT
BRANCH   1  14
ATOM      8  C   UNL     1       2.046  12.762  19.549  0.00  0.00    +0.000 C 
ATOM      9  C   UNL     1       2.531  13.498  20.820  0.00  0.00    +0.000 C 
ATOM     10  O   UNL     1       1.713  14.641  21.104  0.00  0.00    +0.000 OA
ATOM     11  C   UNL     1       0.359  14.235  21.361  0.00  0.00    +0.000 C 
ATOM     12  C   UNL     1      -0.241  13.513  20.151  0.00  0.00    +0.000 C 
ATOM     13  N   UNL     1       0.610  12.388  19.728  0.00  0.00    +0.000 N 
ATOM     14  C   UNL     1       0.100  11.094  19.895  0.00  0.00    +0.000 C 
ATOM     15  O   UNL     1      -0.994  10.891  20.427  0.00  0.00    +0.000 OA
BRANCH   8  17
ATOM     16  C   UNL     1       3.569  14.338  18.201  0.00  0.00    +0.000 C 
ATOM     17  C   UNL     1       2.231  13.612  18.269  0.00  0.00    +0.000 C 
ENDBRANCH   8  17
ENDBRANCH   1  14
BRANCH   4  18
ATOM     18  C   UNL     1       3.140   6.752  17.869  0.00  0.00    +0.000 A 
ATOM     19  C   UNL     1       4.359   7.043  17.226  0.00  0.00    +0.000 A 
ATOM     20  C   UNL     1       5.186   6.028  16.735  0.00  0.00    +0.000 A 
ATOM     21  C   UNL     1       4.812   4.697  16.878  0.00  0.00    +0.000 A 
ATOM     22  C   UNL     1       3.615   4.378  17.511  0.00  0.00    +0.000 A 
ATOM     23  C   UNL     1       2.791   5.394  18.002  0.00  0.00    +0.000 A 
ENDBRANCH   4  18
TORSDOF 3
ENDMDL
MODEL 8
REMARK VINA RESULT:      -6.7      3.410      6.500
REMARK  Name = 
REMARK  5 active torsions:
REMARK  status: ('A' for Active; 'I' for Inactive)
REMARK    1  A    between atoms: C_1  and  C_2
REMARK    2  A    between atoms: C_2  and  C_3
REMARK    3  A    between atoms: C_9  and  C_11
REMARK    4  A    between atoms: C_14  and  C_15
REMARK    5  A    between atoms: C_22  and  C_23
REMARK                            x       y       z     vdW  Elec       q    Type
REMARK                         _______ _______ _______ _____ _____    ______ ____
ROOT
ATOM      1  C   UNL     1       6.498   5.863  17.425  0.00  0.00    +0.000 A 
ATOM      2  C   UNL     1       7.457   5.989  18.404  0.00  0.00    +0.000 A 
ATOM      3  N   UNL     1       8.099   7.137  18.707  0.00  0.00    +0.000 NA
ATOM      4  C   UNL     1       7.711   8.229  18.028  0.00  0.00    +0.000 A 
ATOM      5  N   UNL     1       6.707   8.236  17.129  0.00  0.00    +0.000 NA
ATOM      6  C   UNL     1       6.089   7.057  16.848  0.00  0.00    +0.000 A 
ATOM      7  C   UNL     1       4.934   7.170  15.897  0.00  0.00    +0.000 C 
ENDROOT
BRANCH   1  14
ATOM      8  C   UNL     1       3.876   4.825  18.695  0.00  0.00    +0.000 C 
ATOM      9  C   UNL     1       3.746   3.765  19.814  0.00  0.00    +0.000 C 
ATOM     10  O   UNL     1       3.100   2.577  19.334  0.00  0.00    +0.000 OA
ATOM     11  C   UNL     1       3.880   1.972  18.289  0.00  0.00    +0.000 C 
ATOM     12  C   UNL     1       4.054   2.928  17.105  0.00  0.00    +0.000 C 
ATOM     13  N   UNL     1       4.610   4.219  17.542  0.00  0.00    +0.000 N 
ATOM     14  C   UNL     1       5.905   4.543  17.115  0.00  0.00    +0.000 C 
ATOM     15  O   UNL     1       6.583   3.759  16.448  0.00  0.00    +0.000 OA
BRANCH   8  17
ATOM     16  C   UNL     1       2.363   6.882  18.380  0.00  0.00    +0.000 C 
ATOM     17  C   UNL     1       2.502   5.371  18.238  0.00  0.00    +0.000 C 
ENDBRANCH   8  17
ENDBRANCH   1  14
BRANCH   4  18
ATOM     18  C   UNL     1       8.439   9.487  18.269  0.00  0.00    +0.000 A 
ATOM     19  C   UNL     1       9.386   9.600  19.307  0.00  0.00    +0.000 A 
ATOM     20  C   UNL     1      10.083  10.790  19.533  0.00  0.00    +0.000 A 
ATOM     21  C   UNL     1       9.850  11.896  18.724  0.00  0.00    +0.000 A 
ATOM     22  C   UNL     1       8.922  11.815  17.690  0.00  0.00    +0.000 A 
ATOM     23  C   UNL     1       8.227  10.624  17.465  0.00  0.00    +0.000 A 
ENDBRANCH   4  18
TORSDOF 3
ENDMDL
MODEL 9
REMARK VINA RESULT:      -6.6      3.662      7.745
REMARK  Name = 
REMARK  5 active torsions:
REMARK  status: ('A' for Active; 'I' for Inactive)
REMARK    1  A    between atoms: C_1  and  C_2
REMARK    2  A    between atoms: C_2  and  C_3
REMARK    3  A    between atoms: C_9  and  C_11
REMARK    4  A    between atoms: C_14  and  C_15
REMARK    5  A    between atoms: C_22  and  C_23
REMARK                            x       y       z     vdW  Elec       q    Type
REMARK                         _______ _______ _______ _____ _____    ______ ____
ROOT
ATOM      1  C   UNL     1       0.834  10.017  19.388  0.00  0.00    +0.000 A 
ATOM      2  C   UNL     1       1.072   9.821  18.046  0.00  0.00    +0.000 A 
ATOM      3  N   UNL     1       1.783   8.794  17.534  0.00  0.00    +0.000 NA
ATOM      4  C   UNL     1       2.226   7.883  18.415  0.00  0.00    +0.000 A 
ATOM      5  N   UNL     1       1.955   7.922  19.735  0.00  0.00    +0.000 NA
ATOM      6  C   UNL     1       1.240   8.976  20.212  0.00  0.00    +0.000 A 
ATOM      7  C   UNL     1       0.918   8.899  21.676  0.00  0.00    +0.000 C 
ENDROOT
BRANCH   1  14
ATOM      8  C   UNL     1       2.106  12.830  19.560  0.00  0.00    +0.000 C 
ATOM      9  C   UNL     1       2.578  13.556  20.841  0.00  0.00    +0.000 C 
ATOM     10  O   UNL     1       1.784  14.722  21.103  0.00  0.00    +0.000 OA
ATOM     11  C   UNL     1       0.413  14.353  21.326  0.00  0.00    +0.000 C 
ATOM     12  C   UNL     1      -0.175  13.644  20.102  0.00  0.00    +0.000 C 
ATOM     13  N   UNL     1       0.656  12.496  19.703  0.00  0.00    +0.000 N 
ATOM     14  C   UNL     1       0.107  11.216  19.858  0.00  0.00    +0.000 C 
ATOM     15  O   UNL     1      -1.005  11.044  20.363  0.00  0.00    +0.000 OA
BRANCH   8  17
ATOM     16  C   UNL     1       3.720  14.330  18.231  0.00  0.00    +0.000 C 
ATOM     17  C   UNL     1       2.346  13.672  18.284  0.00  0.00    +0.000 C 
ENDBRANCH   8  17
ENDBRANCH   1  14
BRANCH   4  18
ATOM     18  C   UNL     1       3.074   6.789  17.910  0.00  0.00    +0.000 A 
ATOM     19  C   UNL     1       2.678   5.441  18.029  0.00  0.00    +0.000 A 
ATOM     20  C   UNL     1       3.476   4.401  17.544  0.00  0.00    +0.000 A 
ATOM     21  C   UNL     1       4.690   4.685  16.928  0.00  0.00    +0.000 A 
ATOM     22  C   UNL     1       5.106   6.006  16.794  0.00  0.00    +0.000 A 
ATOM     23  C   UNL     1       4.306   7.045  17.278  0.00  0.00    +0.000 A 
ENDBRANCH   4  18
TORSDOF 3
ENDMDL
