MODEL 1
REMARK VINA RESULT:      -7.0      0.000      0.000
REMARK  Name = 
REMARK  10 active torsions:
REMARK  status: ('A' for Active; 'I' for Inactive)
REMARK    1  A    between atoms: C_1  and  O_2
REMARK    2  A    between atoms: O_2  and  C_3
REMARK    3  A    between atoms: C_5  and  C_6
REMARK    4  A    between atoms: N_8  and  N_9
REMARK    5  A    between atoms: C_10  and  C_12
REMARK    6  A    between atoms: C_16  and  C_17
REMARK    7  A    between atoms: C_19  and  O_20
REMARK    8  A    between atoms: O_20  and  C_21
REMARK    9  A    between atoms: C_22  and  O_23
REMARK   10  A    between atoms: O_23  and  C_24
REMARK                            x       y       z     vdW  Elec       q    Type
REMARK                         _______ _______ _______ _____ _____    ______ ____
ROOT
ATOM      1  C   UNL     1       2.230   7.201  19.871  0.00  0.00    +0.000 C 
ATOM      2  O   UNL     1       2.240   8.017  18.951  0.00  0.00    +0.000 OA
ATOM      3  N   UNL     1       1.727   7.498  21.127  0.00  0.00    +0.000 N 
ATOM      4  H   UNL     1       1.862   6.907  21.945  0.00  0.00    +0.000 HD
ENDROOT
BRANCH   1   7
ATOM      5  C   UNL     1       4.864   4.567  19.270  0.00  0.00    +0.000 A 
ATOM      6  C   UNL     1       4.163   5.785  19.256  0.00  0.00    +0.000 A 
ATOM      7  C   UNL     1       2.851   5.858  19.721  0.00  0.00    +0.000 A 
ATOM      8  C   UNL     1       2.195   4.685  20.083  0.00  0.00    +0.000 A 
ATOM      9  C   UNL     1       2.849   3.443  20.027  0.00  0.00    +0.000 A 
ATOM     10  C   UNL     1       4.204   3.370  19.629  0.00  0.00    +0.000 A 
BRANCH   5  12
ATOM     11  C   UNL     1       6.445   4.642  17.500  0.00  0.00    +0.000 C 
ATOM     12  O   UNL     1       6.184   4.534  18.901  0.00  0.00    +0.000 OA
ENDBRANCH   5  12
BRANCH   9  13
ATOM     13  O   UNL     1       2.011   2.429  20.423  0.00  0.00    +0.000 OA
ATOM     14  C   UNL     1       1.389   2.483  21.697  0.00  0.00    +0.000 C 
ENDBRANCH   9  13
BRANCH  10  15
ATOM     15  O   UNL     1       4.755   2.117  19.617  0.00  0.00    +0.000 OA
ATOM     16  C   UNL     1       5.111   1.460  20.821  0.00  0.00    +0.000 C 
ENDBRANCH  10  15
ENDBRANCH   1   7
BRANCH   3  17
ATOM     17  N   UNL     1       1.310   8.810  21.381  0.00  0.00    +0.000 N 
ATOM     18  C   UNL     1      -0.019   9.044  21.679  0.00  0.00    +0.000 C 
ATOM     19  O   UNL     1      -0.834   8.124  21.761  0.00  0.00    +0.000 OA
ATOM     20  H   UNL     1       2.031   9.529  21.356  0.00  0.00    +0.000 HD
BRANCH  18  21
ATOM     21  C   UNL     1      -0.372  10.441  21.888  0.00  0.00    +0.000 A 
ATOM     22  C   UNL     1      -1.004  11.077  23.006  0.00  0.00    +0.000 A 
ATOM     23  C   UNL     1      -1.094  12.414  22.704  0.00  0.00    +0.000 A 
ATOM     24  O   UNL     1      -0.571  12.660  21.480  0.00  0.00    +0.000 OA
ATOM     25  C   UNL     1      -0.133  11.470  20.985  0.00  0.00    +0.000 A 
ATOM     26  C   UNL     1       0.483  11.526  19.639  0.00  0.00    +0.000 C 
ENDBRANCH  18  21
ENDBRANCH   3  17
TORSDOF 6
ENDMDL
MODEL 2
REMARK VINA RESULT:      -6.9      1.980      2.756
REMARK  Name = 
REMARK  10 active torsions:
REMARK  status: ('A' for Active; 'I' for Inactive)
REMARK    1  A    between atoms: C_1  and  O_2
REMARK    2  A    between atoms: O_2  and  C_3
REMARK    3  A    between atoms: C_5  and  C_6
REMARK    4  A    between atoms: N_8  and  N_9
REMARK    5  A    between atoms: C_10  and  C_12
REMARK    6  A    between atoms: C_16  and  C_17
REMARK    7  A    between atoms: C_19  and  O_20
REMARK    8  A    between atoms: O_20  and  C_21
REMARK    9  A    between atoms: C_22  and  O_23
REMARK   10  A    between atoms: O_23  and  C_24
REMARK                            x       y       z     vdW  Elec       q    Type
REMARK                         _______ _______ _______ _____ _____    ______ ____
ROOT
ATOM      1  C   UNL     1       2.364   6.062  19.798  0.00  0.00    +0.000 C 
ATOM      2  O   UNL     1       1.503   5.405  20.380  0.00  0.00    +0.000 OA
ATOM      3  N   UNL     1       2.561   7.412  20.037  0.00  0.00    +0.000 N 
ATOM      4  H   UNL     1       3.142   8.011  19.453  0.00  0.00    +0.000 HD
ENDROOT
BRANCH   1   7
ATOM      5  C   UNL     1       5.011   5.763  17.126  0.00  0.00    +0.000 A 
ATOM      6  C   UNL     1       4.070   6.298  18.022  0.00  0.00    +0.000 A 
ATOM      7  C   UNL     1       3.196   5.465  18.719  0.00  0.00    +0.000 A 
ATOM      8  C   UNL     1       3.177   4.105  18.424  0.00  0.00    +0.000 A 
ATOM      9  C   UNL     1       4.053   3.559  17.471  0.00  0.00    +0.000 A 
ATOM     10  C   UNL     1       4.995   4.385  16.814  0.00  0.00    +0.000 A 
BRANCH   5  12
ATOM     11  C   UNL     1       7.008   7.027  17.349  0.00  0.00    +0.000 C 
ATOM     12  O   UNL     1       5.928   6.587  16.524  0.00  0.00    +0.000 OA
ENDBRANCH   5  12
BRANCH   9  13
ATOM     13  O   UNL     1       3.854   2.206  17.340  0.00  0.00    +0.000 OA
ATOM     14  C   UNL     1       3.570   1.420  18.487  0.00  0.00    +0.000 C 
ENDBRANCH   9  13
BRANCH  10  15
ATOM     15  O   UNL     1       5.810   3.758  15.911  0.00  0.00    +0.000 OA
ATOM     16  C   UNL     1       5.750   4.067  14.529  0.00  0.00    +0.000 C 
ENDBRANCH  10  15
ENDBRANCH   1   7
BRANCH   3  17
ATOM     17  N   UNL     1       1.676   8.069  20.899  0.00  0.00    +0.000 N 
ATOM     18  C   UNL     1       0.959   9.151  20.426  0.00  0.00    +0.000 C 
ATOM     19  O   UNL     1       1.055   9.528  19.257  0.00  0.00    +0.000 OA
ATOM     20  H   UNL     1       1.589   7.686  21.839  0.00  0.00    +0.000 HD
BRANCH  18  21
ATOM     21  C   UNL     1       0.094   9.798  21.402  0.00  0.00    +0.000 A 
ATOM     22  C   UNL     1      -0.184   9.451  22.764  0.00  0.00    +0.000 A 
ATOM     23  C   UNL     1      -1.056  10.397  23.245  0.00  0.00    +0.000 A 
ATOM     24  O   UNL     1      -1.350  11.304  22.285  0.00  0.00    +0.000 OA
ATOM     25  C   UNL     1      -0.655  10.946  21.170  0.00  0.00    +0.000 A 
ATOM     26  C   UNL     1      -0.839  11.825  19.992  0.00  0.00    +0.000 C 
ENDBRANCH  18  21
ENDBRANCH   3  17
TORSDOF 6
ENDMDL
MODEL 3
REMARK VINA RESULT:      -6.9      5.136      7.557
REMARK  Name = 
REMARK  10 active torsions:
REMARK  status: ('A' for Active; 'I' for Inactive)
REMARK    1  A    between atoms: C_1  and  O_2
REMARK    2  A    between atoms: O_2  and  C_3
REMARK    3  A    between atoms: C_5  and  C_6
REMARK    4  A    between atoms: N_8  and  N_9
REMARK    5  A    between atoms: C_10  and  C_12
REMARK    6  A    between atoms: C_16  and  C_17
REMARK    7  A    between atoms: C_19  and  O_20
REMARK    8  A    between atoms: O_20  and  C_21
REMARK    9  A    between atoms: C_22  and  O_23
REMARK   10  A    between atoms: O_23  and  C_24
REMARK                            x       y       z     vdW  Elec       q    Type
REMARK                         _______ _______ _______ _____ _____    ______ ____
ROOT
ATOM      1  C   UNL     1       7.784   6.288  18.867  0.00  0.00    +0.000 C 
ATOM      2  O   UNL     1       8.549   5.899  19.748  0.00  0.00    +0.000 OA
ATOM      3  N   UNL     1       7.882   7.546  18.295  0.00  0.00    +0.000 N 
ATOM      4  H   UNL     1       7.166   7.952  17.696  0.00  0.00    +0.000 HD
ENDROOT
BRANCH   1   7
ATOM      5  C   UNL     1       4.327   4.779  18.795  0.00  0.00    +0.000 A 
ATOM      6  C   UNL     1       5.511   5.389  19.244  0.00  0.00    +0.000 A 
ATOM      7  C   UNL     1       6.633   5.460  18.420  0.00  0.00    +0.000 A 
ATOM      8  C   UNL     1       6.612   4.806  17.191  0.00  0.00    +0.000 A 
ATOM      9  C   UNL     1       5.467   4.119  16.755  0.00  0.00    +0.000 A 
ATOM     10  C   UNL     1       4.298   4.108  17.552  0.00  0.00    +0.000 A 
BRANCH   5  12
ATOM     11  C   UNL     1       2.444   6.017  19.545  0.00  0.00    +0.000 C 
ATOM     12  O   UNL     1       3.203   4.807  19.581  0.00  0.00    +0.000 OA
ENDBRANCH   5  12
BRANCH   9  13
ATOM     13  O   UNL     1       5.675   3.550  15.523  0.00  0.00    +0.000 OA
ATOM     14  C   UNL     1       6.446   4.236  14.549  0.00  0.00    +0.000 C 
ENDBRANCH   9  13
BRANCH  10  15
ATOM     15  O   UNL     1       3.232   3.421  17.037  0.00  0.00    +0.000 OA
ATOM     16  C   UNL     1       2.784   2.212  17.626  0.00  0.00    +0.000 C 
ENDBRANCH  10  15
ENDBRANCH   1   7
BRANCH   3  17
ATOM     17  N   UNL     1       8.825   8.439  18.817  0.00  0.00    +0.000 N 
ATOM     18  C   UNL     1       8.739   9.776  18.479  0.00  0.00    +0.000 C 
ATOM     19  O   UNL     1       7.835  10.204  17.760  0.00  0.00    +0.000 OA
ATOM     20  H   UNL     1       9.520   8.048  19.451  0.00  0.00    +0.000 HD
BRANCH  18  21
ATOM     21  C   UNL     1       9.784  10.626  19.033  0.00  0.00    +0.000 A 
ATOM     22  C   UNL     1      10.991  11.114  18.435  0.00  0.00    +0.000 A 
ATOM     23  C   UNL     1      11.618  11.888  19.382  0.00  0.00    +0.000 A 
ATOM     24  O   UNL     1      10.896  11.915  20.526  0.00  0.00    +0.000 OA
ATOM     25  C   UNL     1       9.786  11.154  20.318  0.00  0.00    +0.000 A 
ATOM     26  C   UNL     1       8.854  11.058  21.465  0.00  0.00    +0.000 C 
ENDBRANCH  18  21
ENDBRANCH   3  17
TORSDOF 6
ENDMDL
MODEL 4
REMARK VINA RESULT:      -6.8      0.778      2.623
REMARK  Name = 
REMARK  10 active torsions:
REMARK  status: ('A' for Active; 'I' for Inactive)
REMARK    1  A    between atoms: C_1  and  O_2
REMARK    2  A    between atoms: O_2  and  C_3
REMARK    3  A    between atoms: C_5  and  C_6
REMARK    4  A    between atoms: N_8  and  N_9
REMARK    5  A    between atoms: C_10  and  C_12
REMARK    6  A    between atoms: C_16  and  C_17
REMARK    7  A    between atoms: C_19  and  O_20
REMARK    8  A    between atoms: O_20  and  C_21
REMARK    9  A    between atoms: C_22  and  O_23
REMARK   10  A    between atoms: O_23  and  C_24
REMARK                            x       y       z     vdW  Elec       q    Type
REMARK                         _______ _______ _______ _____ _____    ______ ____
ROOT
ATOM      1  C   UNL     1       2.230   7.114  19.708  0.00  0.00    +0.000 C 
ATOM      2  O   UNL     1       2.303   7.840  18.718  0.00  0.00    +0.000 OA
ATOM      3  N   UNL     1       1.637   7.524  20.891  0.00  0.00    +0.000 N 
ATOM      4  H   UNL     1       1.714   7.013  21.768  0.00  0.00    +0.000 HD
ENDROOT
BRANCH   1   7
ATOM      5  C   UNL     1       2.554   3.356  19.789  0.00  0.00    +0.000 A 
ATOM      6  C   UNL     1       2.048   4.659  19.941  0.00  0.00    +0.000 A 
ATOM      7  C   UNL     1       2.864   5.769  19.731  0.00  0.00    +0.000 A 
ATOM      8  C   UNL     1       4.222   5.576  19.493  0.00  0.00    +0.000 A 
ATOM      9  C   UNL     1       4.768   4.284  19.418  0.00  0.00    +0.000 A 
ATOM     10  C   UNL     1       3.933   3.150  19.554  0.00  0.00    +0.000 A 
BRANCH   5  12
ATOM     11  C   UNL     1       0.687   2.180  18.913  0.00  0.00    +0.000 C 
ATOM     12  O   UNL     1       1.714   2.278  19.902  0.00  0.00    +0.000 OA
ENDBRANCH   5  12
BRANCH   9  13
ATOM     13  O   UNL     1       6.120   4.335  19.182  0.00  0.00    +0.000 OA
ATOM     14  C   UNL     1       6.599   4.708  17.900  0.00  0.00    +0.000 C 
ENDBRANCH   9  13
BRANCH  10  15
ATOM     15  O   UNL     1       4.556   1.936  19.455  0.00  0.00    +0.000 OA
ATOM     16  C   UNL     1       5.051   1.269  20.604  0.00  0.00    +0.000 C 
ENDBRANCH  10  15
ENDBRANCH   1   7
BRANCH   3  17
ATOM     17  N   UNL     1       1.198   8.849  20.988  0.00  0.00    +0.000 N 
ATOM     18  C   UNL     1      -0.085   9.099  21.437  0.00  0.00    +0.000 C 
ATOM     19  O   UNL     1      -0.836   8.187  21.785  0.00  0.00    +0.000 OA
ATOM     20  H   UNL     1       1.873   9.571  20.742  0.00  0.00    +0.000 HD
BRANCH  18  21
ATOM     21  C   UNL     1      -0.471  10.502  21.467  0.00  0.00    +0.000 A 
ATOM     22  C   UNL     1      -0.635  11.391  22.579  0.00  0.00    +0.000 A 
ATOM     23  C   UNL     1      -0.994  12.612  22.062  0.00  0.00    +0.000 A 
ATOM     24  O   UNL     1      -1.073  12.551  20.712  0.00  0.00    +0.000 OA
ATOM     25  C   UNL     1      -0.756  11.277  20.350  0.00  0.00    +0.000 A 
ATOM     26  C   UNL     1      -0.781  11.002  18.895  0.00  0.00    +0.000 C 
ENDBRANCH  18  21
ENDBRANCH   3  17
TORSDOF 6
ENDMDL
MODEL 5
REMARK VINA RESULT:      -6.8      2.362      3.205
REMARK  Name = 
REMARK  10 active torsions:
REMARK  status: ('A' for Active; 'I' for Inactive)
REMARK    1  A    between atoms: C_1  and  O_2
REMARK    2  A    between atoms: O_2  and  C_3
REMARK    3  A    between atoms: C_5  and  C_6
REMARK    4  A    between atoms: N_8  and  N_9
REMARK    5  A    between atoms: C_10  and  C_12
REMARK    6  A    between atoms: C_16  and  C_17
REMARK    7  A    between atoms: C_19  and  O_20
REMARK    8  A    between atoms: O_20  and  C_21
REMARK    9  A    between atoms: C_22  and  O_23
REMARK   10  A    between atoms: O_23  and  C_24
REMARK                            x       y       z     vdW  Elec       q    Type
REMARK                         _______ _______ _______ _____ _____    ______ ____
ROOT
ATOM      1  C   UNL     1       2.569   7.022  18.971  0.00  0.00    +0.000 C 
ATOM      2  O   UNL     1       2.063   6.548  19.987  0.00  0.00    +0.000 OA
ATOM      3  N   UNL     1       2.257   8.288  18.503  0.00  0.00    +0.000 N 
ATOM      4  H   UNL     1       2.527   8.633  17.584  0.00  0.00    +0.000 HD
ENDROOT
BRANCH   1   7
ATOM      5  C   UNL     1       5.592   6.126  16.899  0.00  0.00    +0.000 A 
ATOM      6  C   UNL     1       4.591   6.863  17.556  0.00  0.00    +0.000 A 
ATOM      7  C   UNL     1       3.489   6.222  18.118  0.00  0.00    +0.000 A 
ATOM      8  C   UNL     1       3.322   4.855  17.913  0.00  0.00    +0.000 A 
ATOM      9  C   UNL     1       4.268   4.112  17.188  0.00  0.00    +0.000 A 
ATOM     10  C   UNL     1       5.429   4.740  16.679  0.00  0.00    +0.000 A 
BRANCH   5  12
ATOM     11  C   UNL     1       7.488   7.457  17.420  0.00  0.00    +0.000 C 
ATOM     12  O   UNL     1       6.718   6.761  16.438  0.00  0.00    +0.000 OA
ENDBRANCH   5  12
BRANCH   9  13
ATOM     13  O   UNL     1       3.897   2.791  17.108  0.00  0.00    +0.000 OA
ATOM     14  C   UNL     1       3.299   2.156  18.228  0.00  0.00    +0.000 C 
ENDBRANCH   9  13
BRANCH  10  15
ATOM     15  O   UNL     1       6.295   3.929  15.997  0.00  0.00    +0.000 OA
ATOM     16  C   UNL     1       6.281   3.866  14.581  0.00  0.00    +0.000 C 
ENDBRANCH  10  15
ENDBRANCH   1   7
BRANCH   3  17
ATOM     17  N   UNL     1       1.252   9.007  19.157  0.00  0.00    +0.000 N 
ATOM     18  C   UNL     1       1.174  10.374  18.967  0.00  0.00    +0.000 C 
ATOM     19  O   UNL     1       1.945  10.966  18.210  0.00  0.00    +0.000 OA
ATOM     20  H   UNL     1       0.604   8.467  19.728  0.00  0.00    +0.000 HD
BRANCH  18  21
ATOM     21  C   UNL     1       0.124  11.047  19.718  0.00  0.00    +0.000 A 
ATOM     22  C   UNL     1       0.180  11.727  20.979  0.00  0.00    +0.000 A 
ATOM     23  C   UNL     1      -1.085  12.198  21.233  0.00  0.00    +0.000 A 
ATOM     24  O   UNL     1      -1.928  11.860  20.229  0.00  0.00    +0.000 OA
ATOM     25  C   UNL     1      -1.199  11.165  19.311  0.00  0.00    +0.000 A 
ATOM     26  C   UNL     1      -1.948  10.703  18.120  0.00  0.00    +0.000 C 
ENDBRANCH  18  21
ENDBRANCH   3  17
TORSDOF 6
ENDMDL
MODEL 6
REMARK VINA RESULT:      -6.8      2.354      3.339
REMARK  Name = 
REMARK  10 active torsions:
REMARK  status: ('A' for Active; 'I' for Inactive)
REMARK    1  A    between atoms: C_1  and  O_2
REMARK    2  A    between atoms: O_2  and  C_3
REMARK    3  A    between atoms: C_5  and  C_6
REMARK    4  A    between atoms: N_8  and  N_9
REMARK    5  A    between atoms: C_10  and  C_12
REMARK    6  A    between atoms: C_16  and  C_17
REMARK    7  A    between atoms: C_19  and  O_20
REMARK    8  A    between atoms: O_20  and  C_21
REMARK    9  A    between atoms: C_22  and  O_23
REMARK   10  A    between atoms: O_23  and  C_24
REMARK                            x       y       z     vdW  Elec       q    Type
REMARK                         _______ _______ _______ _____ _____    ______ ____
ROOT
ATOM      1  C   UNL     1       2.382   7.621  18.619  0.00  0.00    +0.000 C 
ATOM      2  O   UNL     1       2.085   7.454  19.801  0.00  0.00    +0.000 OA
ATOM      3  N   UNL     1       1.823   8.623  17.843  0.00  0.00    +0.000 N 
ATOM      4  H   UNL     1       1.921   8.675  16.831  0.00  0.00    +0.000 HD
ENDROOT
BRANCH   1   7
ATOM      5  C   UNL     1       5.479   6.346  16.882  0.00  0.00    +0.000 A 
ATOM      6  C   UNL     1       4.489   7.202  17.392  0.00  0.00    +0.000 A 
ATOM      7  C   UNL     1       3.302   6.689  17.913  0.00  0.00    +0.000 A 
ATOM      8  C   UNL     1       3.051   5.324  17.808  0.00  0.00    +0.000 A 
ATOM      9  C   UNL     1       3.992   4.458  17.227  0.00  0.00    +0.000 A 
ATOM     10  C   UNL     1       5.231   4.959  16.765  0.00  0.00    +0.000 A 
BRANCH   5  12
ATOM     11  C   UNL     1       7.534   7.368  17.493  0.00  0.00    +0.000 C 
ATOM     12  O   UNL     1       6.680   6.860  16.465  0.00  0.00    +0.000 OA
ENDBRANCH   5  12
BRANCH   9  13
ATOM     13  O   UNL     1       3.531   3.164  17.226  0.00  0.00    +0.000 OA
ATOM     14  C   UNL     1       2.878   2.645  18.373  0.00  0.00    +0.000 C 
ENDBRANCH   9  13
BRANCH  10  15
ATOM     15  O   UNL     1       6.084   4.036  16.225  0.00  0.00    +0.000 OA
ATOM     16  C   UNL     1       6.188   3.864  14.821  0.00  0.00    +0.000 C 
ENDBRANCH  10  15
ENDBRANCH   1   7
BRANCH   3  17
ATOM     17  N   UNL     1       0.807   9.405  18.403  0.00  0.00    +0.000 N 
ATOM     18  C   UNL     1       1.041  10.749  18.625  0.00  0.00    +0.000 C 
ATOM     19  O   UNL     1       2.108  11.279  18.311  0.00  0.00    +0.000 OA
ATOM     20  H   UNL     1      -0.076   8.935  18.594  0.00  0.00    +0.000 HD
BRANCH  18  21
ATOM     21  C   UNL     1      -0.056  11.477  19.248  0.00  0.00    +0.000 A 
ATOM     22  C   UNL     1      -0.956  12.443  18.692  0.00  0.00    +0.000 A 
ATOM     23  C   UNL     1      -1.814  12.812  19.699  0.00  0.00    +0.000 A 
ATOM     24  O   UNL     1      -1.514  12.153  20.843  0.00  0.00    +0.000 OA
ATOM     25  C   UNL     1      -0.453  11.344  20.572  0.00  0.00    +0.000 A 
ATOM     26  C   UNL     1       0.032  10.525  21.708  0.00  0.00    +0.000 C 
ENDBRANCH  18  21
ENDBRANCH   3  17
TORSDOF 6
ENDMDL
MODEL 7
REMARK VINA RESULT:      -6.8      1.904      2.532
REMARK  Name = 
REMARK  10 active torsions:
REMARK  status: ('A' for Active; 'I' for Inactive)
REMARK    1  A    between atoms: C_1  and  O_2
REMARK    2  A    between atoms: O_2  and  C_3
REMARK    3  A    between atoms: C_5  and  C_6
REMARK    4  A    between atoms: N_8  and  N_9
REMARK    5  A    between atoms: C_10  and  C_12
REMARK    6  A    between atoms: C_16  and  C_17
REMARK    7  A    between atoms: C_19  and  O_20
REMARK    8  A    between atoms: O_20  and  C_21
REMARK    9  A    between atoms: C_22  and  O_23
REMARK   10  A    between atoms: O_23  and  C_24
REMARK                            x       y       z     vdW  Elec       q    Type
REMARK                         _______ _______ _______ _____ _____    ______ ____
ROOT
ATOM      1  C   UNL     1       2.101   8.337  18.279  0.00  0.00    +0.000 C 
ATOM      2  O   UNL     1       1.864   9.295  17.545  0.00  0.00    +0.000 OA
ATOM      3  N   UNL     1       1.602   8.243  19.568  0.00  0.00    +0.000 N 
ATOM      4  H   UNL     1       1.918   7.555  20.248  0.00  0.00    +0.000 HD
ENDROOT
BRANCH   1   7
ATOM      5  C   UNL     1       5.225   6.639  17.018  0.00  0.00    +0.000 A 
ATOM      6  C   UNL     1       4.234   7.605  17.265  0.00  0.00    +0.000 A 
ATOM      7  C   UNL     1       3.025   7.250  17.860  0.00  0.00    +0.000 A 
ATOM      8  C   UNL     1       2.754   5.905  18.093  0.00  0.00    +0.000 A 
ATOM      9  C   UNL     1       3.697   4.912  17.778  0.00  0.00    +0.000 A 
ATOM     10  C   UNL     1       4.957   5.270  17.245  0.00  0.00    +0.000 A 
BRANCH   5  12
ATOM     11  C   UNL     1       7.441   7.344  17.497  0.00  0.00    +0.000 C 
ATOM     12  O   UNL     1       6.446   7.022  16.524  0.00  0.00    +0.000 OA
ENDBRANCH   5  12
BRANCH   9  13
ATOM     13  O   UNL     1       3.216   3.663  18.087  0.00  0.00    +0.000 OA
ATOM     14  C   UNL     1       3.416   3.130  19.387  0.00  0.00    +0.000 C 
ENDBRANCH   9  13
BRANCH  10  15
ATOM     15  O   UNL     1       5.810   4.233  16.982  0.00  0.00    +0.000 OA
ATOM     16  C   UNL     1       5.986   3.743  15.663  0.00  0.00    +0.000 C 
ENDBRANCH  10  15
ENDBRANCH   1   7
BRANCH   3  17
ATOM     17  N   UNL     1       0.887   9.331  20.083  0.00  0.00    +0.000 N 
ATOM     18  C   UNL     1       0.908   9.561  21.445  0.00  0.00    +0.000 C 
ATOM     19  O   UNL     1       1.567   8.855  22.210  0.00  0.00    +0.000 OA
ATOM     20  H   UNL     1       0.404   9.919  19.406  0.00  0.00    +0.000 HD
BRANCH  18  21
ATOM     21  C   UNL     1       0.105  10.689  21.897  0.00  0.00    +0.000 A 
ATOM     22  C   UNL     1      -0.953  10.741  22.862  0.00  0.00    +0.000 A 
ATOM     23  C   UNL     1      -1.366  12.050  22.929  0.00  0.00    +0.000 A 
ATOM     24  O   UNL     1      -0.650  12.817  22.074  0.00  0.00    +0.000 OA
ATOM     25  C   UNL     1       0.241  11.997  21.450  0.00  0.00    +0.000 A 
ATOM     26  C   UNL     1       1.132  12.654  20.465  0.00  0.00    +0.000 C 
ENDBRANCH  18  21
ENDBRANCH   3  17
TORSDOF 6
ENDMDL
MODEL 8
REMARK VINA RESULT:      -6.8      2.411      4.178
REMARK  Name = 
REMARK  10 active torsions:
REMARK  status: ('A' for Active; 'I' for Inactive)
REMARK    1  A    between atoms: C_1  and  O_2
REMARK    2  A    between atoms: O_2  and  C_3
REMARK    3  A    between atoms: C_5  and  C_6
REMARK    4  A    between atoms: N_8  and  N_9
REMARK    5  A    between atoms: C_10  and  C_12
REMARK    6  A    between atoms: C_16  and  C_17
REMARK    7  A    between atoms: C_19  and  O_20
REMARK    8  A    between atoms: O_20  and  C_21
REMARK    9  A    between atoms: C_22  and  O_23
REMARK   10  A    between atoms: O_23  and  C_24
REMARK                            x       y       z     vdW  Elec       q    Type
REMARK                         _______ _______ _______ _____ _____    ______ ____
ROOT
ATOM      1  C   UNL     1       2.560   7.380  18.711  0.00  0.00    +0.000 C 
ATOM      2  O   UNL     1       2.090   7.118  19.817  0.00  0.00    +0.000 OA
ATOM      3  N   UNL     1       2.109   8.440  17.941  0.00  0.00    +0.000 N 
ATOM      4  H   UNL     1       2.358   8.574  16.963  0.00  0.00    +0.000 HD
ENDROOT
BRANCH   1   7
ATOM      5  C   UNL     1       4.157   4.317  17.194  0.00  0.00    +0.000 A 
ATOM      6  C   UNL     1       3.311   5.152  17.944  0.00  0.00    +0.000 A 
ATOM      7  C   UNL     1       3.589   6.511  18.081  0.00  0.00    +0.000 A 
ATOM      8  C   UNL     1       4.784   7.012  17.573  0.00  0.00    +0.000 A 
ATOM      9  C   UNL     1       5.686   6.179  16.890  0.00  0.00    +0.000 A 
ATOM     10  C   UNL     1       5.376   4.815  16.681  0.00  0.00    +0.000 A 
BRANCH   5  12
ATOM     11  C   UNL     1       3.365   2.288  18.140  0.00  0.00    +0.000 C 
ATOM     12  O   UNL     1       3.816   3.004  16.988  0.00  0.00    +0.000 OA
ENDBRANCH   5  12
BRANCH   9  13
ATOM     13  O   UNL     1       6.794   6.883  16.485  0.00  0.00    +0.000 OA
ATOM     14  C   UNL     1       7.587   7.565  17.443  0.00  0.00    +0.000 C 
ENDBRANCH   9  13
BRANCH  10  15
ATOM     15  O   UNL     1       6.313   4.089  15.996  0.00  0.00    +0.000 OA
ATOM     16  C   UNL     1       6.220   3.907  14.593  0.00  0.00    +0.000 C 
ENDBRANCH  10  15
ENDBRANCH   1   7
BRANCH   3  17
ATOM     17  N   UNL     1       1.009   9.172  18.400  0.00  0.00    +0.000 N 
ATOM     18  C   UNL     1       1.125  10.542  18.535  0.00  0.00    +0.000 C 
ATOM     19  O   UNL     1       2.160  11.136  18.228  0.00  0.00    +0.000 OA
ATOM     20  H   UNL     1       0.158   8.644  18.588  0.00  0.00    +0.000 HD
BRANCH  18  21
ATOM     21  C   UNL     1      -0.054  11.218  19.058  0.00  0.00    +0.000 A 
ATOM     22  C   UNL     1      -1.025  12.032  18.388  0.00  0.00    +0.000 A 
ATOM     23  C   UNL     1      -1.944  12.414  19.335  0.00  0.00    +0.000 A 
ATOM     24  O   UNL     1      -1.618  11.904  20.545  0.00  0.00    +0.000 OA
ATOM     25  C   UNL     1      -0.477  11.179  20.380  0.00  0.00    +0.000 A 
ATOM     26  C   UNL     1       0.049  10.529  21.603  0.00  0.00    +0.000 C 
ENDBRANCH  18  21
ENDBRANCH   3  17
TORSDOF 6
ENDMDL
MODEL 9
REMARK VINA RESULT:      -6.7      5.356      7.387
REMARK  Name = 
REMARK  10 active torsions:
REMARK  status: ('A' for Active; 'I' for Inactive)
REMARK    1  A    between atoms: C_1  and  O_2
REMARK    2  A    between atoms: O_2  and  C_3
REMARK    3  A    between atoms: C_5  and  C_6
REMARK    4  A    between atoms: N_8  and  N_9
REMARK    5  A    between atoms: C_10  and  C_12
REMARK    6  A    between atoms: C_16  and  C_17
REMARK    7  A    between atoms: C_19  and  O_20
REMARK    8  A    between atoms: O_20  and  C_21
REMARK    9  A    between atoms: C_22  and  O_23
REMARK   10  A    between atoms: O_23  and  C_24
REMARK                            x       y       z     vdW  Elec       q    Type
REMARK                         _______ _______ _______ _____ _____    ______ ____
ROOT
ATOM      1  C   UNL     1       7.692   6.799  18.405  0.00  0.00    +0.000 C 
ATOM      2  O   UNL     1       8.459   6.284  19.217  0.00  0.00    +0.000 OA
ATOM      3  N   UNL     1       7.829   8.108  17.974  0.00  0.00    +0.000 N 
ATOM      4  H   UNL     1       7.118   8.605  17.441  0.00  0.00    +0.000 HD
ENDROOT
BRANCH   1   7
ATOM      5  C   UNL     1       5.626   4.325  16.443  0.00  0.00    +0.000 A 
ATOM      6  C   UNL     1       6.670   5.177  16.841  0.00  0.00    +0.000 A 
ATOM      7  C   UNL     1       6.498   6.070  17.898  0.00  0.00    +0.000 A 
ATOM      8  C   UNL     1       5.239   6.201  18.475  0.00  0.00    +0.000 A 
ATOM      9  C   UNL     1       4.157   5.418  18.038  0.00  0.00    +0.000 A 
ATOM     10  C   UNL     1       4.341   4.456  17.018  0.00  0.00    +0.000 A 
BRANCH   5  12
ATOM     11  C   UNL     1       6.133   3.893  14.164  0.00  0.00    +0.000 C 
ATOM     12  O   UNL     1       5.843   3.385  15.468  0.00  0.00    +0.000 OA
ENDBRANCH   5  12
BRANCH   9  13
ATOM     13  O   UNL     1       3.017   5.720  18.743  0.00  0.00    +0.000 OA
ATOM     14  C   UNL     1       2.820   5.171  20.036  0.00  0.00    +0.000 C 
ENDBRANCH   9  13
BRANCH  10  15
ATOM     15  O   UNL     1       3.231   3.736  16.670  0.00  0.00    +0.000 OA
ATOM     16  C   UNL     1       2.850   2.577  17.392  0.00  0.00    +0.000 C 
ENDBRANCH  10  15
ENDBRANCH   1   7
BRANCH   3  17
ATOM     17  N   UNL     1       8.818   8.900  18.567  0.00  0.00    +0.000 N 
ATOM     18  C   UNL     1       8.837  10.256  18.303  0.00  0.00    +0.000 C 
ATOM     19  O   UNL     1       7.986  10.787  17.588  0.00  0.00    +0.000 OA
ATOM     20  H   UNL     1       9.466   8.426  19.194  0.00  0.00    +0.000 HD
BRANCH  18  21
ATOM     21  C   UNL     1       9.924  10.996  18.929  0.00  0.00    +0.000 A 
ATOM     22  C   UNL     1      11.173  11.440  18.384  0.00  0.00    +0.000 A 
ATOM     23  C   UNL     1      11.830  12.107  19.389  0.00  0.00    +0.000 A 
ATOM     24  O   UNL     1      11.088  12.108  20.521  0.00  0.00    +0.000 OA
ATOM     25  C   UNL     1       9.935  11.439  20.245  0.00  0.00    +0.000 A 
ATOM     26  C   UNL     1       8.975  11.331  21.368  0.00  0.00    +0.000 C 
ENDBRANCH  18  21
ENDBRANCH   3  17
TORSDOF 6
ENDMDL
