MODEL 1
REMARK VINA RESULT:      -7.4      0.000      0.000
REMARK  Name = 
REMARK  8 active torsions:
REMARK  status: ('A' for Active; 'I' for Inactive)
REMARK    1  A    between atoms: C_1  and  N_2
REMARK    2  A    between atoms: N_2  and  C_3
REMARK    3  A    between atoms: C_3  and  C_4
REMARK    4  A    between atoms: C_4  and  O_5
REMARK    5  A    between atoms: N_12  and  C_13
REMARK    6  A    between atoms: C_18  and  C_19
REMARK    7  A    between atoms: C_19  and  C_20
REMARK    8  A    between atoms: C_20  and  O_21
REMARK                            x       y       z     vdW  Elec       q    Type
REMARK                         _______ _______ _______ _____ _____    ______ ____
ROOT
ATOM      1  C   UNL     1       2.171   2.507  18.405  0.00  0.00    +0.000 C 
ATOM      2  N   UNL     1       1.508   3.492  19.245  0.00  0.00    +0.000 N 
ATOM      3  C   UNL     1       2.050   4.773  19.254  0.00  0.00    +0.000 A 
ATOM      4  N   UNL     1       1.613   5.636  20.153  0.00  0.00    +0.000 NA
ATOM      5  C   UNL     1       2.075   6.866  19.988  0.00  0.00    +0.000 A 
ATOM      6 CL   UNL     1       1.548   8.010  21.147  0.00  0.00    +0.000 Cl
ATOM      7  N   UNL     1       2.888   7.317  19.053  0.00  0.00    +0.000 NA
ATOM      8  C   UNL     1       3.344   6.367  18.255  0.00  0.00    +0.000 A 
ATOM      9  N   UNL     1       4.239   6.763  17.255  0.00  0.00    +0.000 N 
ATOM     10  N   UNL     1       2.952   5.094  18.329  0.00  0.00    +0.000 NA
ATOM     11  H   UNL     1       3.795   7.481  16.698  0.00  0.00    +0.000 HD
ENDROOT
BRANCH   9  12
ATOM     12  C   UNL     1       5.258   6.013  16.641  0.00  0.00    +0.000 A 
ATOM     13  C   UNL     1       5.149   5.681  15.276  0.00  0.00    +0.000 A 
ATOM     14  C   UNL     1       6.108   4.899  14.630  0.00  0.00    +0.000 A 
ATOM     15  C   UNL     1       7.217   4.452  15.334  0.00  0.00    +0.000 A 
ATOM     16  C   UNL     1       7.339   4.748  16.690  0.00  0.00    +0.000 A 
ATOM     17  C   UNL     1       6.351   5.492  17.369  0.00  0.00    +0.000 A 
BRANCH  17  18
ATOM     18  C   UNL     1       6.510   5.655  18.868  0.00  0.00    +0.000 C 
BRANCH  18  19
ATOM     19  C   UNL     1       7.958   5.782  19.333  0.00  0.00    +0.000 C 
BRANCH  19  20
ATOM     20  O   UNL     1       8.094   5.388  20.693  0.00  0.00    +0.000 OA
ATOM     21  H   UNL     1       7.192   5.252  21.037  0.00  0.00    +0.000 HD
ENDBRANCH  19  20
ENDBRANCH  18  19
ENDBRANCH  17  18
ENDBRANCH   9  12
BRANCH   2  22
ATOM     22  C   UNL     1       0.823   3.032  20.460  0.00  0.00    +0.000 C 
BRANCH  22  23
ATOM     23  C   UNL     1       1.812   2.364  21.425  0.00  0.00    +0.000 C 
BRANCH  23  24
ATOM     24  O   UNL     1       2.308   3.321  22.364  0.00  0.00    +0.000 OA
ATOM     25  H   UNL     1       2.722   4.015  21.813  0.00  0.00    +0.000 HD
ENDBRANCH  23  24
ENDBRANCH  22  23
ENDBRANCH   2  22
TORSDOF 7
ENDMDL
MODEL 2
REMARK VINA RESULT:      -6.8      1.184      1.260
REMARK  Name = 
REMARK  8 active torsions:
REMARK  status: ('A' for Active; 'I' for Inactive)
REMARK    1  A    between atoms: C_1  and  N_2
REMARK    2  A    between atoms: N_2  and  C_3
REMARK    3  A    between atoms: C_3  and  C_4
REMARK    4  A    between atoms: C_4  and  O_5
REMARK    5  A    between atoms: N_12  and  C_13
REMARK    6  A    between atoms: C_18  and  C_19
REMARK    7  A    between atoms: C_19  and  C_20
REMARK    8  A    between atoms: C_20  and  O_21
REMARK                            x       y       z     vdW  Elec       q    Type
REMARK                         _______ _______ _______ _____ _____    ______ ____
ROOT
ATOM      1  C   UNL     1       3.819   2.249  19.286  0.00  0.00    +0.000 C 
ATOM      2  N   UNL     1       3.000   3.210  20.009  0.00  0.00    +0.000 N 
ATOM      3  C   UNL     1       3.061   4.531  19.579  0.00  0.00    +0.000 A 
ATOM      4  N   UNL     1       2.504   5.465  20.328  0.00  0.00    +0.000 NA
ATOM      5  C   UNL     1       2.480   6.664  19.768  0.00  0.00    +0.000 A 
ATOM      6 CL   UNL     1       1.784   7.906  20.717  0.00  0.00    +0.000 Cl
ATOM      7  N   UNL     1       2.926   7.021  18.579  0.00  0.00    +0.000 NA
ATOM      8  C   UNL     1       3.548   6.046  17.940  0.00  0.00    +0.000 A 
ATOM      9  N   UNL     1       4.078   6.356  16.683  0.00  0.00    +0.000 N 
ATOM     10  N   UNL     1       3.636   4.799  18.408  0.00  0.00    +0.000 NA
ATOM     11  H   UNL     1       3.331   6.711  16.102  0.00  0.00    +0.000 HD
ENDROOT
BRANCH   9  12
ATOM     12  C   UNL     1       5.181   5.778  16.028  0.00  0.00    +0.000 A 
ATOM     13  C   UNL     1       4.966   4.922  14.930  0.00  0.00    +0.000 A 
ATOM     14  C   UNL     1       6.021   4.286  14.275  0.00  0.00    +0.000 A 
ATOM     15  C   UNL     1       7.324   4.516  14.689  0.00  0.00    +0.000 A 
ATOM     16  C   UNL     1       7.565   5.342  15.785  0.00  0.00    +0.000 A 
ATOM     17  C   UNL     1       6.504   5.949  16.491  0.00  0.00    +0.000 A 
BRANCH  17  18
ATOM     18  C   UNL     1       6.858   6.727  17.744  0.00  0.00    +0.000 C 
BRANCH  18  19
ATOM     19  C   UNL     1       7.425   5.871  18.872  0.00  0.00    +0.000 C 
BRANCH  19  20
ATOM     20  O   UNL     1       6.596   4.742  19.123  0.00  0.00    +0.000 OA
ATOM     21  H   UNL     1       5.761   4.896  18.646  0.00  0.00    +0.000 HD
ENDBRANCH  19  20
ENDBRANCH  18  19
ENDBRANCH  17  18
ENDBRANCH   9  12
BRANCH   2  22
ATOM     22  C   UNL     1       2.721   2.967  21.430  0.00  0.00    +0.000 C 
BRANCH  22  23
ATOM     23  C   UNL     1       1.260   2.543  21.634  0.00  0.00    +0.000 C 
BRANCH  23  24
ATOM     24  O   UNL     1       0.460   2.982  20.534  0.00  0.00    +0.000 OA
ATOM     25  H   UNL     1       0.913   2.626  19.743  0.00  0.00    +0.000 HD
ENDBRANCH  23  24
ENDBRANCH  22  23
ENDBRANCH   2  22
TORSDOF 7
ENDMDL
MODEL 3
REMARK VINA RESULT:      -6.7      1.008      1.008
REMARK  Name = 
REMARK  8 active torsions:
REMARK  status: ('A' for Active; 'I' for Inactive)
REMARK    1  A    between atoms: C_1  and  N_2
REMARK    2  A    between atoms: N_2  and  C_3
REMARK    3  A    between atoms: C_3  and  C_4
REMARK    4  A    between atoms: C_4  and  O_5
REMARK    5  A    between atoms: N_12  and  C_13
REMARK    6  A    between atoms: C_18  and  C_19
REMARK    7  A    between atoms: C_19  and  C_20
REMARK    8  A    between atoms: C_20  and  O_21
REMARK                            x       y       z     vdW  Elec       q    Type
REMARK                         _______ _______ _______ _____ _____    ______ ____
ROOT
ATOM      1  C   UNL     1       2.397   2.286  18.120  0.00  0.00    +0.000 C 
ATOM      2  N   UNL     1       1.735   3.235  19.002  0.00  0.00    +0.000 N 
ATOM      3  C   UNL     1       2.209   4.542  18.984  0.00  0.00    +0.000 A 
ATOM      4  N   UNL     1       1.783   5.381  19.910  0.00  0.00    +0.000 NA
ATOM      5  C   UNL     1       2.169   6.633  19.724  0.00  0.00    +0.000 A 
ATOM      6 CL   UNL     1       1.654   7.748  20.916  0.00  0.00    +0.000 Cl
ATOM      7  N   UNL     1       2.901   7.127  18.744  0.00  0.00    +0.000 NA
ATOM      8  C   UNL     1       3.357   6.202  17.916  0.00  0.00    +0.000 A 
ATOM      9  N   UNL     1       4.169   6.645  16.866  0.00  0.00    +0.000 N 
ATOM     10  N   UNL     1       3.037   4.910  18.008  0.00  0.00    +0.000 NA
ATOM     11  H   UNL     1       3.656   7.339  16.339  0.00  0.00    +0.000 HD
ENDROOT
BRANCH   9  12
ATOM     12  C   UNL     1       5.187   5.949  16.189  0.00  0.00    +0.000 A 
ATOM     13  C   UNL     1       4.872   5.212  15.030  0.00  0.00    +0.000 A 
ATOM     14  C   UNL     1       5.834   4.467  14.348  0.00  0.00    +0.000 A 
ATOM     15  C   UNL     1       7.146   4.463  14.799  0.00  0.00    +0.000 A 
ATOM     16  C   UNL     1       7.481   5.165  15.954  0.00  0.00    +0.000 A 
ATOM     17  C   UNL     1       6.508   5.881  16.684  0.00  0.00    +0.000 A 
BRANCH  17  18
ATOM     18  C   UNL     1       6.943   6.508  17.994  0.00  0.00    +0.000 C 
BRANCH  18  19
ATOM     19  C   UNL     1       7.787   7.769  17.834  0.00  0.00    +0.000 C 
BRANCH  19  20
ATOM     20  O   UNL     1       8.713   7.903  18.905  0.00  0.00    +0.000 OA
ATOM     21  H   UNL     1       9.602   7.922  18.506  0.00  0.00    +0.000 HD
ENDBRANCH  19  20
ENDBRANCH  18  19
ENDBRANCH  17  18
ENDBRANCH   9  12
BRANCH   2  22
ATOM     22  C   UNL     1       1.149   2.739  20.254  0.00  0.00    +0.000 C 
BRANCH  22  23
ATOM     23  C   UNL     1       2.244   2.412  21.278  0.00  0.00    +0.000 C 
BRANCH  23  24
ATOM     24  O   UNL     1       2.210   3.352  22.355  0.00  0.00    +0.000 OA
ATOM     25  H   UNL     1       2.768   4.095  22.051  0.00  0.00    +0.000 HD
ENDBRANCH  23  24
ENDBRANCH  22  23
ENDBRANCH   2  22
TORSDOF 7
ENDMDL
MODEL 4
REMARK VINA RESULT:      -6.7      2.392      3.377
REMARK  Name = 
REMARK  8 active torsions:
REMARK  status: ('A' for Active; 'I' for Inactive)
REMARK    1  A    between atoms: C_1  and  N_2
REMARK    2  A    between atoms: N_2  and  C_3
REMARK    3  A    between atoms: C_3  and  C_4
REMARK    4  A    between atoms: C_4  and  O_5
REMARK    5  A    between atoms: N_12  and  C_13
REMARK    6  A    between atoms: C_18  and  C_19
REMARK    7  A    between atoms: C_19  and  C_20
REMARK    8  A    between atoms: C_20  and  O_21
REMARK                            x       y       z     vdW  Elec       q    Type
REMARK                         _______ _______ _______ _____ _____    ______ ____
ROOT
ATOM      1  C   UNL     1       2.715   7.803  18.920  0.00  0.00    +0.000 C 
ATOM      2  N   UNL     1       2.206   6.946  19.979  0.00  0.00    +0.000 N 
ATOM      3  C   UNL     1       2.608   5.615  19.954  0.00  0.00    +0.000 A 
ATOM      4  N   UNL     1       2.011   4.760  20.764  0.00  0.00    +0.000 NA
ATOM      5  C   UNL     1       2.559   3.555  20.776  0.00  0.00    +0.000 A 
ATOM      6 CL   UNL     1       1.801   2.412  21.800  0.00  0.00    +0.000 Cl
ATOM      7  N   UNL     1       3.607   3.125  20.101  0.00  0.00    +0.000 NA
ATOM      8  C   UNL     1       4.082   4.018  19.250  0.00  0.00    +0.000 A 
ATOM      9  N   UNL     1       5.176   3.625  18.472  0.00  0.00    +0.000 N 
ATOM     10  N   UNL     1       3.607   5.262  19.148  0.00  0.00    +0.000 NA
ATOM     11  H   UNL     1       5.918   3.331  19.093  0.00  0.00    +0.000 HD
ENDROOT
BRANCH   9  12
ATOM     12  C   UNL     1       5.551   4.075  17.193  0.00  0.00    +0.000 A 
ATOM     13  C   UNL     1       4.655   3.932  16.116  0.00  0.00    +0.000 A 
ATOM     14  C   UNL     1       4.994   4.319  14.819  0.00  0.00    +0.000 A 
ATOM     15  C   UNL     1       6.237   4.884  14.574  0.00  0.00    +0.000 A 
ATOM     16  C   UNL     1       7.152   5.018  15.617  0.00  0.00    +0.000 A 
ATOM     17  C   UNL     1       6.842   4.583  16.923  0.00  0.00    +0.000 A 
BRANCH  17  18
ATOM     18  C   UNL     1       7.945   4.655  17.960  0.00  0.00    +0.000 C 
BRANCH  18  19
ATOM     19  C   UNL     1       7.816   5.826  18.930  0.00  0.00    +0.000 C 
BRANCH  19  20
ATOM     20  O   UNL     1       7.202   5.416  20.146  0.00  0.00    +0.000 OA
ATOM     21  H   UNL     1       7.473   4.493  20.300  0.00  0.00    +0.000 HD
ENDBRANCH  19  20
ENDBRANCH  18  19
ENDBRANCH  17  18
ENDBRANCH   9  12
BRANCH   2  22
ATOM     22  C   UNL     1       0.893   7.251  20.561  0.00  0.00    +0.000 C 
BRANCH  22  23
ATOM     23  C   UNL     1       0.915   8.608  21.277  0.00  0.00    +0.000 C 
BRANCH  23  24
ATOM     24  O   UNL     1      -0.014   9.505  20.664  0.00  0.00    +0.000 OA
ATOM     25  H   UNL     1       0.498   9.942  19.954  0.00  0.00    +0.000 HD
ENDBRANCH  23  24
ENDBRANCH  22  23
ENDBRANCH   2  22
TORSDOF 7
ENDMDL
MODEL 5
REMARK VINA RESULT:      -6.7      3.231      6.485
REMARK  Name = 
REMARK  8 active torsions:
REMARK  status: ('A' for Active; 'I' for Inactive)
REMARK    1  A    between atoms: C_1  and  N_2
REMARK    2  A    between atoms: N_2  and  C_3
REMARK    3  A    between atoms: C_3  and  C_4
REMARK    4  A    between atoms: C_4  and  O_5
REMARK    5  A    between atoms: N_12  and  C_13
REMARK    6  A    between atoms: C_18  and  C_19
REMARK    7  A    between atoms: C_19  and  C_20
REMARK    8  A    between atoms: C_20  and  O_21
REMARK                            x       y       z     vdW  Elec       q    Type
REMARK                         _______ _______ _______ _____ _____    ______ ____
ROOT
ATOM      1  C   UNL     1       5.962   3.551  14.464  0.00  0.00    +0.000 C 
ATOM      2  N   UNL     1       6.913   4.593  14.815  0.00  0.00    +0.000 N 
ATOM      3  C   UNL     1       6.722   5.228  16.038  0.00  0.00    +0.000 A 
ATOM      4  N   UNL     1       7.428   6.312  16.303  0.00  0.00    +0.000 NA
ATOM      5  C   UNL     1       7.289   6.757  17.542  0.00  0.00    +0.000 A 
ATOM      6 CL   UNL     1       8.173   8.174  17.918  0.00  0.00    +0.000 Cl
ATOM      7  N   UNL     1       6.557   6.253  18.516  0.00  0.00    +0.000 NA
ATOM      8  C   UNL     1       5.817   5.226  18.134  0.00  0.00    +0.000 A 
ATOM      9  N   UNL     1       4.987   4.655  19.105  0.00  0.00    +0.000 N 
ATOM     10  N   UNL     1       5.871   4.695  16.912  0.00  0.00    +0.000 NA
ATOM     11  H   UNL     1       5.561   4.378  19.890  0.00  0.00    +0.000 HD
ENDROOT
BRANCH   9  12
ATOM     12  C   UNL     1       3.768   3.974  18.929  0.00  0.00    +0.000 A 
ATOM     13  C   UNL     1       3.744   2.567  18.993  0.00  0.00    +0.000 A 
ATOM     14  C   UNL     1       2.571   1.841  18.779  0.00  0.00    +0.000 A 
ATOM     15  C   UNL     1       1.386   2.512  18.521  0.00  0.00    +0.000 A 
ATOM     16  C   UNL     1       1.385   3.903  18.431  0.00  0.00    +0.000 A 
ATOM     17  C   UNL     1       2.573   4.648  18.592  0.00  0.00    +0.000 A 
BRANCH  17  18
ATOM     18  C   UNL     1       2.495   6.142  18.353  0.00  0.00    +0.000 C 
BRANCH  18  19
ATOM     19  C   UNL     1       2.396   6.976  19.627  0.00  0.00    +0.000 C 
BRANCH  19  20
ATOM     20  O   UNL     1       2.078   6.159  20.748  0.00  0.00    +0.000 OA
ATOM     21  H   UNL     1       2.016   5.244  20.419  0.00  0.00    +0.000 HD
ENDBRANCH  19  20
ENDBRANCH  18  19
ENDBRANCH  17  18
ENDBRANCH   9  12
BRANCH   2  22
ATOM     22  C   UNL     1       7.539   5.367  13.735  0.00  0.00    +0.000 C 
BRANCH  22  23
ATOM     23  C   UNL     1       7.466   4.605  12.405  0.00  0.00    +0.000 C 
BRANCH  23  24
ATOM     24  O   UNL     1       7.509   5.522  11.309  0.00  0.00    +0.000 OA
ATOM     25  H   UNL     1       7.850   4.994  10.560  0.00  0.00    +0.000 HD
ENDBRANCH  23  24
ENDBRANCH  22  23
ENDBRANCH   2  22
TORSDOF 7
ENDMDL
MODEL 6
REMARK VINA RESULT:      -6.5      2.483      3.642
REMARK  Name = 
REMARK  8 active torsions:
REMARK  status: ('A' for Active; 'I' for Inactive)
REMARK    1  A    between atoms: C_1  and  N_2
REMARK    2  A    between atoms: N_2  and  C_3
REMARK    3  A    between atoms: C_3  and  C_4
REMARK    4  A    between atoms: C_4  and  O_5
REMARK    5  A    between atoms: N_12  and  C_13
REMARK    6  A    between atoms: C_18  and  C_19
REMARK    7  A    between atoms: C_19  and  C_20
REMARK    8  A    between atoms: C_20  and  O_21
REMARK                            x       y       z     vdW  Elec       q    Type
REMARK                         _______ _______ _______ _____ _____    ______ ____
ROOT
ATOM      1  C   UNL     1       3.332   8.355  17.926  0.00  0.00    +0.000 C 
ATOM      2  N   UNL     1       2.539   7.653  18.923  0.00  0.00    +0.000 N 
ATOM      3  C   UNL     1       2.682   6.271  18.976  0.00  0.00    +0.000 A 
ATOM      4  N   UNL     1       1.835   5.577  19.715  0.00  0.00    +0.000 NA
ATOM      5  C   UNL     1       2.140   4.293  19.824  0.00  0.00    +0.000 A 
ATOM      6 CL   UNL     1       1.055   3.356  20.758  0.00  0.00    +0.000 Cl
ATOM      7  N   UNL     1       3.166   3.649  19.303  0.00  0.00    +0.000 NA
ATOM      8  C   UNL     1       3.906   4.401  18.507  0.00  0.00    +0.000 A 
ATOM      9  N   UNL     1       4.997   3.779  17.890  0.00  0.00    +0.000 N 
ATOM     10  N   UNL     1       3.692   5.705  18.319  0.00  0.00    +0.000 NA
ATOM     11  H   UNL     1       5.584   3.380  18.610  0.00  0.00    +0.000 HD
ENDROOT
BRANCH   9  12
ATOM     12  C   UNL     1       5.611   4.096  16.665  0.00  0.00    +0.000 A 
ATOM     13  C   UNL     1       4.909   3.884  15.462  0.00  0.00    +0.000 A 
ATOM     14  C   UNL     1       5.489   4.137  14.217  0.00  0.00    +0.000 A 
ATOM     15  C   UNL     1       6.781   4.636  14.151  0.00  0.00    +0.000 A 
ATOM     16  C   UNL     1       7.506   4.834  15.324  0.00  0.00    +0.000 A 
ATOM     17  C   UNL     1       6.952   4.532  16.587  0.00  0.00    +0.000 A 
BRANCH  17  18
ATOM     18  C   UNL     1       7.860   4.663  17.794  0.00  0.00    +0.000 C 
BRANCH  18  19
ATOM     19  C   UNL     1       7.537   5.852  18.693  0.00  0.00    +0.000 C 
BRANCH  19  20
ATOM     20  O   UNL     1       6.779   5.444  19.826  0.00  0.00    +0.000 OA
ATOM     21  H   UNL     1       7.066   6.003  20.571  0.00  0.00    +0.000 HD
ENDBRANCH  19  20
ENDBRANCH  18  19
ENDBRANCH  17  18
ENDBRANCH   9  12
BRANCH   2  22
ATOM     22  C   UNL     1       1.243   8.221  19.317  0.00  0.00    +0.000 C 
BRANCH  22  23
ATOM     23  C   UNL     1       1.142   9.694  18.900  0.00  0.00    +0.000 C 
BRANCH  23  24
ATOM     24  O   UNL     1       0.218   9.839  17.819  0.00  0.00    +0.000 OA
ATOM     25  H   UNL     1       0.501   9.173  17.162  0.00  0.00    +0.000 HD
ENDBRANCH  23  24
ENDBRANCH  22  23
ENDBRANCH   2  22
TORSDOF 7
ENDMDL
MODEL 7
REMARK VINA RESULT:      -6.4      3.314      6.261
REMARK  Name = 
REMARK  8 active torsions:
REMARK  status: ('A' for Active; 'I' for Inactive)
REMARK    1  A    between atoms: C_1  and  N_2
REMARK    2  A    between atoms: N_2  and  C_3
REMARK    3  A    between atoms: C_3  and  C_4
REMARK    4  A    between atoms: C_4  and  O_5
REMARK    5  A    between atoms: N_12  and  C_13
REMARK    6  A    between atoms: C_18  and  C_19
REMARK    7  A    between atoms: C_19  and  C_20
REMARK    8  A    between atoms: C_20  and  O_21
REMARK                            x       y       z     vdW  Elec       q    Type
REMARK                         _______ _______ _______ _____ _____    ______ ____
ROOT
ATOM      1  C   UNL     1       5.370   3.070  15.263  0.00  0.00    +0.000 C 
ATOM      2  N   UNL     1       6.391   4.106  15.287  0.00  0.00    +0.000 N 
ATOM      3  C   UNL     1       6.369   4.979  16.370  0.00  0.00    +0.000 A 
ATOM      4  N   UNL     1       7.137   6.053  16.329  0.00  0.00    +0.000 NA
ATOM      5  C   UNL     1       7.163   6.741  17.460  0.00  0.00    +0.000 A 
ATOM      6 CL   UNL     1       8.131   8.152  17.441  0.00  0.00    +0.000 Cl
ATOM      7  N   UNL     1       6.538   6.480  18.592  0.00  0.00    +0.000 NA
ATOM      8  C   UNL     1       5.724   5.441  18.511  0.00  0.00    +0.000 A 
ATOM      9  N   UNL     1       5.000   5.119  19.665  0.00  0.00    +0.000 N 
ATOM     10  N   UNL     1       5.614   4.677  17.423  0.00  0.00    +0.000 NA
ATOM     11  H   UNL     1       5.656   4.971  20.420  0.00  0.00    +0.000 HD
ENDROOT
BRANCH   9  12
ATOM     12  C   UNL     1       3.748   4.486  19.767  0.00  0.00    +0.000 A 
ATOM     13  C   UNL     1       3.679   3.079  19.758  0.00  0.00    +0.000 A 
ATOM     14  C   UNL     1       2.460   2.402  19.810  0.00  0.00    +0.000 A 
ATOM     15  C   UNL     1       1.278   3.122  19.900  0.00  0.00    +0.000 A 
ATOM     16  C   UNL     1       1.316   4.515  19.891  0.00  0.00    +0.000 A 
ATOM     17  C   UNL     1       2.537   5.214  19.785  0.00  0.00    +0.000 A 
BRANCH  17  18
ATOM     18  C   UNL     1       2.467   6.722  19.656  0.00  0.00    +0.000 C 
BRANCH  18  19
ATOM     19  C   UNL     1       2.361   7.223  18.218  0.00  0.00    +0.000 C 
BRANCH  19  20
ATOM     20  O   UNL     1       3.645   7.313  17.613  0.00  0.00    +0.000 OA
ATOM     21  H   UNL     1       3.964   8.221  17.767  0.00  0.00    +0.000 HD
ENDBRANCH  19  20
ENDBRANCH  18  19
ENDBRANCH  17  18
ENDBRANCH   9  12
BRANCH   2  22
ATOM     22  C   UNL     1       6.906   4.615  14.010  0.00  0.00    +0.000 C 
BRANCH  22  23
ATOM     23  C   UNL     1       6.153   3.988  12.829  0.00  0.00    +0.000 C 
BRANCH  23  24
ATOM     24  O   UNL     1       6.972   3.008  12.187  0.00  0.00    +0.000 OA
ATOM     25  H   UNL     1       6.723   3.059  11.243  0.00  0.00    +0.000 HD
ENDBRANCH  23  24
ENDBRANCH  22  23
ENDBRANCH   2  22
TORSDOF 7
ENDMDL
MODEL 8
REMARK VINA RESULT:      -6.3      3.367      6.367
REMARK  Name = 
REMARK  8 active torsions:
REMARK  status: ('A' for Active; 'I' for Inactive)
REMARK    1  A    between atoms: C_1  and  N_2
REMARK    2  A    between atoms: N_2  and  C_3
REMARK    3  A    between atoms: C_3  and  C_4
REMARK    4  A    between atoms: C_4  and  O_5
REMARK    5  A    between atoms: N_12  and  C_13
REMARK    6  A    between atoms: C_18  and  C_19
REMARK    7  A    between atoms: C_19  and  C_20
REMARK    8  A    between atoms: C_20  and  O_21
REMARK                            x       y       z     vdW  Elec       q    Type
REMARK                         _______ _______ _______ _____ _____    ______ ____
ROOT
ATOM      1  C   UNL     1       5.873   3.488  14.512  0.00  0.00    +0.000 C 
ATOM      2  N   UNL     1       6.851   4.508  14.856  0.00  0.00    +0.000 N 
ATOM      3  C   UNL     1       6.636   5.206  16.039  0.00  0.00    +0.000 A 
ATOM      4  N   UNL     1       7.375   6.273  16.285  0.00  0.00    +0.000 NA
ATOM      5  C   UNL     1       7.203   6.781  17.496  0.00  0.00    +0.000 A 
ATOM      6 CL   UNL     1       8.128   8.178  17.845  0.00  0.00    +0.000 Cl
ATOM      7  N   UNL     1       6.412   6.351  18.459  0.00  0.00    +0.000 NA
ATOM      8  C   UNL     1       5.646   5.338  18.093  0.00  0.00    +0.000 A 
ATOM      9  N   UNL     1       4.755   4.845  19.053  0.00  0.00    +0.000 N 
ATOM     10  N   UNL     1       5.729   4.748  16.899  0.00  0.00    +0.000 NA
ATOM     11  H   UNL     1       5.284   4.583  19.873  0.00  0.00    +0.000 HD
ENDROOT
BRANCH   9  12
ATOM     12  C   UNL     1       3.518   4.205  18.855  0.00  0.00    +0.000 A 
ATOM     13  C   UNL     1       2.629   4.698  17.880  0.00  0.00    +0.000 A 
ATOM     14  C   UNL     1       1.371   4.129  17.676  0.00  0.00    +0.000 A 
ATOM     15  C   UNL     1       0.983   3.031  18.431  0.00  0.00    +0.000 A 
ATOM     16  C   UNL     1       1.834   2.536  19.416  0.00  0.00    +0.000 A 
ATOM     17  C   UNL     1       3.087   3.134  19.670  0.00  0.00    +0.000 A 
BRANCH  17  18
ATOM     18  C   UNL     1       3.886   2.604  20.845  0.00  0.00    +0.000 C 
BRANCH  18  19
ATOM     19  C   UNL     1       4.897   1.523  20.476  0.00  0.00    +0.000 C 
BRANCH  19  20
ATOM     20  O   UNL     1       5.676   1.146  21.606  0.00  0.00    +0.000 OA
ATOM     21  H   UNL     1       5.839   1.959  22.117  0.00  0.00    +0.000 HD
ENDBRANCH  19  20
ENDBRANCH  18  19
ENDBRANCH  17  18
ENDBRANCH   9  12
BRANCH   2  22
ATOM     22  C   UNL     1       7.552   5.205  13.770  0.00  0.00    +0.000 C 
BRANCH  22  23
ATOM     23  C   UNL     1       7.264   4.538  12.418  0.00  0.00    +0.000 C 
BRANCH  23  24
ATOM     24  O   UNL     1       7.530   5.452  11.351  0.00  0.00    +0.000 OA
ATOM     25  H   UNL     1       7.707   4.882  10.577  0.00  0.00    +0.000 HD
ENDBRANCH  23  24
ENDBRANCH  22  23
ENDBRANCH   2  22
TORSDOF 7
ENDMDL
MODEL 9
REMARK VINA RESULT:      -6.2      3.326      5.609
REMARK  Name = 
REMARK  8 active torsions:
REMARK  status: ('A' for Active; 'I' for Inactive)
REMARK    1  A    between atoms: C_1  and  N_2
REMARK    2  A    between atoms: N_2  and  C_3
REMARK    3  A    between atoms: C_3  and  C_4
REMARK    4  A    between atoms: C_4  and  O_5
REMARK    5  A    between atoms: N_12  and  C_13
REMARK    6  A    between atoms: C_18  and  C_19
REMARK    7  A    between atoms: C_19  and  C_20
REMARK    8  A    between atoms: C_20  and  O_21
REMARK                            x       y       z     vdW  Elec       q    Type
REMARK                         _______ _______ _______ _____ _____    ______ ____
ROOT
ATOM      1  C   UNL     1       2.060   9.278  17.484  0.00  0.00    +0.000 C 
ATOM      2  N   UNL     1       1.604   9.986  18.669  0.00  0.00    +0.000 N 
ATOM      3  C   UNL     1       1.301   9.210  19.783  0.00  0.00    +0.000 A 
ATOM      4  N   UNL     1       0.690   9.783  20.804  0.00  0.00    +0.000 NA
ATOM      5  C   UNL     1       0.579   9.008  21.871  0.00  0.00    +0.000 A 
ATOM      6 CL   UNL     1      -0.226   9.709  23.209  0.00  0.00    +0.000 Cl
ATOM      7  N   UNL     1       1.004   7.770  22.032  0.00  0.00    +0.000 NA
ATOM      8  C   UNL     1       1.520   7.249  20.932  0.00  0.00    +0.000 A 
ATOM      9  N   UNL     1       1.965   5.925  21.014  0.00  0.00    +0.000 N 
ATOM     10  N   UNL     1       1.679   7.934  19.798  0.00  0.00    +0.000 NA
ATOM     11  H   UNL     1       2.644   5.864  21.760  0.00  0.00    +0.000 HD
ENDROOT
BRANCH   9  12
ATOM     12  C   UNL     1       2.047   4.961  19.992  0.00  0.00    +0.000 A 
ATOM     13  C   UNL     1       0.995   4.040  19.821  0.00  0.00    +0.000 A 
ATOM     14  C   UNL     1       1.047   3.035  18.854  0.00  0.00    +0.000 A 
ATOM     15  C   UNL     1       2.148   2.946  18.015  0.00  0.00    +0.000 A 
ATOM     16  C   UNL     1       3.212   3.830  18.176  0.00  0.00    +0.000 A 
ATOM     17  C   UNL     1       3.197   4.818  19.184  0.00  0.00    +0.000 A 
BRANCH  17  18
ATOM     18  C   UNL     1       4.452   5.650  19.362  0.00  0.00    +0.000 C 
BRANCH  18  19
ATOM     19  C   UNL     1       5.742   4.921  18.995  0.00  0.00    +0.000 C 
BRANCH  19  20
ATOM     20  O   UNL     1       6.812   5.318  19.846  0.00  0.00    +0.000 OA
ATOM     21  H   UNL     1       6.416   5.834  20.572  0.00  0.00    +0.000 HD
ENDBRANCH  19  20
ENDBRANCH  18  19
ENDBRANCH  17  18
ENDBRANCH   9  12
BRANCH   2  22
ATOM     22  C   UNL     1       0.872  11.247  18.497  0.00  0.00    +0.000 C 
BRANCH  22  23
ATOM     23  C   UNL     1       1.818  12.449  18.620  0.00  0.00    +0.000 C 
BRANCH  23  24
ATOM     24  O   UNL     1       2.350  12.791  17.338  0.00  0.00    +0.000 OA
ATOM     25  H   UNL     1       3.224  12.354  17.310  0.00  0.00    +0.000 HD
ENDBRANCH  23  24
ENDBRANCH  22  23
ENDBRANCH   2  22
TORSDOF 7
ENDMDL
