MODEL 1
REMARK VINA RESULT:      -7.9      0.000      0.000
REMARK  Name = 
REMARK  10 active torsions:
REMARK  status: ('A' for Active; 'I' for Inactive)
REMARK    1  A    between atoms: C_1  and  C_2
REMARK    2  A    between atoms: C_2  and  O_3
REMARK    3  A    between atoms: O_3  and  C_4
REMARK    4  A    between atoms: C_7  and  C_8
REMARK    5  A    between atoms: C_8  and  N_9
REMARK    6  A    between atoms: C_15  and  C_16
REMARK    7  A    between atoms: C_16  and  C_17
REMARK    8  A    between atoms: N_19  and  C_20
REMARK    9  A    between atoms: C_20  and  C_21
REMARK   10  A    between atoms: C_21  and  C_22
REMARK                            x       y       z     vdW  Elec       q    Type
REMARK                         _______ _______ _______ _____ _____    ______ ____
ROOT
ATOM      1  N   UNL     1       3.513   4.186  18.106  0.00  0.00    +0.000 NA
ATOM      2  C   UNL     1       3.279   3.040  17.210  0.00  0.00    +0.000 C 
ATOM      3  C   UNL     1       2.807   1.773  17.930  0.00  0.00    +0.000 C 
ATOM      4  N   UNL     1       1.705   2.026  18.829  0.00  0.00    +0.000 N 
ATOM      5  C   UNL     1       1.648   3.180  19.560  0.00  0.00    +0.000 C 
ATOM      6  O   UNL     1       0.965   3.165  20.584  0.00  0.00    +0.000 OA
ATOM      7  C   UNL     1       2.329   4.460  18.997  0.00  0.00    +0.000 C 
ATOM      8  H   UNL     1       1.236   1.241  19.255  0.00  0.00    +0.000 HD
ENDROOT
BRANCH   1   9
ATOM      9  C   UNL     1       4.829   4.151  18.764  0.00  0.00    +0.000 C 
BRANCH   9  13
ATOM     10  C   UNL     1       7.447   7.467  17.745  0.00  0.00    +0.000 A 
ATOM     11  C   UNL     1       7.825   6.526  18.701  0.00  0.00    +0.000 A 
ATOM     12  C   UNL     1       6.975   5.478  19.056  0.00  0.00    +0.000 A 
ATOM     13  C   UNL     1       5.706   5.355  18.464  0.00  0.00    +0.000 A 
ATOM     14  C   UNL     1       5.332   6.291  17.493  0.00  0.00    +0.000 A 
ATOM     15  C   UNL     1       6.196   7.337  17.139  0.00  0.00    +0.000 A 
BRANCH  10  16
ATOM     16  O   UNL     1       8.219   8.528  17.333  0.00  0.00    +0.000 OA
BRANCH  16  18
ATOM     17  C   UNL     1       8.661  10.823  17.976  0.00  0.00    +0.000 C 
ATOM     18  C   UNL     1       8.724   9.361  18.377  0.00  0.00    +0.000 C 
ENDBRANCH  16  18
ENDBRANCH  10  16
ENDBRANCH   9  13
ENDBRANCH   1   9
BRANCH   7  19
ATOM     19  C   UNL     1       2.664   5.437  20.136  0.00  0.00    +0.000 C 
BRANCH  19  20
ATOM     20  C   UNL     1       2.201   6.867  19.969  0.00  0.00    +0.000 C 
ATOM     21  O   UNL     1       2.365   7.492  18.936  0.00  0.00    +0.000 OA
ATOM     22  N   UNL     1       1.661   7.403  21.123  0.00  0.00    +0.000 N 
ATOM     23  H   UNL     1       1.066   6.750  21.635  0.00  0.00    +0.000 HD
BRANCH  22  24
ATOM     24  C   UNL     1       1.286   8.803  21.172  0.00  0.00    +0.000 C 
BRANCH  24  25
ATOM     25  C   UNL     1       0.755   9.207  22.545  0.00  0.00    +0.000 C 
BRANCH  25  26
ATOM     26  C   UNL     1       0.001  10.507  22.460  0.00  0.00    +0.000 A 
ATOM     27  C   UNL     1      -1.213  10.665  23.123  0.00  0.00    +0.000 A 
ATOM     28  C   UNL     1      -1.896  11.872  22.994  0.00  0.00    +0.000 A 
ATOM     29  C   UNL     1      -1.355  12.879  22.203  0.00  0.00    +0.000 A 
ATOM     30  C   UNL     1      -0.149  12.635  21.569  0.00  0.00    +0.000 A 
ATOM     31  N   UNL     1       0.537  11.476  21.681  0.00  0.00    +0.000 NA
ENDBRANCH  25  26
ENDBRANCH  24  25
ENDBRANCH  22  24
ENDBRANCH  19  20
ENDBRANCH   7  19
TORSDOF 9
ENDMDL
MODEL 2
REMARK VINA RESULT:      -7.9      2.973      3.512
REMARK  Name = 
REMARK  10 active torsions:
REMARK  status: ('A' for Active; 'I' for Inactive)
REMARK    1  A    between atoms: C_1  and  C_2
REMARK    2  A    between atoms: C_2  and  O_3
REMARK    3  A    between atoms: O_3  and  C_4
REMARK    4  A    between atoms: C_7  and  C_8
REMARK    5  A    between atoms: C_8  and  N_9
REMARK    6  A    between atoms: C_15  and  C_16
REMARK    7  A    between atoms: C_16  and  C_17
REMARK    8  A    between atoms: N_19  and  C_20
REMARK    9  A    between atoms: C_20  and  C_21
REMARK   10  A    between atoms: C_21  and  C_22
REMARK                            x       y       z     vdW  Elec       q    Type
REMARK                         _______ _______ _______ _____ _____    ______ ____
ROOT
ATOM      1  N   UNL     1       2.675   3.771  18.361  0.00  0.00    +0.000 NA
ATOM      2  C   UNL     1       1.799   2.612  18.608  0.00  0.00    +0.000 C 
ATOM      3  C   UNL     1       1.390   2.442  20.075  0.00  0.00    +0.000 C 
ATOM      4  N   UNL     1       0.889   3.667  20.654  0.00  0.00    +0.000 N 
ATOM      5  C   UNL     1       1.443   4.874  20.328  0.00  0.00    +0.000 C 
ATOM      6  O   UNL     1       1.292   5.798  21.129  0.00  0.00    +0.000 OA
ATOM      7  C   UNL     1       2.105   5.045  18.931  0.00  0.00    +0.000 C 
ATOM      8  H   UNL     1       0.474   3.636  21.573  0.00  0.00    +0.000 HD
ENDROOT
BRANCH   1   9
ATOM      9  C   UNL     1       4.093   3.503  18.656  0.00  0.00    +0.000 C 
BRANCH   9  13
ATOM     10  C   UNL     1       6.956   4.935  15.717  0.00  0.00    +0.000 A 
ATOM     11  C   UNL     1       7.266   4.933  17.075  0.00  0.00    +0.000 A 
ATOM     12  C   UNL     1       6.339   4.506  18.027  0.00  0.00    +0.000 A 
ATOM     13  C   UNL     1       5.059   4.077  17.635  0.00  0.00    +0.000 A 
ATOM     14  C   UNL     1       4.751   4.066  16.269  0.00  0.00    +0.000 A 
ATOM     15  C   UNL     1       5.692   4.491  15.321  0.00  0.00    +0.000 A 
BRANCH  10  16
ATOM     16  O   UNL     1       7.805   5.336  14.713  0.00  0.00    +0.000 OA
BRANCH  16  18
ATOM     17  C   UNL     1       8.148   5.753  12.350  0.00  0.00    +0.000 C 
ATOM     18  C   UNL     1       7.443   4.912  13.398  0.00  0.00    +0.000 C 
ENDBRANCH  16  18
ENDBRANCH  10  16
ENDBRANCH   9  13
ENDBRANCH   1   9
BRANCH   7  19
ATOM     19  C   UNL     1       3.132   6.189  18.958  0.00  0.00    +0.000 C 
BRANCH  19  20
ATOM     20  C   UNL     1       2.713   7.499  18.330  0.00  0.00    +0.000 C 
ATOM     21  O   UNL     1       3.234   7.936  17.318  0.00  0.00    +0.000 OA
ATOM     22  N   UNL     1       1.754   8.172  19.063  0.00  0.00    +0.000 N 
ATOM     23  H   UNL     1       1.035   7.561  19.451  0.00  0.00    +0.000 HD
BRANCH  22  24
ATOM     24  C   UNL     1       1.335   9.503  18.669  0.00  0.00    +0.000 C 
BRANCH  24  25
ATOM     25  C   UNL     1       0.304  10.088  19.630  0.00  0.00    +0.000 C 
BRANCH  25  26
ATOM     26  C   UNL     1      -0.943  10.491  18.889  0.00  0.00    +0.000 A 
ATOM     27  C   UNL     1      -1.265   9.898  17.672  0.00  0.00    +0.000 A 
ATOM     28  C   UNL     1      -2.410  10.320  17.001  0.00  0.00    +0.000 A 
ATOM     29  C   UNL     1      -3.193  11.325  17.557  0.00  0.00    +0.000 A 
ATOM     30  C   UNL     1      -2.795  11.869  18.766  0.00  0.00    +0.000 A 
ATOM     31  N   UNL     1      -1.693  11.475  19.441  0.00  0.00    +0.000 NA
ENDBRANCH  25  26
ENDBRANCH  24  25
ENDBRANCH  22  24
ENDBRANCH  19  20
ENDBRANCH   7  19
TORSDOF 9
ENDMDL
MODEL 3
REMARK VINA RESULT:      -7.8      2.768      6.943
REMARK  Name = 
REMARK  10 active torsions:
REMARK  status: ('A' for Active; 'I' for Inactive)
REMARK    1  A    between atoms: C_1  and  C_2
REMARK    2  A    between atoms: C_2  and  O_3
REMARK    3  A    between atoms: O_3  and  C_4
REMARK    4  A    between atoms: C_7  and  C_8
REMARK    5  A    between atoms: C_8  and  N_9
REMARK    6  A    between atoms: C_15  and  C_16
REMARK    7  A    between atoms: C_16  and  C_17
REMARK    8  A    between atoms: N_19  and  C_20
REMARK    9  A    between atoms: C_20  and  C_21
REMARK   10  A    between atoms: C_21  and  C_22
REMARK                            x       y       z     vdW  Elec       q    Type
REMARK                         _______ _______ _______ _____ _____    ______ ____
ROOT
ATOM      1  N   UNL     1       2.617   4.249  19.439  0.00  0.00    +0.000 NA
ATOM      2  C   UNL     1       1.275   3.789  19.839  0.00  0.00    +0.000 C 
ATOM      3  C   UNL     1       0.749   2.610  19.014  0.00  0.00    +0.000 C 
ATOM      4  N   UNL     1       1.711   1.536  18.912  0.00  0.00    +0.000 N 
ATOM      5  C   UNL     1       3.046   1.801  18.785  0.00  0.00    +0.000 C 
ATOM      6  O   UNL     1       3.750   0.923  18.284  0.00  0.00    +0.000 OA
ATOM      7  C   UNL     1       3.612   3.118  19.389  0.00  0.00    +0.000 C 
ATOM      8  H   UNL     1       1.420   0.662  18.500  0.00  0.00    +0.000 HD
ENDROOT
BRANCH   1   9
ATOM      9  C   UNL     1       2.601   5.154  18.279  0.00  0.00    +0.000 C 
BRANCH   9  13
ATOM     10  C   UNL     1       1.522   9.255  19.230  0.00  0.00    +0.000 A 
ATOM     11  C   UNL     1       1.644   8.297  20.235  0.00  0.00    +0.000 A 
ATOM     12  C   UNL     1       1.957   6.971  19.932  0.00  0.00    +0.000 A 
ATOM     13  C   UNL     1       2.145   6.567  18.599  0.00  0.00    +0.000 A 
ATOM     14  C   UNL     1       2.037   7.532  17.591  0.00  0.00    +0.000 A 
ATOM     15  C   UNL     1       1.729   8.863  17.906  0.00  0.00    +0.000 A 
BRANCH  10  16
ATOM     16  O   UNL     1       1.220  10.580  19.436  0.00  0.00    +0.000 OA
BRANCH  16  18
ATOM     17  C   UNL     1      -0.986  11.505  19.833  0.00  0.00    +0.000 C 
ATOM     18  C   UNL     1       0.026  11.042  18.801  0.00  0.00    +0.000 C 
ENDBRANCH  16  18
ENDBRANCH  10  16
ENDBRANCH   9  13
ENDBRANCH   1   9
BRANCH   7  19
ATOM     19  C   UNL     1       4.919   3.516  18.685  0.00  0.00    +0.000 C 
BRANCH  19  20
ATOM     20  C   UNL     1       5.690   4.675  19.276  0.00  0.00    +0.000 C 
ATOM     21  O   UNL     1       5.159   5.531  19.962  0.00  0.00    +0.000 OA
ATOM     22  N   UNL     1       7.016   4.702  18.889  0.00  0.00    +0.000 N 
ATOM     23  H   UNL     1       7.453   3.779  18.869  0.00  0.00    +0.000 HD
BRANCH  22  24
ATOM     24  C   UNL     1       7.863   5.817  19.263  0.00  0.00    +0.000 C 
BRANCH  24  25
ATOM     25  C   UNL     1       7.881   6.907  18.194  0.00  0.00    +0.000 C 
BRANCH  25  26
ATOM     26  C   UNL     1       7.040   6.505  17.013  0.00  0.00    +0.000 A 
ATOM     27  C   UNL     1       5.766   7.039  16.837  0.00  0.00    +0.000 A 
ATOM     28  C   UNL     1       5.007   6.618  15.749  0.00  0.00    +0.000 A 
ATOM     29  C   UNL     1       5.533   5.673  14.875  0.00  0.00    +0.000 A 
ATOM     30  C   UNL     1       6.803   5.185  15.130  0.00  0.00    +0.000 A 
ATOM     31  N   UNL     1       7.564   5.580  16.174  0.00  0.00    +0.000 NA
ENDBRANCH  25  26
ENDBRANCH  24  25
ENDBRANCH  22  24
ENDBRANCH  19  20
ENDBRANCH   7  19
TORSDOF 9
ENDMDL
MODEL 4
REMARK VINA RESULT:      -7.8      3.054      7.405
REMARK  Name = 
REMARK  10 active torsions:
REMARK  status: ('A' for Active; 'I' for Inactive)
REMARK    1  A    between atoms: C_1  and  C_2
REMARK    2  A    between atoms: C_2  and  O_3
REMARK    3  A    between atoms: O_3  and  C_4
REMARK    4  A    between atoms: C_7  and  C_8
REMARK    5  A    between atoms: C_8  and  N_9
REMARK    6  A    between atoms: C_15  and  C_16
REMARK    7  A    between atoms: C_16  and  C_17
REMARK    8  A    between atoms: N_19  and  C_20
REMARK    9  A    between atoms: C_20  and  C_21
REMARK   10  A    between atoms: C_21  and  C_22
REMARK                            x       y       z     vdW  Elec       q    Type
REMARK                         _______ _______ _______ _____ _____    ______ ____
ROOT
ATOM      1  N   UNL     1       4.766   5.757  17.910  0.00  0.00    +0.000 NA
ATOM      2  C   UNL     1       4.216   4.390  17.964  0.00  0.00    +0.000 C 
ATOM      3  C   UNL     1       4.417   3.587  16.676  0.00  0.00    +0.000 C 
ATOM      4  N   UNL     1       5.782   3.632  16.204  0.00  0.00    +0.000 N 
ATOM      5  C   UNL     1       6.522   4.776  16.311  0.00  0.00    +0.000 C 
ATOM      6  O   UNL     1       7.477   4.904  15.543  0.00  0.00    +0.000 OA
ATOM      7  C   UNL     1       6.206   5.771  17.464  0.00  0.00    +0.000 C 
ATOM      8  H   UNL     1       6.050   3.035  15.436  0.00  0.00    +0.000 HD
ENDROOT
BRANCH   1   9
ATOM      9  C   UNL     1       3.869   6.719  17.250  0.00  0.00    +0.000 C 
BRANCH   9  13
ATOM     10  C   UNL     1       1.163   8.858  19.893  0.00  0.00    +0.000 A 
ATOM     11  C   UNL     1       1.461   9.351  18.625  0.00  0.00    +0.000 A 
ATOM     12  C   UNL     1       2.355   8.687  17.784  0.00  0.00    +0.000 A 
ATOM     13  C   UNL     1       2.988   7.505  18.206  0.00  0.00    +0.000 A 
ATOM     14  C   UNL     1       2.678   7.001  19.475  0.00  0.00    +0.000 A 
ATOM     15  C   UNL     1       1.773   7.673  20.309  0.00  0.00    +0.000 A 
BRANCH  10  16
ATOM     16  O   UNL     1       0.295   9.444  20.785  0.00  0.00    +0.000 OA
BRANCH  16  18
ATOM     17  C   UNL     1      -0.445   9.735  23.075  0.00  0.00    +0.000 C 
ATOM     18  C   UNL     1       0.718   9.432  22.149  0.00  0.00    +0.000 C 
ENDBRANCH  16  18
ENDBRANCH  10  16
ENDBRANCH   9  13
ENDBRANCH   1   9
BRANCH   7  19
ATOM     19  C   UNL     1       6.696   7.184  17.106  0.00  0.00    +0.000 C 
BRANCH  19  20
ATOM     20  C   UNL     1       7.767   7.781  17.991  0.00  0.00    +0.000 C 
ATOM     21  O   UNL     1       8.416   7.111  18.776  0.00  0.00    +0.000 OA
ATOM     22  N   UNL     1       7.867   9.154  17.874  0.00  0.00    +0.000 N 
ATOM     23  H   UNL     1       7.779   9.489  16.914  0.00  0.00    +0.000 HD
BRANCH  22  24
ATOM     24  C   UNL     1       8.756   9.898  18.745  0.00  0.00    +0.000 C 
BRANCH  24  25
ATOM     25  C   UNL     1       9.612  10.899  17.972  0.00  0.00    +0.000 C 
BRANCH  25  26
ATOM     26  C   UNL     1       9.066  12.293  18.126  0.00  0.00    +0.000 A 
ATOM     27  C   UNL     1       7.952  12.701  17.398  0.00  0.00    +0.000 A 
ATOM     28  C   UNL     1       7.497  14.009  17.545  0.00  0.00    +0.000 A 
ATOM     29  C   UNL     1       8.167  14.871  18.404  0.00  0.00    +0.000 A 
ATOM     30  C   UNL     1       9.273  14.388  19.082  0.00  0.00    +0.000 A 
ATOM     31  N   UNL     1       9.734  13.123  18.963  0.00  0.00    +0.000 NA
ENDBRANCH  25  26
ENDBRANCH  24  25
ENDBRANCH  22  24
ENDBRANCH  19  20
ENDBRANCH   7  19
TORSDOF 9
ENDMDL
MODEL 5
REMARK VINA RESULT:      -7.8      3.088      7.803
REMARK  Name = 
REMARK  10 active torsions:
REMARK  status: ('A' for Active; 'I' for Inactive)
REMARK    1  A    between atoms: C_1  and  C_2
REMARK    2  A    between atoms: C_2  and  O_3
REMARK    3  A    between atoms: O_3  and  C_4
REMARK    4  A    between atoms: C_7  and  C_8
REMARK    5  A    between atoms: C_8  and  N_9
REMARK    6  A    between atoms: C_15  and  C_16
REMARK    7  A    between atoms: C_16  and  C_17
REMARK    8  A    between atoms: N_19  and  C_20
REMARK    9  A    between atoms: C_20  and  C_21
REMARK   10  A    between atoms: C_21  and  C_22
REMARK                            x       y       z     vdW  Elec       q    Type
REMARK                         _______ _______ _______ _____ _____    ______ ____
ROOT
ATOM      1  N   UNL     1       4.738   5.811  18.130  0.00  0.00    +0.000 NA
ATOM      2  C   UNL     1       4.135   4.475  18.272  0.00  0.00    +0.000 C 
ATOM      3  C   UNL     1       4.327   3.572  17.049  0.00  0.00    +0.000 C 
ATOM      4  N   UNL     1       5.701   3.531  16.604  0.00  0.00    +0.000 N 
ATOM      5  C   UNL     1       6.484   4.650  16.644  0.00  0.00    +0.000 C 
ATOM      6  O   UNL     1       7.456   4.685  15.889  0.00  0.00    +0.000 OA
ATOM      7  C   UNL     1       6.186   5.739  17.714  0.00  0.00    +0.000 C 
ATOM      8  H   UNL     1       5.959   2.869  15.888  0.00  0.00    +0.000 HD
ENDROOT
BRANCH   1   9
ATOM      9  C   UNL     1       3.892   6.756  17.383  0.00  0.00    +0.000 C 
BRANCH   9  13
ATOM     10  C   UNL     1       1.128   8.949  19.921  0.00  0.00    +0.000 A 
ATOM     11  C   UNL     1       1.744   7.784  20.374  0.00  0.00    +0.000 A 
ATOM     12  C   UNL     1       2.606   7.057  19.552  0.00  0.00    +0.000 A 
ATOM     13  C   UNL     1       2.865   7.479  18.237  0.00  0.00    +0.000 A 
ATOM     14  C   UNL     1       2.259   8.658  17.786  0.00  0.00    +0.000 A 
ATOM     15  C   UNL     1       1.399   9.384  18.622  0.00  0.00    +0.000 A 
BRANCH  10  16
ATOM     16  O   UNL     1       0.269   9.727  20.660  0.00  0.00    +0.000 OA
BRANCH  16  18
ATOM     17  C   UNL     1      -0.751  10.187  22.810  0.00  0.00    +0.000 C 
ATOM     18  C   UNL     1      -0.220   9.129  21.861  0.00  0.00    +0.000 C 
ENDBRANCH  16  18
ENDBRANCH  10  16
ENDBRANCH   9  13
ENDBRANCH   1   9
BRANCH   7  19
ATOM     19  C   UNL     1       6.737   7.101  17.265  0.00  0.00    +0.000 C 
BRANCH  19  20
ATOM     20  C   UNL     1       7.870   7.683  18.082  0.00  0.00    +0.000 C 
ATOM     21  O   UNL     1       8.523   7.015  18.864  0.00  0.00    +0.000 OA
ATOM     22  N   UNL     1       8.020   9.046  17.910  0.00  0.00    +0.000 N 
ATOM     23  H   UNL     1       7.905   9.350  16.942  0.00  0.00    +0.000 HD
BRANCH  22  24
ATOM     24  C   UNL     1       8.976   9.782  18.715  0.00  0.00    +0.000 C 
BRANCH  24  25
ATOM     25  C   UNL     1       9.646  10.904  17.926  0.00  0.00    +0.000 C 
BRANCH  25  26
ATOM     26  C   UNL     1      10.089  12.009  18.847  0.00  0.00    +0.000 A 
ATOM     27  C   UNL     1      11.360  12.565  18.726  0.00  0.00    +0.000 A 
ATOM     28  C   UNL     1      11.744  13.562  19.618  0.00  0.00    +0.000 A 
ATOM     29  C   UNL     1      10.856  13.970  20.608  0.00  0.00    +0.000 A 
ATOM     30  C   UNL     1       9.616  13.357  20.665  0.00  0.00    +0.000 A 
ATOM     31  N   UNL     1       9.216  12.391  19.809  0.00  0.00    +0.000 NA
ENDBRANCH  25  26
ENDBRANCH  24  25
ENDBRANCH  22  24
ENDBRANCH  19  20
ENDBRANCH   7  19
TORSDOF 9
ENDMDL
MODEL 6
REMARK VINA RESULT:      -7.7      1.499      1.936
REMARK  Name = 
REMARK  10 active torsions:
REMARK  status: ('A' for Active; 'I' for Inactive)
REMARK    1  A    between atoms: C_1  and  C_2
REMARK    2  A    between atoms: C_2  and  O_3
REMARK    3  A    between atoms: O_3  and  C_4
REMARK    4  A    between atoms: C_7  and  C_8
REMARK    5  A    between atoms: C_8  and  N_9
REMARK    6  A    between atoms: C_15  and  C_16
REMARK    7  A    between atoms: C_16  and  C_17
REMARK    8  A    between atoms: N_19  and  C_20
REMARK    9  A    between atoms: C_20  and  C_21
REMARK   10  A    between atoms: C_21  and  C_22
REMARK                            x       y       z     vdW  Elec       q    Type
REMARK                         _______ _______ _______ _____ _____    ______ ____
ROOT
ATOM      1  N   UNL     1       3.075   4.115  17.937  0.00  0.00    +0.000 NA
ATOM      2  C   UNL     1       2.414   2.919  17.387  0.00  0.00    +0.000 C 
ATOM      3  C   UNL     1       1.768   2.021  18.448  0.00  0.00    +0.000 C 
ATOM      4  N   UNL     1       0.932   2.763  19.364  0.00  0.00    +0.000 N 
ATOM      5  C   UNL     1       1.290   4.013  19.783  0.00  0.00    +0.000 C 
ATOM      6  O   UNL     1       0.808   4.412  20.844  0.00  0.00    +0.000 OA
ATOM      7  C   UNL     1       2.165   4.897  18.850  0.00  0.00    +0.000 C 
ATOM      8  H   UNL     1       0.360   2.253  20.020  0.00  0.00    +0.000 HD
ENDROOT
BRANCH   1   9
ATOM      9  C   UNL     1       4.432   3.850  18.442  0.00  0.00    +0.000 C 
BRANCH   9  13
ATOM     10  C   UNL     1       7.241   7.004  17.420  0.00  0.00    +0.000 A 
ATOM     11  C   UNL     1       6.138   6.739  16.610  0.00  0.00    +0.000 A 
ATOM     12  C   UNL     1       5.251   5.706  16.915  0.00  0.00    +0.000 A 
ATOM     13  C   UNL     1       5.459   4.896  18.045  0.00  0.00    +0.000 A 
ATOM     14  C   UNL     1       6.558   5.171  18.867  0.00  0.00    +0.000 A 
ATOM     15  C   UNL     1       7.439   6.216  18.555  0.00  0.00    +0.000 A 
BRANCH  10  16
ATOM     16  O   UNL     1       8.163   8.000  17.198  0.00  0.00    +0.000 OA
BRANCH  16  18
ATOM     17  C   UNL     1       8.980   9.649  18.775  0.00  0.00    +0.000 C 
ATOM     18  C   UNL     1       7.872   9.253  17.817  0.00  0.00    +0.000 C 
ENDBRANCH  16  18
ENDBRANCH  10  16
ENDBRANCH   9  13
ENDBRANCH   1   9
BRANCH   7  19
ATOM     19  C   UNL     1       2.921   5.959  19.665  0.00  0.00    +0.000 C 
BRANCH  19  20
ATOM     20  C   UNL     1       2.267   7.316  19.796  0.00  0.00    +0.000 C 
ATOM     21  O   UNL     1       2.280   8.138  18.896  0.00  0.00    +0.000 OA
ATOM     22  N   UNL     1       1.739   7.547  21.052  0.00  0.00    +0.000 N 
ATOM     23  H   UNL     1       1.269   6.734  21.452  0.00  0.00    +0.000 HD
BRANCH  22  24
ATOM     24  C   UNL     1       1.190   8.847  21.384  0.00  0.00    +0.000 C 
BRANCH  24  25
ATOM     25  C   UNL     1      -0.240   9.012  20.877  0.00  0.00    +0.000 C 
BRANCH  25  26
ATOM     26  C   UNL     1      -0.362  10.247  20.025  0.00  0.00    +0.000 A 
ATOM     27  C   UNL     1      -1.317  10.319  19.015  0.00  0.00    +0.000 A 
ATOM     28  C   UNL     1      -1.376  11.466  18.228  0.00  0.00    +0.000 A 
ATOM     29  C   UNL     1      -0.479  12.502  18.464  0.00  0.00    +0.000 A 
ATOM     30  C   UNL     1       0.446  12.344  19.481  0.00  0.00    +0.000 A 
ATOM     31  N   UNL     1       0.523  11.245  20.264  0.00  0.00    +0.000 NA
ENDBRANCH  25  26
ENDBRANCH  24  25
ENDBRANCH  22  24
ENDBRANCH  19  20
ENDBRANCH   7  19
TORSDOF 9
ENDMDL
MODEL 7
REMARK VINA RESULT:      -7.7      2.984      7.655
REMARK  Name = 
REMARK  10 active torsions:
REMARK  status: ('A' for Active; 'I' for Inactive)
REMARK    1  A    between atoms: C_1  and  C_2
REMARK    2  A    between atoms: C_2  and  O_3
REMARK    3  A    between atoms: O_3  and  C_4
REMARK    4  A    between atoms: C_7  and  C_8
REMARK    5  A    between atoms: C_8  and  N_9
REMARK    6  A    between atoms: C_15  and  C_16
REMARK    7  A    between atoms: C_16  and  C_17
REMARK    8  A    between atoms: N_19  and  C_20
REMARK    9  A    between atoms: C_20  and  C_21
REMARK   10  A    between atoms: C_21  and  C_22
REMARK                            x       y       z     vdW  Elec       q    Type
REMARK                         _______ _______ _______ _____ _____    ______ ____
ROOT
ATOM      1  N   UNL     1       3.862   5.791  18.930  0.00  0.00    +0.000 NA
ATOM      2  C   UNL     1       3.467   4.628  19.743  0.00  0.00    +0.000 C 
ATOM      3  C   UNL     1       3.451   3.305  18.971  0.00  0.00    +0.000 C 
ATOM      4  N   UNL     1       4.667   3.088  18.222  0.00  0.00    +0.000 N 
ATOM      5  C   UNL     1       5.305   4.128  17.605  0.00  0.00    +0.000 C 
ATOM      6  O   UNL     1       6.049   3.853  16.663  0.00  0.00    +0.000 OA
ATOM      7  C   UNL     1       5.160   5.558  18.199  0.00  0.00    +0.000 C 
ATOM      8  H   UNL     1       4.814   2.192  17.782  0.00  0.00    +0.000 HD
ENDROOT
BRANCH   1   9
ATOM      9  C   UNL     1       2.757   6.347  18.133  0.00  0.00    +0.000 C 
BRANCH   9  13
ATOM     10  C   UNL     1       1.098  10.140  19.456  0.00  0.00    +0.000 A 
ATOM     11  C   UNL     1       1.614   9.995  18.170  0.00  0.00    +0.000 A 
ATOM     12  C   UNL     1       2.178   8.790  17.750  0.00  0.00    +0.000 A 
ATOM     13  C   UNL     1       2.251   7.692  18.625  0.00  0.00    +0.000 A 
ATOM     14  C   UNL     1       1.720   7.832  19.912  0.00  0.00    +0.000 A 
ATOM     15  C   UNL     1       1.149   9.045  20.322  0.00  0.00    +0.000 A 
BRANCH  10  16
ATOM     16  O   UNL     1       0.524  11.286  19.953  0.00  0.00    +0.000 OA
BRANCH  16  18
ATOM     17  C   UNL     1      -1.682  10.982  18.996  0.00  0.00    +0.000 C 
ATOM     18  C   UNL     1      -0.469  11.885  19.119  0.00  0.00    +0.000 C 
ENDBRANCH  16  18
ENDBRANCH  10  16
ENDBRANCH   9  13
ENDBRANCH   1   9
BRANCH   7  19
ATOM     19  C   UNL     1       5.426   6.620  17.120  0.00  0.00    +0.000 C 
BRANCH  19  20
ATOM     20  C   UNL     1       6.832   7.171  17.035  0.00  0.00    +0.000 C 
ATOM     21  O   UNL     1       7.691   6.667  16.332  0.00  0.00    +0.000 OA
ATOM     22  N   UNL     1       7.052   8.234  17.890  0.00  0.00    +0.000 N 
ATOM     23  H   UNL     1       6.270   8.888  17.937  0.00  0.00    +0.000 HD
BRANCH  22  24
ATOM     24  C   UNL     1       8.381   8.798  18.026  0.00  0.00    +0.000 C 
BRANCH  24  25
ATOM     25  C   UNL     1       8.391  10.306  17.794  0.00  0.00    +0.000 C 
BRANCH  25  26
ATOM     26  C   UNL     1       9.500  10.956  18.577  0.00  0.00    +0.000 A 
ATOM     27  C   UNL     1      10.657  11.393  17.937  0.00  0.00    +0.000 A 
ATOM     28  C   UNL     1      11.673  11.960  18.701  0.00  0.00    +0.000 A 
ATOM     29  C   UNL     1      11.512  12.067  20.078  0.00  0.00    +0.000 A 
ATOM     30  C   UNL     1      10.335  11.597  20.635  0.00  0.00    +0.000 A 
ATOM     31  N   UNL     1       9.331  11.048  19.918  0.00  0.00    +0.000 NA
ENDBRANCH  25  26
ENDBRANCH  24  25
ENDBRANCH  22  24
ENDBRANCH  19  20
ENDBRANCH   7  19
TORSDOF 9
ENDMDL
MODEL 8
REMARK VINA RESULT:      -7.6      2.989      7.296
REMARK  Name = 
REMARK  10 active torsions:
REMARK  status: ('A' for Active; 'I' for Inactive)
REMARK    1  A    between atoms: C_1  and  C_2
REMARK    2  A    between atoms: C_2  and  O_3
REMARK    3  A    between atoms: O_3  and  C_4
REMARK    4  A    between atoms: C_7  and  C_8
REMARK    5  A    between atoms: C_8  and  N_9
REMARK    6  A    between atoms: C_15  and  C_16
REMARK    7  A    between atoms: C_16  and  C_17
REMARK    8  A    between atoms: N_19  and  C_20
REMARK    9  A    between atoms: C_20  and  C_21
REMARK   10  A    between atoms: C_21  and  C_22
REMARK                            x       y       z     vdW  Elec       q    Type
REMARK                         _______ _______ _______ _____ _____    ______ ____
ROOT
ATOM      1  N   UNL     1       4.816   5.773  17.968  0.00  0.00    +0.000 NA
ATOM      2  C   UNL     1       4.290   4.398  18.008  0.00  0.00    +0.000 C 
ATOM      3  C   UNL     1       4.555   3.592  16.732  0.00  0.00    +0.000 C 
ATOM      4  N   UNL     1       5.936   3.660  16.314  0.00  0.00    +0.000 N 
ATOM      5  C   UNL     1       6.652   4.817  16.445  0.00  0.00    +0.000 C 
ATOM      6  O   UNL     1       7.633   4.959  15.714  0.00  0.00    +0.000 OA
ATOM      7  C   UNL     1       6.272   5.812  17.578  0.00  0.00    +0.000 C 
ATOM      8  H   UNL     1       6.246   3.064  15.561  0.00  0.00    +0.000 HD
ENDROOT
BRANCH   1   9
ATOM      9  C   UNL     1       3.929   6.716  17.268  0.00  0.00    +0.000 C 
BRANCH   9  13
ATOM     10  C   UNL     1       1.136   8.873  19.805  0.00  0.00    +0.000 A 
ATOM     11  C   UNL     1       1.450   9.339  18.530  0.00  0.00    +0.000 A 
ATOM     12  C   UNL     1       2.371   8.669  17.724  0.00  0.00    +0.000 A 
ATOM     13  C   UNL     1       3.017   7.510  18.187  0.00  0.00    +0.000 A 
ATOM     14  C   UNL     1       2.691   7.032  19.462  0.00  0.00    +0.000 A 
ATOM     15  C   UNL     1       1.759   7.709  20.262  0.00  0.00    +0.000 A 
BRANCH  10  16
ATOM     16  O   UNL     1       0.242   9.465  20.665  0.00  0.00    +0.000 OA
BRANCH  16  18
ATOM     17  C   UNL     1       0.091  11.850  21.072  0.00  0.00    +0.000 C 
ATOM     18  C   UNL     1      -0.339  10.684  20.200  0.00  0.00    +0.000 C 
ENDBRANCH  16  18
ENDBRANCH  10  16
ENDBRANCH   9  13
ENDBRANCH   1   9
BRANCH   7  19
ATOM     19  C   UNL     1       6.751   7.231  17.233  0.00  0.00    +0.000 C 
BRANCH  19  20
ATOM     20  C   UNL     1       7.867   7.801  18.079  0.00  0.00    +0.000 C 
ATOM     21  O   UNL     1       8.493   7.127  18.878  0.00  0.00    +0.000 OA
ATOM     22  N   UNL     1       8.037   9.163  17.911  0.00  0.00    +0.000 N 
ATOM     23  H   UNL     1       7.950   9.467  16.940  0.00  0.00    +0.000 HD
BRANCH  22  24
ATOM     24  C   UNL     1       8.979   9.889  18.740  0.00  0.00    +0.000 C 
BRANCH  24  25
ATOM     25  C   UNL     1       9.685  11.001  17.968  0.00  0.00    +0.000 C 
BRANCH  25  26
ATOM     26  C   UNL     1       8.953  12.306  18.132  0.00  0.00    +0.000 A 
ATOM     27  C   UNL     1       9.314  13.198  19.139  0.00  0.00    +0.000 A 
ATOM     28  C   UNL     1       8.592  14.380  19.278  0.00  0.00    +0.000 A 
ATOM     29  C   UNL     1       7.530  14.635  18.418  0.00  0.00    +0.000 A 
ATOM     30  C   UNL     1       7.231  13.690  17.452  0.00  0.00    +0.000 A 
ATOM     31  N   UNL     1       7.917  12.537  17.291  0.00  0.00    +0.000 NA
ENDBRANCH  25  26
ENDBRANCH  24  25
ENDBRANCH  22  24
ENDBRANCH  19  20
ENDBRANCH   7  19
TORSDOF 9
ENDMDL
MODEL 9
REMARK VINA RESULT:      -7.4      3.066      3.893
REMARK  Name = 
REMARK  10 active torsions:
REMARK  status: ('A' for Active; 'I' for Inactive)
REMARK    1  A    between atoms: C_1  and  C_2
REMARK    2  A    between atoms: C_2  and  O_3
REMARK    3  A    between atoms: O_3  and  C_4
REMARK    4  A    between atoms: C_7  and  C_8
REMARK    5  A    between atoms: C_8  and  N_9
REMARK    6  A    between atoms: C_15  and  C_16
REMARK    7  A    between atoms: C_16  and  C_17
REMARK    8  A    between atoms: N_19  and  C_20
REMARK    9  A    between atoms: C_20  and  C_21
REMARK   10  A    between atoms: C_21  and  C_22
REMARK                            x       y       z     vdW  Elec       q    Type
REMARK                         _______ _______ _______ _____ _____    ______ ____
ROOT
ATOM      1  N   UNL     1       2.467   4.889  18.314  0.00  0.00    +0.000 NA
ATOM      2  C   UNL     1       2.102   3.792  17.401  0.00  0.00    +0.000 C 
ATOM      3  C   UNL     1       2.069   2.413  18.067  0.00  0.00    +0.000 C 
ATOM      4  N   UNL     1       1.305   2.410  19.293  0.00  0.00    +0.000 N 
ATOM      5  C   UNL     1       1.342   3.479  20.144  0.00  0.00    +0.000 C 
ATOM      6  O   UNL     1       1.047   3.272  21.322  0.00  0.00    +0.000 OA
ATOM      7  C   UNL     1       1.621   4.894  19.562  0.00  0.00    +0.000 C 
ATOM      8  H   UNL     1       1.113   1.528  19.743  0.00  0.00    +0.000 HD
ENDROOT
BRANCH   1   9
ATOM      9  C   UNL     1       3.919   5.025  18.511  0.00  0.00    +0.000 C 
BRANCH   9  13
ATOM     10  C   UNL     1       6.047   4.730  14.733  0.00  0.00    +0.000 A 
ATOM     11  C   UNL     1       5.960   3.636  15.591  0.00  0.00    +0.000 A 
ATOM     12  C   UNL     1       5.307   3.734  16.821  0.00  0.00    +0.000 A 
ATOM     13  C   UNL     1       4.730   4.949  17.229  0.00  0.00    +0.000 A 
ATOM     14  C   UNL     1       4.804   6.044  16.361  0.00  0.00    +0.000 A 
ATOM     15  C   UNL     1       5.457   5.933  15.125  0.00  0.00    +0.000 A 
BRANCH  10  16
ATOM     16  O   UNL     1       6.667   4.724  13.505  0.00  0.00    +0.000 OA
BRANCH  16  18
ATOM     17  C   UNL     1       5.055   3.543  12.134  0.00  0.00    +0.000 C 
ATOM     18  C   UNL     1       6.455   3.552  12.718  0.00  0.00    +0.000 C 
ENDBRANCH  16  18
ENDBRANCH  10  16
ENDBRANCH   9  13
ENDBRANCH   1   9
BRANCH   7  19
ATOM     19  C   UNL     1       2.183   5.823  20.650  0.00  0.00    +0.000 C 
BRANCH  19  20
ATOM     20  C   UNL     1       1.725   7.264  20.623  0.00  0.00    +0.000 C 
ATOM     21  O   UNL     1       1.133   7.780  21.554  0.00  0.00    +0.000 OA
ATOM     22  N   UNL     1       1.972   7.891  19.416  0.00  0.00    +0.000 N 
ATOM     23  H   UNL     1       2.880   7.656  19.013  0.00  0.00    +0.000 HD
BRANCH  22  24
ATOM     24  C   UNL     1       1.481   9.235  19.178  0.00  0.00    +0.000 C 
BRANCH  24  25
ATOM     25  C   UNL     1       0.729   9.344  17.854  0.00  0.00    +0.000 C 
BRANCH  25  26
ATOM     26  C   UNL     1      -0.547  10.123  18.032  0.00  0.00    +0.000 A 
ATOM     27  C   UNL     1      -0.662  11.068  19.048  0.00  0.00    +0.000 A 
ATOM     28  C   UNL     1      -1.869  11.746  19.201  0.00  0.00    +0.000 A 
ATOM     29  C   UNL     1      -2.926  11.457  18.345  0.00  0.00    +0.000 A 
ATOM     30  C   UNL     1      -2.730  10.495  17.368  0.00  0.00    +0.000 A 
ATOM     31  N   UNL     1      -1.569   9.826  17.194  0.00  0.00    +0.000 NA
ENDBRANCH  25  26
ENDBRANCH  24  25
ENDBRANCH  22  24
ENDBRANCH  19  20
ENDBRANCH   7  19
TORSDOF 9
ENDMDL
