MODEL 1
REMARK VINA RESULT:      -5.7      0.000      0.000
REMARK  Name = 
REMARK  12 active torsions:
REMARK  status: ('A' for Active; 'I' for Inactive)
REMARK    1  A    between atoms: N_2  and  N_3
REMARK    2  A    between atoms: N_3  and  C_4
REMARK    3  A    between atoms: C_4  and  C_5
REMARK    4  A    between atoms: N_9  and  C_10
REMARK    5  A    between atoms: C_11  and  O_12
REMARK    6  A    between atoms: C_13  and  O_14
REMARK    7  A    between atoms: C_15  and  N_16
REMARK    8  A    between atoms: N_19  and  C_20
REMARK    9  A    between atoms: N_19  and  N_23
REMARK   10  A    between atoms: C_20  and  C_21
REMARK   11  A    between atoms: C_25  and  O_26
REMARK   12  A    between atoms: C_27  and  O_28
REMARK                            x       y       z     vdW  Elec       q    Type
REMARK                         _______ _______ _______ _____ _____    ______ ____
ROOT
ATOM      1  C   UNL     1      -0.119  10.682  21.274  0.00  0.00    +0.000 C 
ATOM      2  C   UNL     1      -0.012   9.439  22.192  0.00  0.00    +0.000 C 
ATOM      3  C   UNL     1       1.091   8.435  21.813  0.00  0.00    +0.000 C 
ATOM      4  C   UNL     1       1.142   8.153  20.304  0.00  0.00    +0.000 C 
ATOM      5  C   UNL     1       1.438   9.496  19.594  0.00  0.00    +0.000 C 
ATOM      6  C   UNL     1       0.253  10.464  19.792  0.00  0.00    +0.000 C 
ENDROOT
BRANCH   1  10
ATOM      7  N   UNL     1      -3.077  12.845  22.256  0.00  0.00    +0.000 N 
ATOM      8  C   UNL     1      -1.785  12.273  22.387  0.00  0.00    +0.000 C 
ATOM      9  O   UNL     1      -0.984  12.606  23.268  0.00  0.00    +0.000 OA
ATOM     10  N   UNL     1      -1.435  11.364  21.407  0.00  0.00    +0.000 N 
ATOM     11  H   UNL     1      -2.192  10.905  20.919  0.00  0.00    +0.000 HD
BRANCH   7  13
ATOM     12  O   UNL     1      -3.401  13.017  20.062  0.00  0.00    +0.000 OA
ATOM     13  N   UNL     1      -3.818  12.516  21.107  0.00  0.00    +0.000 NA
ENDBRANCH   7  13
BRANCH   7  14
ATOM     14  C   UNL     1      -3.436  14.005  23.087  0.00  0.00    +0.000 C 
BRANCH  14  15
ATOM     15  C   UNL     1      -4.612  13.873  24.065  0.00  0.00    +0.000 C 
ATOM     16 CL   UNL     1      -4.633  12.297  24.888  0.00  0.00    +0.000 Cl
ENDBRANCH  14  15
ENDBRANCH   7  14
ENDBRANCH   1  10
BRANCH   4  17
ATOM     17  N   UNL     1       2.173   7.153  20.003  0.00  0.00    +0.000 N 
ATOM     18  C   UNL     1       1.999   5.796  20.204  0.00  0.00    +0.000 C 
ATOM     19  O   UNL     1       0.916   5.341  20.585  0.00  0.00    +0.000 OA
ATOM     20  N   UNL     1       3.114   4.989  19.959  0.00  0.00    +0.000 N 
ATOM     21  H   UNL     1       3.121   7.504  20.071  0.00  0.00    +0.000 HD
BRANCH  20  22
ATOM     22  N   UNL     1       4.335   5.605  19.634  0.00  0.00    +0.000 NA
ATOM     23  O   UNL     1       4.477   5.875  18.440  0.00  0.00    +0.000 OA
ENDBRANCH  20  22
BRANCH  20  24
ATOM     24  C   UNL     1       3.058   3.539  20.187  0.00  0.00    +0.000 C 
BRANCH  24  25
ATOM     25  C   UNL     1       2.491   2.709  19.033  0.00  0.00    +0.000 C 
ATOM     26 CL   UNL     1       3.601   1.410  18.528  0.00  0.00    +0.000 Cl
ENDBRANCH  24  25
ENDBRANCH  20  24
ENDBRANCH   4  17
BRANCH   2  27
ATOM     27  O   UNL     1       0.292   9.909  23.528  0.00  0.00    +0.000 OA
ATOM     28  H   UNL     1      -0.550  10.146  23.958  0.00  0.00    +0.000 HD
ENDBRANCH   2  27
BRANCH   3  29
ATOM     29  O   UNL     1       2.375   8.955  22.226  0.00  0.00    +0.000 OA
ATOM     30  H   UNL     1       2.750   9.424  21.452  0.00  0.00    +0.000 HD
ENDBRANCH   3  29
BRANCH   5  31
ATOM     31  O   UNL     1       1.696   9.319  18.197  0.00  0.00    +0.000 OA
ATOM     32  H   UNL     1       2.248   8.531  18.080  0.00  0.00    +0.000 HD
ENDBRANCH   5  31
BRANCH   6  33
ATOM     33  O   UNL     1       0.566  11.754  19.227  0.00  0.00    +0.000 OA
ATOM     34  H   UNL     1       1.361  11.660  18.666  0.00  0.00    +0.000 HD
ENDBRANCH   6  33
TORSDOF 12
ENDMDL
MODEL 2
REMARK VINA RESULT:      -5.6      7.219      9.057
REMARK  Name = 
REMARK  12 active torsions:
REMARK  status: ('A' for Active; 'I' for Inactive)
REMARK    1  A    between atoms: N_2  and  N_3
REMARK    2  A    between atoms: N_3  and  C_4
REMARK    3  A    between atoms: C_4  and  C_5
REMARK    4  A    between atoms: N_9  and  C_10
REMARK    5  A    between atoms: C_11  and  O_12
REMARK    6  A    between atoms: C_13  and  O_14
REMARK    7  A    between atoms: C_15  and  N_16
REMARK    8  A    between atoms: N_19  and  C_20
REMARK    9  A    between atoms: N_19  and  N_23
REMARK   10  A    between atoms: C_20  and  C_21
REMARK   11  A    between atoms: C_25  and  O_26
REMARK   12  A    between atoms: C_27  and  O_28
REMARK                            x       y       z     vdW  Elec       q    Type
REMARK                         _______ _______ _______ _____ _____    ______ ____
ROOT
ATOM      1  C   UNL     1       7.778   6.616  18.350  0.00  0.00    +0.000 C 
ATOM      2  C   UNL     1       7.012   6.102  19.593  0.00  0.00    +0.000 C 
ATOM      3  C   UNL     1       5.943   5.031  19.311  0.00  0.00    +0.000 C 
ATOM      4  C   UNL     1       5.076   5.368  18.090  0.00  0.00    +0.000 C 
ATOM      5  C   UNL     1       6.018   5.453  16.865  0.00  0.00    +0.000 C 
ATOM      6  C   UNL     1       6.981   6.648  17.028  0.00  0.00    +0.000 C 
ENDROOT
BRANCH   1  10
ATOM      7  N   UNL     1       8.912  10.236  18.435  0.00  0.00    +0.000 N 
ATOM      8  C   UNL     1       8.190   9.111  17.960  0.00  0.00    +0.000 C 
ATOM      9  O   UNL     1       7.326   9.186  17.078  0.00  0.00    +0.000 OA
ATOM     10  N   UNL     1       8.452   7.919  18.606  0.00  0.00    +0.000 N 
ATOM     11  H   UNL     1       9.345   7.840  19.073  0.00  0.00    +0.000 HD
BRANCH   7  13
ATOM     12  O   UNL     1       9.238  10.429  20.627  0.00  0.00    +0.000 OA
ATOM     13  N   UNL     1       9.731  10.050  19.564  0.00  0.00    +0.000 NA
ENDBRANCH   7  13
BRANCH   7  14
ATOM     14  C   UNL     1       8.515  11.583  17.997  0.00  0.00    +0.000 C 
BRANCH  14  15
ATOM     15  C   UNL     1       9.474  12.753  18.253  0.00  0.00    +0.000 C 
ATOM     16 CL   UNL     1      10.794  12.818  17.063  0.00  0.00    +0.000 Cl
ENDBRANCH  14  15
ENDBRANCH   7  14
ENDBRANCH   1  10
BRANCH   4  17
ATOM     17  N   UNL     1       4.043   4.345  17.896  0.00  0.00    +0.000 N 
ATOM     18  C   UNL     1       2.806   4.385  18.514  0.00  0.00    +0.000 C 
ATOM     19  O   UNL     1       2.475   5.345  19.217  0.00  0.00    +0.000 OA
ATOM     20  N   UNL     1       1.974   3.282  18.299  0.00  0.00    +0.000 N 
ATOM     21  H   UNL     1       4.407   3.427  17.670  0.00  0.00    +0.000 HD
BRANCH  20  22
ATOM     22  N   UNL     1       2.477   2.187  17.575  0.00  0.00    +0.000 NA
ATOM     23  O   UNL     1       3.348   1.537  18.157  0.00  0.00    +0.000 OA
ENDBRANCH  20  22
BRANCH  20  24
ATOM     24  C   UNL     1       0.658   3.196  18.946  0.00  0.00    +0.000 C 
BRANCH  24  25
ATOM     25  C   UNL     1       0.657   3.342  20.469  0.00  0.00    +0.000 C 
ATOM     26 CL   UNL     1       1.957   2.398  21.238  0.00  0.00    +0.000 Cl
ENDBRANCH  24  25
ENDBRANCH  20  24
ENDBRANCH   4  17
BRANCH   2  27
ATOM     27  O   UNL     1       7.983   5.499  20.484  0.00  0.00    +0.000 OA
ATOM     28  H   UNL     1       8.332   4.702  20.048  0.00  0.00    +0.000 HD
ENDBRANCH   2  27
BRANCH   3  29
ATOM     29  O   UNL     1       6.589   3.759  19.079  0.00  0.00    +0.000 OA
ATOM     30  H   UNL     1       6.837   3.739  18.131  0.00  0.00    +0.000 HD
ENDBRANCH   3  29
BRANCH   5  31
ATOM     31  O   UNL     1       5.293   5.575  15.637  0.00  0.00    +0.000 OA
ATOM     32  H   UNL     1       5.501   4.813  15.076  0.00  0.00    +0.000 HD
ENDBRANCH   5  31
BRANCH   6  33
ATOM     33  O   UNL     1       7.933   6.670  15.945  0.00  0.00    +0.000 OA
ATOM     34  H   UNL     1       7.441   6.719  15.103  0.00  0.00    +0.000 HD
ENDBRANCH   6  33
TORSDOF 12
ENDMDL
MODEL 3
REMARK VINA RESULT:      -5.5      2.372      9.487
REMARK  Name = 
REMARK  12 active torsions:
REMARK  status: ('A' for Active; 'I' for Inactive)
REMARK    1  A    between atoms: N_2  and  N_3
REMARK    2  A    between atoms: N_3  and  C_4
REMARK    3  A    between atoms: C_4  and  C_5
REMARK    4  A    between atoms: N_9  and  C_10
REMARK    5  A    between atoms: C_11  and  O_12
REMARK    6  A    between atoms: C_13  and  O_14
REMARK    7  A    between atoms: C_15  and  N_16
REMARK    8  A    between atoms: N_19  and  C_20
REMARK    9  A    between atoms: N_19  and  N_23
REMARK   10  A    between atoms: C_20  and  C_21
REMARK   11  A    between atoms: C_25  and  O_26
REMARK   12  A    between atoms: C_27  and  O_28
REMARK                            x       y       z     vdW  Elec       q    Type
REMARK                         _______ _______ _______ _____ _____    ______ ____
ROOT
ATOM      1  C   UNL     1       0.374  10.689  19.648  0.00  0.00    +0.000 C 
ATOM      2  C   UNL     1      -1.058  10.587  19.068  0.00  0.00    +0.000 C 
ATOM      3  C   UNL     1      -1.998  11.751  19.427  0.00  0.00    +0.000 C 
ATOM      4  C   UNL     1      -1.908  12.150  20.907  0.00  0.00    +0.000 C 
ATOM      5  C   UNL     1      -0.451  12.597  21.176  0.00  0.00    +0.000 C 
ATOM      6  C   UNL     1       0.503  11.395  21.015  0.00  0.00    +0.000 C 
ENDROOT
BRANCH   1  10
ATOM      7  N   UNL     1       2.389   7.575  18.849  0.00  0.00    +0.000 N 
ATOM      8  C   UNL     1       1.733   8.804  18.578  0.00  0.00    +0.000 C 
ATOM      9  O   UNL     1       1.797   9.378  17.484  0.00  0.00    +0.000 OA
ATOM     10  N   UNL     1       1.074   9.375  19.649  0.00  0.00    +0.000 N 
ATOM     11  H   UNL     1       0.789   8.754  20.394  0.00  0.00    +0.000 HD
BRANCH   7  13
ATOM     12  O   UNL     1       1.403   6.461  20.502  0.00  0.00    +0.000 OA
ATOM     13  N   UNL     1       2.391   7.122  20.180  0.00  0.00    +0.000 NA
ENDBRANCH   7  13
BRANCH   7  14
ATOM     14  C   UNL     1       3.328   7.028  17.858  0.00  0.00    +0.000 C 
BRANCH  14  15
ATOM     15  C   UNL     1       3.538   5.509  17.803  0.00  0.00    +0.000 C 
ATOM     16 CL   UNL     1       2.004   4.620  17.678  0.00  0.00    +0.000 Cl
ENDBRANCH  14  15
ENDBRANCH   7  14
ENDBRANCH   1  10
BRANCH   4  17
ATOM     17  N   UNL     1      -2.858  13.226  21.208  0.00  0.00    +0.000 N 
ATOM     18  C   UNL     1      -3.777  13.165  22.240  0.00  0.00    +0.000 C 
ATOM     19  O   UNL     1      -3.791  12.211  23.025  0.00  0.00    +0.000 OA
ATOM     20  N   UNL     1      -4.676  14.232  22.329  0.00  0.00    +0.000 N 
ATOM     21  H   UNL     1      -3.117  13.785  20.403  0.00  0.00    +0.000 HD
BRANCH  20  22
ATOM     22  N   UNL     1      -4.655  15.218  21.327  0.00  0.00    +0.000 NA
ATOM     23  O   UNL     1      -3.709  16.005  21.394  0.00  0.00    +0.000 OA
ENDBRANCH  20  22
BRANCH  20  24
ATOM     24  C   UNL     1      -5.725  14.247  23.357  0.00  0.00    +0.000 C 
BRANCH  24  25
ATOM     25  C   UNL     1      -6.307  15.623  23.690  0.00  0.00    +0.000 C 
ATOM     26 CL   UNL     1      -5.191  16.609  24.666  0.00  0.00    +0.000 Cl
ENDBRANCH  24  25
ENDBRANCH  20  24
ENDBRANCH   4  17
BRANCH   2  27
ATOM     27  O   UNL     1      -0.943  10.571  17.624  0.00  0.00    +0.000 OA
ATOM     28  H   UNL     1      -0.084  10.172  17.399  0.00  0.00    +0.000 HD
ENDBRANCH   2  27
BRANCH   3  29
ATOM     29  O   UNL     1      -1.664  12.903  18.620  0.00  0.00    +0.000 OA
ATOM     30  H   UNL     1      -1.311  13.582  19.232  0.00  0.00    +0.000 HD
ENDBRANCH   3  29
BRANCH   5  31
ATOM     31  O   UNL     1      -0.296  13.171  22.478  0.00  0.00    +0.000 OA
ATOM     32  H   UNL     1       0.444  13.796  22.456  0.00  0.00    +0.000 HD
ENDBRANCH   5  31
BRANCH   6  33
ATOM     33  O   UNL     1       1.873  11.825  21.157  0.00  0.00    +0.000 OA
ATOM     34  H   UNL     1       1.920  12.776  20.942  0.00  0.00    +0.000 HD
ENDBRANCH   6  33
TORSDOF 12
ENDMDL
MODEL 4
REMARK VINA RESULT:      -5.4      1.153      1.199
REMARK  Name = 
REMARK  12 active torsions:
REMARK  status: ('A' for Active; 'I' for Inactive)
REMARK    1  A    between atoms: N_2  and  N_3
REMARK    2  A    between atoms: N_3  and  C_4
REMARK    3  A    between atoms: C_4  and  C_5
REMARK    4  A    between atoms: N_9  and  C_10
REMARK    5  A    between atoms: C_11  and  O_12
REMARK    6  A    between atoms: C_13  and  O_14
REMARK    7  A    between atoms: C_15  and  N_16
REMARK    8  A    between atoms: N_19  and  C_20
REMARK    9  A    between atoms: N_19  and  N_23
REMARK   10  A    between atoms: C_20  and  C_21
REMARK   11  A    between atoms: C_25  and  O_26
REMARK   12  A    between atoms: C_27  and  O_28
REMARK                            x       y       z     vdW  Elec       q    Type
REMARK                         _______ _______ _______ _____ _____    ______ ____
ROOT
ATOM      1  C   UNL     1      -0.177  10.768  21.485  0.00  0.00    +0.000 C 
ATOM      2  C   UNL     1      -0.061   9.499  22.364  0.00  0.00    +0.000 C 
ATOM      3  C   UNL     1       1.036   8.504  21.943  0.00  0.00    +0.000 C 
ATOM      4  C   UNL     1       1.069   8.267  20.427  0.00  0.00    +0.000 C 
ATOM      5  C   UNL     1       1.360   9.629  19.753  0.00  0.00    +0.000 C 
ATOM      6  C   UNL     1       0.178  10.593  19.992  0.00  0.00    +0.000 C 
ENDROOT
BRANCH   1  10
ATOM      7  N   UNL     1      -3.094  12.975  22.494  0.00  0.00    +0.000 N 
ATOM      8  C   UNL     1      -1.789  12.424  22.583  0.00  0.00    +0.000 C 
ATOM      9  O   UNL     1      -0.936  12.828  23.383  0.00  0.00    +0.000 OA
ATOM     10  N   UNL     1      -1.491  11.447  21.652  0.00  0.00    +0.000 N 
ATOM     11  H   UNL     1      -2.272  10.947  21.250  0.00  0.00    +0.000 HD
BRANCH   7  13
ATOM     12  O   UNL     1      -5.054  12.248  21.736  0.00  0.00    +0.000 OA
ATOM     13  N   UNL     1      -3.902  12.554  21.424  0.00  0.00    +0.000 NA
ENDBRANCH   7  13
BRANCH   7  14
ATOM     14  C   UNL     1      -3.413  14.190  23.259  0.00  0.00    +0.000 C 
BRANCH  14  15
ATOM     15  C   UNL     1      -3.801  15.462  22.491  0.00  0.00    +0.000 C 
ATOM     16 CL   UNL     1      -5.563  15.665  22.369  0.00  0.00    +0.000 Cl
ENDBRANCH  14  15
ENDBRANCH   7  14
ENDBRANCH   1  10
BRANCH   4  17
ATOM     17  N   UNL     1       2.095   7.275  20.085  0.00  0.00    +0.000 N 
ATOM     18  C   UNL     1       1.928   5.914  20.265  0.00  0.00    +0.000 C 
ATOM     19  O   UNL     1       0.855   5.450  20.661  0.00  0.00    +0.000 OA
ATOM     20  N   UNL     1       3.040   5.115  19.981  0.00  0.00    +0.000 N 
ATOM     21  H   UNL     1       3.044   7.627  20.138  0.00  0.00    +0.000 HD
BRANCH  20  22
ATOM     22  N   UNL     1       4.252   5.739  19.641  0.00  0.00    +0.000 NA
ATOM     23  O   UNL     1       4.369   6.027  18.448  0.00  0.00    +0.000 OA
ENDBRANCH  20  22
BRANCH  20  24
ATOM     24  C   UNL     1       2.991   3.660  20.183  0.00  0.00    +0.000 C 
BRANCH  24  25
ATOM     25  C   UNL     1       2.616   2.832  18.952  0.00  0.00    +0.000 C 
ATOM     26 CL   UNL     1       0.867   2.503  18.868  0.00  0.00    +0.000 Cl
ENDBRANCH  24  25
ENDBRANCH  20  24
ENDBRANCH   4  17
BRANCH   2  27
ATOM     27  O   UNL     1       0.258   9.929  23.710  0.00  0.00    +0.000 OA
ATOM     28  H   UNL     1      -0.580  10.133  24.163  0.00  0.00    +0.000 HD
ENDBRANCH   2  27
BRANCH   3  29
ATOM     29  O   UNL     1       2.325   9.010  22.357  0.00  0.00    +0.000 OA
ATOM     30  H   UNL     1       2.866   9.097  21.545  0.00  0.00    +0.000 HD
ENDBRANCH   3  29
BRANCH   5  31
ATOM     31  O   UNL     1       1.601   9.494  18.349  0.00  0.00    +0.000 OA
ATOM     32  H   UNL     1       2.468   9.080  18.221  0.00  0.00    +0.000 HD
ENDBRANCH   5  31
BRANCH   6  33
ATOM     33  O   UNL     1       0.487  11.899  19.462  0.00  0.00    +0.000 OA
ATOM     34  H   UNL     1       0.656  12.502  20.210  0.00  0.00    +0.000 HD
ENDBRANCH   6  33
TORSDOF 12
ENDMDL
MODEL 5
REMARK VINA RESULT:      -5.4      2.180      9.219
REMARK  Name = 
REMARK  12 active torsions:
REMARK  status: ('A' for Active; 'I' for Inactive)
REMARK    1  A    between atoms: N_2  and  N_3
REMARK    2  A    between atoms: N_3  and  C_4
REMARK    3  A    between atoms: C_4  and  C_5
REMARK    4  A    between atoms: N_9  and  C_10
REMARK    5  A    between atoms: C_11  and  O_12
REMARK    6  A    between atoms: C_13  and  O_14
REMARK    7  A    between atoms: C_15  and  N_16
REMARK    8  A    between atoms: N_19  and  C_20
REMARK    9  A    between atoms: N_19  and  N_23
REMARK   10  A    between atoms: C_20  and  C_21
REMARK   11  A    between atoms: C_25  and  O_26
REMARK   12  A    between atoms: C_27  and  O_28
REMARK                            x       y       z     vdW  Elec       q    Type
REMARK                         _______ _______ _______ _____ _____    ______ ____
ROOT
ATOM      1  C   UNL     1       1.618   8.163  19.226  0.00  0.00    +0.000 C 
ATOM      2  C   UNL     1       1.691   8.066  20.770  0.00  0.00    +0.000 C 
ATOM      3  C   UNL     1       0.702   8.966  21.533  0.00  0.00    +0.000 C 
ATOM      4  C   UNL     1       0.632  10.388  20.959  0.00  0.00    +0.000 C 
ATOM      5  C   UNL     1       0.155  10.271  19.492  0.00  0.00    +0.000 C 
ATOM      6  C   UNL     1       1.223   9.540  18.651  0.00  0.00    +0.000 C 
ENDROOT
BRANCH   1  10
ATOM      7  N   UNL     1       4.288   6.094  17.497  0.00  0.00    +0.000 N 
ATOM      8  C   UNL     1       3.060   6.334  18.166  0.00  0.00    +0.000 C 
ATOM      9  O   UNL     1       2.191   5.466  18.319  0.00  0.00    +0.000 OA
ATOM     10  N   UNL     1       2.849   7.637  18.574  0.00  0.00    +0.000 N 
ATOM     11  H   UNL     1       3.669   8.210  18.711  0.00  0.00    +0.000 HD
BRANCH   7  13
ATOM     12  O   UNL     1       5.988   7.007  16.392  0.00  0.00    +0.000 OA
ATOM     13  N   UNL     1       5.106   7.205  17.228  0.00  0.00    +0.000 NA
ENDBRANCH   7  13
BRANCH   7  14
ATOM     14  C   UNL     1       4.487   4.815  16.799  0.00  0.00    +0.000 C 
BRANCH  14  15
ATOM     15  C   UNL     1       4.942   3.595  17.613  0.00  0.00    +0.000 C 
ATOM     16 CL   UNL     1       3.660   2.373  17.771  0.00  0.00    +0.000 Cl
ENDBRANCH  14  15
ENDBRANCH   7  14
ENDBRANCH   1  10
BRANCH   4  17
ATOM     17  N   UNL     1      -0.282  11.217  21.752  0.00  0.00    +0.000 N 
ATOM     18  C   UNL     1      -0.077  12.564  21.990  0.00  0.00    +0.000 C 
ATOM     19  O   UNL     1       0.868  13.166  21.472  0.00  0.00    +0.000 OA
ATOM     20  N   UNL     1      -0.992  13.184  22.846  0.00  0.00    +0.000 N 
ATOM     21  H   UNL     1      -0.796  10.705  22.459  0.00  0.00    +0.000 HD
BRANCH  20  22
ATOM     22  N   UNL     1      -1.970  12.396  23.475  0.00  0.00    +0.000 NA
ATOM     23  O   UNL     1      -2.990  12.207  22.808  0.00  0.00    +0.000 OA
ENDBRANCH  20  22
BRANCH  20  24
ATOM     24  C   UNL     1      -0.842  14.601  23.207  0.00  0.00    +0.000 C 
BRANCH  24  25
ATOM     25  C   UNL     1      -1.375  14.993  24.587  0.00  0.00    +0.000 C 
ATOM     26 CL   UNL     1      -3.049  15.599  24.515  0.00  0.00    +0.000 Cl
ENDBRANCH  24  25
ENDBRANCH  20  24
ENDBRANCH   4  17
BRANCH   2  27
ATOM     27  O   UNL     1       1.381   6.699  21.136  0.00  0.00    +0.000 OA
ATOM     28  H   UNL     1       1.862   6.496  21.959  0.00  0.00    +0.000 HD
ENDBRANCH   2  27
BRANCH   3  29
ATOM     29  O   UNL     1      -0.619   8.382  21.475  0.00  0.00    +0.000 OA
ATOM     30  H   UNL     1      -0.529   7.453  21.772  0.00  0.00    +0.000 HD
ENDBRANCH   3  29
BRANCH   5  31
ATOM     31  O   UNL     1      -0.129  11.550  18.915  0.00  0.00    +0.000 OA
ATOM     32  H   UNL     1      -1.090  11.666  18.874  0.00  0.00    +0.000 HD
ENDBRANCH   5  31
BRANCH   6  33
ATOM     33  O   UNL     1       0.740   9.329  17.308  0.00  0.00    +0.000 OA
ATOM     34  H   UNL     1      -0.031   8.732  17.349  0.00  0.00    +0.000 HD
ENDBRANCH   6  33
TORSDOF 12
ENDMDL
MODEL 6
REMARK VINA RESULT:      -5.3      2.304      9.388
REMARK  Name = 
REMARK  12 active torsions:
REMARK  status: ('A' for Active; 'I' for Inactive)
REMARK    1  A    between atoms: N_2  and  N_3
REMARK    2  A    between atoms: N_3  and  C_4
REMARK    3  A    between atoms: C_4  and  C_5
REMARK    4  A    between atoms: N_9  and  C_10
REMARK    5  A    between atoms: C_11  and  O_12
REMARK    6  A    between atoms: C_13  and  O_14
REMARK    7  A    between atoms: C_15  and  N_16
REMARK    8  A    between atoms: N_19  and  C_20
REMARK    9  A    between atoms: N_19  and  N_23
REMARK   10  A    between atoms: C_20  and  C_21
REMARK   11  A    between atoms: C_25  and  O_26
REMARK   12  A    between atoms: C_27  and  O_28
REMARK                            x       y       z     vdW  Elec       q    Type
REMARK                         _______ _______ _______ _____ _____    ______ ____
ROOT
ATOM      1  C   UNL     1       0.342  10.655  19.489  0.00  0.00    +0.000 C 
ATOM      2  C   UNL     1      -1.033  10.562  18.782  0.00  0.00    +0.000 C 
ATOM      3  C   UNL     1      -2.012  11.708  19.093  0.00  0.00    +0.000 C 
ATOM      4  C   UNL     1      -2.056  12.060  20.588  0.00  0.00    +0.000 C 
ATOM      5  C   UNL     1      -0.632  12.507  20.998  0.00  0.00    +0.000 C 
ATOM      6  C   UNL     1       0.343  11.317  20.884  0.00  0.00    +0.000 C 
ENDROOT
BRANCH   1  10
ATOM      7  N   UNL     1       2.434   7.574  18.765  0.00  0.00    +0.000 N 
ATOM      8  C   UNL     1       1.788   8.804  18.476  0.00  0.00    +0.000 C 
ATOM      9  O   UNL     1       1.923   9.403  17.402  0.00  0.00    +0.000 OA
ATOM     10  N   UNL     1       1.050   9.346  19.510  0.00  0.00    +0.000 N 
ATOM     11  H   UNL     1       0.720   8.706  20.219  0.00  0.00    +0.000 HD
BRANCH   7  13
ATOM     12  O   UNL     1       1.477   6.237  20.263  0.00  0.00    +0.000 OA
ATOM     13  N   UNL     1       2.346   7.091  20.082  0.00  0.00    +0.000 NA
ENDBRANCH   7  13
BRANCH   7  14
ATOM     14  C   UNL     1       3.444   7.057  17.829  0.00  0.00    +0.000 C 
BRANCH  14  15
ATOM     15  C   UNL     1       4.233   5.799  18.220  0.00  0.00    +0.000 C 
ATOM     16 CL   UNL     1       3.353   4.303  17.832  0.00  0.00    +0.000 Cl
ENDBRANCH  14  15
ENDBRANCH   7  14
ENDBRANCH   1  10
BRANCH   4  17
ATOM     17  N   UNL     1      -3.039  13.119  20.837  0.00  0.00    +0.000 N 
ATOM     18  C   UNL     1      -3.893  13.125  21.925  0.00  0.00    +0.000 C 
ATOM     19  O   UNL     1      -3.816  12.258  22.801  0.00  0.00    +0.000 OA
ATOM     20  N   UNL     1      -4.837  14.156  21.962  0.00  0.00    +0.000 N 
ATOM     21  H   UNL     1      -3.370  13.581  19.998  0.00  0.00    +0.000 HD
BRANCH  20  22
ATOM     22  N   UNL     1      -4.922  15.034  20.868  0.00  0.00    +0.000 NA
ATOM     23  O   UNL     1      -5.382  16.147  21.131  0.00  0.00    +0.000 OA
ENDBRANCH  20  22
BRANCH  20  24
ATOM     24  C   UNL     1      -5.825  14.232  23.047  0.00  0.00    +0.000 C 
BRANCH  24  25
ATOM     25  C   UNL     1      -7.181  13.585  22.754  0.00  0.00    +0.000 C 
ATOM     26 CL   UNL     1      -7.455  12.122  23.732  0.00  0.00    +0.000 Cl
ENDBRANCH  24  25
ENDBRANCH  20  24
ENDBRANCH   4  17
BRANCH   2  27
ATOM     27  O   UNL     1      -0.791  10.595  17.354  0.00  0.00    +0.000 OA
ATOM     28  H   UNL     1      -0.306  11.416  17.153  0.00  0.00    +0.000 HD
ENDBRANCH   2  27
BRANCH   3  29
ATOM     29  O   UNL     1      -1.618  12.888  18.356  0.00  0.00    +0.000 OA
ATOM     30  H   UNL     1      -1.144  12.575  17.558  0.00  0.00    +0.000 HD
ENDBRANCH   3  29
BRANCH   5  31
ATOM     31  O   UNL     1      -0.599  13.039  22.327  0.00  0.00    +0.000 OA
ATOM     32  H   UNL     1       0.285  13.400  22.494  0.00  0.00    +0.000 HD
ENDBRANCH   5  31
BRANCH   6  33
ATOM     33  O   UNL     1       1.691  11.751  21.160  0.00  0.00    +0.000 OA
ATOM     34  H   UNL     1       2.232  10.964  21.361  0.00  0.00    +0.000 HD
ENDBRANCH   6  33
TORSDOF 12
ENDMDL
MODEL 7
REMARK VINA RESULT:      -5.3      2.563      9.376
REMARK  Name = 
REMARK  12 active torsions:
REMARK  status: ('A' for Active; 'I' for Inactive)
REMARK    1  A    between atoms: N_2  and  N_3
REMARK    2  A    between atoms: N_3  and  C_4
REMARK    3  A    between atoms: C_4  and  C_5
REMARK    4  A    between atoms: N_9  and  C_10
REMARK    5  A    between atoms: C_11  and  O_12
REMARK    6  A    between atoms: C_13  and  O_14
REMARK    7  A    between atoms: C_15  and  N_16
REMARK    8  A    between atoms: N_19  and  C_20
REMARK    9  A    between atoms: N_19  and  N_23
REMARK   10  A    between atoms: C_20  and  C_21
REMARK   11  A    between atoms: C_25  and  O_26
REMARK   12  A    between atoms: C_27  and  O_28
REMARK                            x       y       z     vdW  Elec       q    Type
REMARK                         _______ _______ _______ _____ _____    ______ ____
ROOT
ATOM      1  C   UNL     1       1.774   8.019  19.010  0.00  0.00    +0.000 C 
ATOM      2  C   UNL     1       1.885   7.925  20.552  0.00  0.00    +0.000 C 
ATOM      3  C   UNL     1       0.908   8.816  21.338  0.00  0.00    +0.000 C 
ATOM      4  C   UNL     1       0.811  10.237  20.766  0.00  0.00    +0.000 C 
ATOM      5  C   UNL     1       0.299  10.115  19.311  0.00  0.00    +0.000 C 
ATOM      6  C   UNL     1       1.352   9.393  18.445  0.00  0.00    +0.000 C 
ENDROOT
BRANCH   1  10
ATOM      7  N   UNL     1       4.477   5.941  17.347  0.00  0.00    +0.000 N 
ATOM      8  C   UNL     1       3.288   6.177  18.084  0.00  0.00    +0.000 C 
ATOM      9  O   UNL     1       2.516   5.274  18.430  0.00  0.00    +0.000 OA
ATOM     10  N   UNL     1       2.992   7.504  18.328  0.00  0.00    +0.000 N 
ATOM     11  H   UNL     1       3.766   8.154  18.312  0.00  0.00    +0.000 HD
BRANCH   7  13
ATOM     12  O   UNL     1       6.093   7.453  17.573  0.00  0.00    +0.000 OA
ATOM     13  N   UNL     1       5.169   7.063  16.858  0.00  0.00    +0.000 NA
ENDBRANCH   7  13
BRANCH   7  14
ATOM     14  C   UNL     1       4.737   4.595  16.814  0.00  0.00    +0.000 C 
BRANCH  14  15
ATOM     15  C   UNL     1       6.058   4.338  16.076  0.00  0.00    +0.000 C 
ATOM     16 CL   UNL     1       7.464   4.420  17.161  0.00  0.00    +0.000 Cl
ENDBRANCH  14  15
ENDBRANCH   7  14
ENDBRANCH   1  10
BRANCH   4  17
ATOM     17  N   UNL     1      -0.091  11.059  21.580  0.00  0.00    +0.000 N 
ATOM     18  C   UNL     1       0.099  12.411  21.799  0.00  0.00    +0.000 C 
ATOM     19  O   UNL     1       1.017  13.024  21.245  0.00  0.00    +0.000 OA
ATOM     20  N   UNL     1      -0.797  13.024  22.680  0.00  0.00    +0.000 N 
ATOM     21  H   UNL     1      -0.573  10.545  22.308  0.00  0.00    +0.000 HD
BRANCH  20  22
ATOM     22  N   UNL     1      -1.742  12.226  23.347  0.00  0.00    +0.000 NA
ATOM     23  O   UNL     1      -2.775  12.007  22.712  0.00  0.00    +0.000 OA
ENDBRANCH  20  22
BRANCH  20  24
ATOM     24  C   UNL     1      -0.659  14.447  23.023  0.00  0.00    +0.000 C 
BRANCH  24  25
ATOM     25  C   UNL     1      -1.406  14.900  24.279  0.00  0.00    +0.000 C 
ATOM     26 CL   UNL     1      -1.420  16.673  24.452  0.00  0.00    +0.000 Cl
ENDBRANCH  24  25
ENDBRANCH  20  24
ENDBRANCH   4  17
BRANCH   2  27
ATOM     27  O   UNL     1       1.597   6.555  20.926  0.00  0.00    +0.000 OA
ATOM     28  H   UNL     1       2.413   6.037  20.810  0.00  0.00    +0.000 HD
ENDBRANCH   2  27
BRANCH   3  29
ATOM     29  O   UNL     1      -0.409   8.221  21.313  0.00  0.00    +0.000 OA
ATOM     30  H   UNL     1      -0.326   7.375  20.825  0.00  0.00    +0.000 HD
ENDBRANCH   3  29
BRANCH   5  31
ATOM     31  O   UNL     1      -0.010  11.391  18.741  0.00  0.00    +0.000 OA
ATOM     32  H   UNL     1      -0.933  11.606  18.943  0.00  0.00    +0.000 HD
ENDBRANCH   5  31
BRANCH   6  33
ATOM     33  O   UNL     1       0.838   9.177  17.114  0.00  0.00    +0.000 OA
ATOM     34  H   UNL     1       0.480  10.023  16.782  0.00  0.00    +0.000 HD
ENDBRANCH   6  33
TORSDOF 12
ENDMDL
MODEL 8
REMARK VINA RESULT:      -5.3      2.643      9.317
REMARK  Name = 
REMARK  12 active torsions:
REMARK  status: ('A' for Active; 'I' for Inactive)
REMARK    1  A    between atoms: N_2  and  N_3
REMARK    2  A    between atoms: N_3  and  C_4
REMARK    3  A    between atoms: C_4  and  C_5
REMARK    4  A    between atoms: N_9  and  C_10
REMARK    5  A    between atoms: C_11  and  O_12
REMARK    6  A    between atoms: C_13  and  O_14
REMARK    7  A    between atoms: C_15  and  N_16
REMARK    8  A    between atoms: N_19  and  C_20
REMARK    9  A    between atoms: N_19  and  N_23
REMARK   10  A    between atoms: C_20  and  C_21
REMARK   11  A    between atoms: C_25  and  O_26
REMARK   12  A    between atoms: C_27  and  O_28
REMARK                            x       y       z     vdW  Elec       q    Type
REMARK                         _______ _______ _______ _____ _____    ______ ____
ROOT
ATOM      1  C   UNL     1       1.744   8.078  18.979  0.00  0.00    +0.000 C 
ATOM      2  C   UNL     1       1.901   8.074  20.520  0.00  0.00    +0.000 C 
ATOM      3  C   UNL     1       0.999   9.066  21.276  0.00  0.00    +0.000 C 
ATOM      4  C   UNL     1       0.960  10.452  20.615  0.00  0.00    +0.000 C 
ATOM      5  C   UNL     1       0.393  10.266  19.187  0.00  0.00    +0.000 C 
ATOM      6  C   UNL     1       1.378   9.434  18.339  0.00  0.00    +0.000 C 
ENDROOT
BRANCH   1  10
ATOM      7  N   UNL     1       4.252   5.760  17.326  0.00  0.00    +0.000 N 
ATOM      8  C   UNL     1       3.092   6.104  18.068  0.00  0.00    +0.000 C 
ATOM      9  O   UNL     1       2.251   5.273  18.431  0.00  0.00    +0.000 OA
ATOM     10  N   UNL     1       2.910   7.454  18.296  0.00  0.00    +0.000 N 
ATOM     11  H   UNL     1       3.735   8.037  18.267  0.00  0.00    +0.000 HD
BRANCH   7  13
ATOM     12  O   UNL     1       6.021   7.099  17.494  0.00  0.00    +0.000 OA
ATOM     13  N   UNL     1       5.031   6.815  16.817  0.00  0.00    +0.000 NA
ENDBRANCH   7  13
BRANCH   7  14
ATOM     14  C   UNL     1       4.395   4.391  16.809  0.00  0.00    +0.000 C 
BRANCH  14  15
ATOM     15  C   UNL     1       5.675   4.021  16.047  0.00  0.00    +0.000 C 
ATOM     16 CL   UNL     1       5.526   4.311  14.299  0.00  0.00    +0.000 Cl
ENDBRANCH  14  15
ENDBRANCH   7  14
ENDBRANCH   1  10
BRANCH   4  17
ATOM     17  N   UNL     1       0.130  11.372  21.401  0.00  0.00    +0.000 N 
ATOM     18  C   UNL     1       0.367  12.731  21.483  0.00  0.00    +0.000 C 
ATOM     19  O   UNL     1       1.265  13.263  20.822  0.00  0.00    +0.000 OA
ATOM     20  N   UNL     1      -0.458  13.450  22.353  0.00  0.00    +0.000 N 
ATOM     21  H   UNL     1      -0.320  10.941  22.201  0.00  0.00    +0.000 HD
BRANCH  20  22
ATOM     22  N   UNL     1      -1.380  12.746  23.146  0.00  0.00    +0.000 NA
ATOM     23  O   UNL     1      -2.379  12.345  22.545  0.00  0.00    +0.000 OA
ENDBRANCH  20  22
BRANCH  20  24
ATOM     24  C   UNL     1      -0.263  14.893  22.555  0.00  0.00    +0.000 C 
BRANCH  24  25
ATOM     25  C   UNL     1      -1.496  15.767  22.315  0.00  0.00    +0.000 C 
ATOM     26 CL   UNL     1      -2.257  15.443  20.738  0.00  0.00    +0.000 Cl
ENDBRANCH  24  25
ENDBRANCH  20  24
ENDBRANCH   4  17
BRANCH   2  27
ATOM     27  O   UNL     1       1.553   6.749  20.990  0.00  0.00    +0.000 OA
ATOM     28  H   UNL     1       2.319   6.395  21.476  0.00  0.00    +0.000 HD
ENDBRANCH   2  27
BRANCH   3  29
ATOM     29  O   UNL     1      -0.347   8.544  21.328  0.00  0.00    +0.000 OA
ATOM     30  H   UNL     1      -0.323   7.761  21.916  0.00  0.00    +0.000 HD
ENDBRANCH   3  29
BRANCH   5  31
ATOM     31  O   UNL     1       0.134  11.519  18.545  0.00  0.00    +0.000 OA
ATOM     32  H   UNL     1      -0.109  11.350  17.622  0.00  0.00    +0.000 HD
ENDBRANCH   5  31
BRANCH   6  33
ATOM     33  O   UNL     1       0.809   9.164  17.041  0.00  0.00    +0.000 OA
ATOM     34  H   UNL     1       1.538   8.972  16.420  0.00  0.00    +0.000 HD
ENDBRANCH   6  33
TORSDOF 12
ENDMDL
MODEL 9
REMARK VINA RESULT:      -5.3      4.065      9.294
REMARK  Name = 
REMARK  12 active torsions:
REMARK  status: ('A' for Active; 'I' for Inactive)
REMARK    1  A    between atoms: N_2  and  N_3
REMARK    2  A    between atoms: N_3  and  C_4
REMARK    3  A    between atoms: C_4  and  C_5
REMARK    4  A    between atoms: N_9  and  C_10
REMARK    5  A    between atoms: C_11  and  O_12
REMARK    6  A    between atoms: C_13  and  O_14
REMARK    7  A    between atoms: C_15  and  N_16
REMARK    8  A    between atoms: N_19  and  C_20
REMARK    9  A    between atoms: N_19  and  N_23
REMARK   10  A    between atoms: C_20  and  C_21
REMARK   11  A    between atoms: C_25  and  O_26
REMARK   12  A    between atoms: C_27  and  O_28
REMARK                            x       y       z     vdW  Elec       q    Type
REMARK                         _______ _______ _______ _____ _____    ______ ____
ROOT
ATOM      1  C   UNL     1       0.321  10.142  19.573  0.00  0.00    +0.000 C 
ATOM      2  C   UNL     1       0.992  11.178  20.508  0.00  0.00    +0.000 C 
ATOM      3  C   UNL     1       0.305  12.554  20.566  0.00  0.00    +0.000 C 
ATOM      4  C   UNL     1      -0.097  13.074  19.178  0.00  0.00    +0.000 C 
ATOM      5  C   UNL     1      -1.093  12.054  18.575  0.00  0.00    +0.000 C 
ATOM      6  C   UNL     1      -0.377  10.712  18.319  0.00  0.00    +0.000 C 
ENDROOT
BRANCH   1  10
ATOM      7  N   UNL     1       2.441   6.997  19.452  0.00  0.00    +0.000 N 
ATOM      8  C   UNL     1       1.607   7.981  20.044  0.00  0.00    +0.000 C 
ATOM      9  O   UNL     1       1.165   7.888  21.196  0.00  0.00    +0.000 OA
ATOM     10  N   UNL     1       1.243   9.027  19.219  0.00  0.00    +0.000 N 
ATOM     11  H   UNL     1       1.850   9.223  18.436  0.00  0.00    +0.000 HD
BRANCH   7  13
ATOM     12  O   UNL     1       3.575   7.976  17.808  0.00  0.00    +0.000 OA
ATOM     13  N   UNL     1       2.723   7.129  18.081  0.00  0.00    +0.000 NA
ENDBRANCH   7  13
BRANCH   7  14
ATOM     14  C   UNL     1       2.664   5.725  20.157  0.00  0.00    +0.000 C 
BRANCH  14  15
ATOM     15  C   UNL     1       1.578   4.643  20.084  0.00  0.00    +0.000 C 
ATOM     16 CL   UNL     1       1.402   3.973  18.446  0.00  0.00    +0.000 Cl
ENDBRANCH  14  15
ENDBRANCH   7  14
ENDBRANCH   1  10
BRANCH   4  17
ATOM     17  N   UNL     1      -0.699  14.407  19.284  0.00  0.00    +0.000 N 
ATOM     18  C   UNL     1      -0.061  15.565  18.880  0.00  0.00    +0.000 C 
ATOM     19  O   UNL     1       1.043  15.526  18.328  0.00  0.00    +0.000 OA
ATOM     20  N   UNL     1      -0.734  16.763  19.141  0.00  0.00    +0.000 N 
ATOM     21  H   UNL     1      -1.371  14.499  20.037  0.00  0.00    +0.000 HD
BRANCH  20  22
ATOM     22  N   UNL     1      -1.934  16.718  19.871  0.00  0.00    +0.000 NA
ATOM     23  O   UNL     1      -2.240  17.774  20.428  0.00  0.00    +0.000 OA
ENDBRANCH  20  22
BRANCH  20  24
ATOM     24  C   UNL     1      -0.126  18.057  18.798  0.00  0.00    +0.000 C 
BRANCH  24  25
ATOM     25  C   UNL     1      -0.467  18.601  17.409  0.00  0.00    +0.000 C 
ATOM     26 CL   UNL     1       0.894  18.444  16.271  0.00  0.00    +0.000 Cl
ENDBRANCH  24  25
ENDBRANCH  20  24
ENDBRANCH   4  17
BRANCH   2  27
ATOM     27  O   UNL     1       0.961  10.638  21.852  0.00  0.00    +0.000 OA
ATOM     28  H   UNL     1       1.685  11.052  22.355  0.00  0.00    +0.000 HD
ENDBRANCH   2  27
BRANCH   3  29
ATOM     29  O   UNL     1      -0.883  12.462  21.383  0.00  0.00    +0.000 OA
ATOM     30  H   UNL     1      -0.902  13.265  21.943  0.00  0.00    +0.000 HD
ENDBRANCH   3  29
BRANCH   5  31
ATOM     31  O   UNL     1      -1.681  12.532  17.360  0.00  0.00    +0.000 OA
ATOM     32  H   UNL     1      -1.552  13.491  17.309  0.00  0.00    +0.000 HD
ENDBRANCH   5  31
BRANCH   6  33
ATOM     33  O   UNL     1      -1.322   9.724  17.859  0.00  0.00    +0.000 OA
ATOM     34  H   UNL     1      -0.839   9.056  17.335  0.00  0.00    +0.000 HD
ENDBRANCH   6  33
TORSDOF 12
ENDMDL
