MODEL 1
REMARK VINA RESULT:      -8.4      0.000      0.000
REMARK  Name = 
REMARK  9 active torsions:
REMARK  status: ('A' for Active; 'I' for Inactive)
REMARK    1  A    between atoms: C_1  and  O_2
REMARK    2  A    between atoms: O_2  and  C_3
REMARK    3  A    between atoms: C_6  and  C_7
REMARK    4  A    between atoms: C_8  and  C_9
REMARK    5  A    between atoms: N_11  and  C_12
REMARK    6  A    between atoms: C_21  and  C_22
REMARK    7  A    between atoms: C_26  and  C_27
REMARK    8  A    between atoms: C_31  and  O_32
REMARK    9  A    between atoms: O_32  and  C_33
REMARK                            x       y       z     vdW  Elec       q    Type
REMARK                         _______ _______ _______ _____ _____    ______ ____
ROOT
ATOM      1  C   UNL     1       1.130   9.123  21.304  0.00  0.00    +0.000 A 
ATOM      2  C   UNL     1       0.432   8.868  22.479  0.00  0.00    +0.000 A 
ATOM      3  C   UNL     1      -0.392   9.841  23.046  0.00  0.00    +0.000 A 
ATOM      4  C   UNL     1      -0.524  11.096  22.486  0.00  0.00    +0.000 A 
ATOM      5  N   UNL     1      -1.431  11.923  23.021  0.00  0.00    +0.000 NA
ATOM      6  C   UNL     1      -1.554  13.142  22.478  0.00  0.00    +0.000 A 
ATOM      7  N   UNL     1      -2.818  13.621  22.212  0.00  0.00    +0.000 N 
ATOM      8  C   UNL     1      -3.031  14.983  21.760  0.00  0.00    +0.000 C 
ATOM      9  C   UNL     1      -4.378  15.437  22.317  0.00  0.00    +0.000 C 
ATOM     10  C   UNL     1      -5.521  14.397  22.232  0.00  0.00    +0.000 C 
ATOM     11  C   UNL     1      -6.546  14.699  23.328  0.00  0.00    +0.000 C 
ATOM     12  C   UNL     1      -5.087  12.923  22.354  0.00  0.00    +0.000 C 
ATOM     13  C   UNL     1      -3.767  12.658  21.658  0.00  0.00    +0.000 C 
ATOM     14  C   UNL     1      -0.460  13.673  21.850  0.00  0.00    +0.000 A 
ATOM     15  C   UNL     1       0.006  12.778  20.893  0.00  0.00    +0.000 A 
ATOM     16  C   UNL     1      -0.413  13.164  19.491  0.00  0.00    +0.000 C 
ATOM     17  C   UNL     1       0.190  11.427  21.319  0.00  0.00    +0.000 A 
ATOM     18  C   UNL     1       0.986  10.401  20.708  0.00  0.00    +0.000 A 
ENDROOT
BRANCH   1  21
ATOM     19  C   UNL     1       1.690   6.817  20.476  0.00  0.00    +0.000 C 
ATOM     20  O   UNL     1       0.673   6.211  20.805  0.00  0.00    +0.000 OA
ATOM     21  N   UNL     1       1.972   8.153  20.692  0.00  0.00    +0.000 N 
ATOM     22  H   UNL     1       2.873   8.491  20.389  0.00  0.00    +0.000 HD
BRANCH  19  24
ATOM     23  C   UNL     1       3.242   6.559  18.574  0.00  0.00    +0.000 C 
ATOM     24  C   UNL     1       2.773   6.097  19.743  0.00  0.00    +0.000 C 
BRANCH  23  28
ATOM     25  C   UNL     1       6.362   4.982  16.032  0.00  0.00    +0.000 A 
ATOM     26  C   UNL     1       5.179   4.264  16.270  0.00  0.00    +0.000 A 
ATOM     27  C   UNL     1       4.181   4.770  17.117  0.00  0.00    +0.000 A 
ATOM     28  C   UNL     1       4.358   5.984  17.789  0.00  0.00    +0.000 A 
ATOM     29  C   UNL     1       5.566   6.663  17.593  0.00  0.00    +0.000 A 
ATOM     30  C   UNL     1       6.572   6.176  16.735  0.00  0.00    +0.000 A 
BRANCH  25  32
ATOM     31  C   UNL     1       7.122   4.857  13.784  0.00  0.00    +0.000 C 
ATOM     32  O   UNL     1       7.312   4.523  15.158  0.00  0.00    +0.000 OA
ENDBRANCH  25  32
BRANCH  30  33
ATOM     33  O   UNL     1       7.657   7.014  16.697  0.00  0.00    +0.000 OA
ATOM     34  C   UNL     1       7.730   8.105  17.602  0.00  0.00    +0.000 C 
ENDBRANCH  30  33
ENDBRANCH  23  28
ENDBRANCH  19  24
ENDBRANCH   1  21
TORSDOF 5
ENDMDL
MODEL 2
REMARK VINA RESULT:      -8.4      1.455      1.659
REMARK  Name = 
REMARK  9 active torsions:
REMARK  status: ('A' for Active; 'I' for Inactive)
REMARK    1  A    between atoms: C_1  and  O_2
REMARK    2  A    between atoms: O_2  and  C_3
REMARK    3  A    between atoms: C_6  and  C_7
REMARK    4  A    between atoms: C_8  and  C_9
REMARK    5  A    between atoms: N_11  and  C_12
REMARK    6  A    between atoms: C_21  and  C_22
REMARK    7  A    between atoms: C_26  and  C_27
REMARK    8  A    between atoms: C_31  and  O_32
REMARK    9  A    between atoms: O_32  and  C_33
REMARK                            x       y       z     vdW  Elec       q    Type
REMARK                         _______ _______ _______ _____ _____    ______ ____
ROOT
ATOM      1  C   UNL     1       0.695  10.353  20.692  0.00  0.00    +0.000 A 
ATOM      2  C   UNL     1      -0.158   9.796  21.638  0.00  0.00    +0.000 A 
ATOM      3  C   UNL     1      -0.934  10.608  22.466  0.00  0.00    +0.000 A 
ATOM      4  C   UNL     1      -0.866  11.986  22.401  0.00  0.00    +0.000 A 
ATOM      5  N   UNL     1      -1.736  12.687  23.138  0.00  0.00    +0.000 NA
ATOM      6  C   UNL     1      -1.665  14.024  23.076  0.00  0.00    +0.000 A 
ATOM      7  N   UNL     1      -2.832  14.740  22.919  0.00  0.00    +0.000 N 
ATOM      8  C   UNL     1      -2.844  16.189  22.987  0.00  0.00    +0.000 C 
ATOM      9  C   UNL     1      -4.191  16.600  23.579  0.00  0.00    +0.000 C 
ATOM     10  C   UNL     1      -5.421  15.831  23.037  0.00  0.00    +0.000 C 
ATOM     11  C   UNL     1      -6.528  15.864  24.093  0.00  0.00    +0.000 C 
ATOM     12  C   UNL     1      -5.163  14.365  22.636  0.00  0.00    +0.000 C 
ATOM     13  C   UNL     1      -3.806  14.182  21.985  0.00  0.00    +0.000 C 
ATOM     14  C   UNL     1      -0.455  14.584  22.765  0.00  0.00    +0.000 A 
ATOM     15  C   UNL     1       0.021  14.033  21.581  0.00  0.00    +0.000 A 
ATOM     16  C   UNL     1      -0.190  14.949  20.394  0.00  0.00    +0.000 C 
ATOM     17  C   UNL     1       0.009  12.607  21.490  0.00  0.00    +0.000 A 
ATOM     18  C   UNL     1       0.757  11.765  20.600  0.00  0.00    +0.000 A 
ENDROOT
BRANCH   1  21
ATOM     19  C   UNL     1       1.276   9.304  18.483  0.00  0.00    +0.000 C 
ATOM     20  O   UNL     1       0.332   9.692  17.799  0.00  0.00    +0.000 OA
ATOM     21  N   UNL     1       1.494   9.557  19.825  0.00  0.00    +0.000 N 
ATOM     22  H   UNL     1       2.305   9.133  20.249  0.00  0.00    +0.000 HD
BRANCH  19  24
ATOM     23  C   UNL     1       2.709   7.297  18.375  0.00  0.00    +0.000 C 
ATOM     24  C   UNL     1       2.352   8.480  17.855  0.00  0.00    +0.000 C 
BRANCH  23  28
ATOM     25  C   UNL     1       5.478   4.590  16.455  0.00  0.00    +0.000 A 
ATOM     26  C   UNL     1       4.202   4.166  16.858  0.00  0.00    +0.000 A 
ATOM     27  C   UNL     1       3.317   5.044  17.504  0.00  0.00    +0.000 A 
ATOM     28  C   UNL     1       3.701   6.354  17.810  0.00  0.00    +0.000 A 
ATOM     29  C   UNL     1       4.997   6.748  17.460  0.00  0.00    +0.000 A 
ATOM     30  C   UNL     1       5.893   5.884  16.798  0.00  0.00    +0.000 A 
BRANCH  25  32
ATOM     31  C   UNL     1       6.266   3.833  14.345  0.00  0.00    +0.000 C 
ATOM     32  O   UNL     1       6.323   3.758  15.769  0.00  0.00    +0.000 OA
ENDBRANCH  25  32
BRANCH  30  33
ATOM     33  O   UNL     1       7.096   6.494  16.550  0.00  0.00    +0.000 OA
ATOM     34  C   UNL     1       7.530   7.552  17.391  0.00  0.00    +0.000 C 
ENDBRANCH  30  33
ENDBRANCH  23  28
ENDBRANCH  19  24
ENDBRANCH   1  21
TORSDOF 5
ENDMDL
MODEL 3
REMARK VINA RESULT:      -8.2      1.564      1.768
REMARK  Name = 
REMARK  9 active torsions:
REMARK  status: ('A' for Active; 'I' for Inactive)
REMARK    1  A    between atoms: C_1  and  O_2
REMARK    2  A    between atoms: O_2  and  C_3
REMARK    3  A    between atoms: C_6  and  C_7
REMARK    4  A    between atoms: C_8  and  C_9
REMARK    5  A    between atoms: N_11  and  C_12
REMARK    6  A    between atoms: C_21  and  C_22
REMARK    7  A    between atoms: C_26  and  C_27
REMARK    8  A    between atoms: C_31  and  O_32
REMARK    9  A    between atoms: O_32  and  C_33
REMARK                            x       y       z     vdW  Elec       q    Type
REMARK                         _______ _______ _______ _____ _____    ______ ____
ROOT
ATOM      1  C   UNL     1       0.651  10.062  20.781  0.00  0.00    +0.000 A 
ATOM      2  C   UNL     1      -0.045   9.345  21.748  0.00  0.00    +0.000 A 
ATOM      3  C   UNL     1      -0.946   9.983  22.600  0.00  0.00    +0.000 A 
ATOM      4  C   UNL     1      -1.160  11.346  22.541  0.00  0.00    +0.000 A 
ATOM      5  N   UNL     1      -2.133  11.857  23.306  0.00  0.00    +0.000 NA
ATOM      6  C   UNL     1      -2.335  13.181  23.249  0.00  0.00    +0.000 A 
ATOM      7  N   UNL     1      -3.626  13.647  23.127  0.00  0.00    +0.000 N 
ATOM      8  C   UNL     1      -3.929  15.062  23.204  0.00  0.00    +0.000 C 
ATOM      9  C   UNL     1      -5.314  15.193  23.834  0.00  0.00    +0.000 C 
ATOM     10  C   UNL     1      -6.378  14.191  23.321  0.00  0.00    +0.000 C 
ATOM     11  C   UNL     1      -7.439  14.000  24.408  0.00  0.00    +0.000 C 
ATOM     12  C   UNL     1      -5.840  12.808  22.906  0.00  0.00    +0.000 C 
ATOM     13  C   UNL     1      -4.494  12.903  22.217  0.00  0.00    +0.000 C 
ATOM     14  C   UNL     1      -1.272  13.974  22.909  0.00  0.00    +0.000 A 
ATOM     15  C   UNL     1      -0.728  13.530  21.708  0.00  0.00    +0.000 A 
ATOM     16  C   UNL     1      -1.152  14.385  20.533  0.00  0.00    +0.000 C 
ATOM     17  C   UNL     1      -0.454  12.131  21.610  0.00  0.00    +0.000 A 
ATOM     18  C   UNL     1       0.424  11.458  20.695  0.00  0.00    +0.000 A 
ENDROOT
BRANCH   1  21
ATOM     19  C   UNL     1       1.400   9.219  18.535  0.00  0.00    +0.000 C 
ATOM     20  O   UNL     1       0.408   9.482  17.858  0.00  0.00    +0.000 OA
ATOM     21  N   UNL     1       1.570   9.443  19.888  0.00  0.00    +0.000 N 
ATOM     22  H   UNL     1       2.437   9.136  20.303  0.00  0.00    +0.000 HD
BRANCH  19  24
ATOM     23  C   UNL     1       2.981   7.358  18.180  0.00  0.00    +0.000 C 
ATOM     24  C   UNL     1       2.596   8.608  17.883  0.00  0.00    +0.000 C 
BRANCH  23  28
ATOM     25  C   UNL     1       6.384   5.442  16.328  0.00  0.00    +0.000 A 
ATOM     26  C   UNL     1       5.391   6.068  15.560  0.00  0.00    +0.000 A 
ATOM     27  C   UNL     1       4.275   6.667  16.167  0.00  0.00    +0.000 A 
ATOM     28  C   UNL     1       4.096   6.612  17.553  0.00  0.00    +0.000 A 
ATOM     29  C   UNL     1       5.061   5.931  18.305  0.00  0.00    +0.000 A 
ATOM     30  C   UNL     1       6.194   5.338  17.713  0.00  0.00    +0.000 A 
BRANCH  25  32
ATOM     31  C   UNL     1       7.492   4.804  14.325  0.00  0.00    +0.000 C 
ATOM     32  O   UNL     1       7.507   4.911  15.748  0.00  0.00    +0.000 OA
ENDBRANCH  25  32
BRANCH  30  33
ATOM     33  O   UNL     1       7.001   4.740  18.648  0.00  0.00    +0.000 OA
ATOM     34  C   UNL     1       7.820   5.544  19.482  0.00  0.00    +0.000 C 
ENDBRANCH  30  33
ENDBRANCH  23  28
ENDBRANCH  19  24
ENDBRANCH   1  21
TORSDOF 5
ENDMDL
MODEL 4
REMARK VINA RESULT:      -8.1      1.760      2.611
REMARK  Name = 
REMARK  9 active torsions:
REMARK  status: ('A' for Active; 'I' for Inactive)
REMARK    1  A    between atoms: C_1  and  O_2
REMARK    2  A    between atoms: O_2  and  C_3
REMARK    3  A    between atoms: C_6  and  C_7
REMARK    4  A    between atoms: C_8  and  C_9
REMARK    5  A    between atoms: N_11  and  C_12
REMARK    6  A    between atoms: C_21  and  C_22
REMARK    7  A    between atoms: C_26  and  C_27
REMARK    8  A    between atoms: C_31  and  O_32
REMARK    9  A    between atoms: O_32  and  C_33
REMARK                            x       y       z     vdW  Elec       q    Type
REMARK                         _______ _______ _______ _____ _____    ______ ____
ROOT
ATOM      1  C   UNL     1      -0.383  10.549  18.789  0.00  0.00    +0.000 A 
ATOM      2  C   UNL     1      -1.447  10.888  17.961  0.00  0.00    +0.000 A 
ATOM      3  C   UNL     1      -2.507  11.660  18.440  0.00  0.00    +0.000 A 
ATOM      4  C   UNL     1      -2.557  12.089  19.752  0.00  0.00    +0.000 A 
ATOM      5  N   UNL     1      -3.541  12.930  20.094  0.00  0.00    +0.000 NA
ATOM      6  C   UNL     1      -3.590  13.342  21.368  0.00  0.00    +0.000 A 
ATOM      7  N   UNL     1      -3.779  14.682  21.622  0.00  0.00    +0.000 N 
ATOM      8  C   UNL     1      -3.984  15.175  22.970  0.00  0.00    +0.000 C 
ATOM      9  C   UNL     1      -4.913  16.384  22.872  0.00  0.00    +0.000 C 
ATOM     10  C   UNL     1      -4.606  17.368  21.716  0.00  0.00    +0.000 C 
ATOM     11  C   UNL     1      -5.892  18.113  21.348  0.00  0.00    +0.000 C 
ATOM     12  C   UNL     1      -4.021  16.732  20.440  0.00  0.00    +0.000 C 
ATOM     13  C   UNL     1      -3.053  15.609  20.756  0.00  0.00    +0.000 C 
ATOM     14  C   UNL     1      -3.056  12.519  22.324  0.00  0.00    +0.000 A 
ATOM     15  C   UNL     1      -1.746  12.200  21.984  0.00  0.00    +0.000 A 
ATOM     16  C   UNL     1      -0.734  13.007  22.768  0.00  0.00    +0.000 C 
ATOM     17  C   UNL     1      -1.528  11.743  20.648  0.00  0.00    +0.000 A 
ATOM     18  C   UNL     1      -0.411  11.003  20.131  0.00  0.00    +0.000 A 
ENDROOT
BRANCH   1  21
ATOM     19  C   UNL     1       1.435   8.833  19.052  0.00  0.00    +0.000 C 
ATOM     20  O   UNL     1       1.274   8.520  20.230  0.00  0.00    +0.000 OA
ATOM     21  N   UNL     1       0.719   9.773  18.333  0.00  0.00    +0.000 N 
ATOM     22  H   UNL     1       1.001   9.938  17.379  0.00  0.00    +0.000 HD
BRANCH  19  24
ATOM     23  C   UNL     1       2.986   6.963  18.620  0.00  0.00    +0.000 C 
ATOM     24  C   UNL     1       2.489   8.150  18.244  0.00  0.00    +0.000 C 
BRANCH  23  28
ATOM     25  C   UNL     1       5.727   4.672  16.186  0.00  0.00    +0.000 A 
ATOM     26  C   UNL     1       4.481   4.153  16.571  0.00  0.00    +0.000 A 
ATOM     27  C   UNL     1       3.607   4.892  17.383  0.00  0.00    +0.000 A 
ATOM     28  C   UNL     1       3.973   6.150  17.873  0.00  0.00    +0.000 A 
ATOM     29  C   UNL     1       5.242   6.633  17.534  0.00  0.00    +0.000 A 
ATOM     30  C   UNL     1       6.126   5.910  16.708  0.00  0.00    +0.000 A 
BRANCH  25  32
ATOM     31  C   UNL     1       6.258   4.066  13.950  0.00  0.00    +0.000 C 
ATOM     32  O   UNL     1       6.559   3.983  15.343  0.00  0.00    +0.000 OA
ENDBRANCH  25  32
BRANCH  30  33
ATOM     33  O   UNL     1       7.302   6.587  16.508  0.00  0.00    +0.000 OA
ATOM     34  C   UNL     1       7.715   7.565  17.451  0.00  0.00    +0.000 C 
ENDBRANCH  30  33
ENDBRANCH  23  28
ENDBRANCH  19  24
ENDBRANCH   1  21
TORSDOF 5
ENDMDL
MODEL 5
REMARK VINA RESULT:      -7.9      2.360      3.739
REMARK  Name = 
REMARK  9 active torsions:
REMARK  status: ('A' for Active; 'I' for Inactive)
REMARK    1  A    between atoms: C_1  and  O_2
REMARK    2  A    between atoms: O_2  and  C_3
REMARK    3  A    between atoms: C_6  and  C_7
REMARK    4  A    between atoms: C_8  and  C_9
REMARK    5  A    between atoms: N_11  and  C_12
REMARK    6  A    between atoms: C_21  and  C_22
REMARK    7  A    between atoms: C_26  and  C_27
REMARK    8  A    between atoms: C_31  and  O_32
REMARK    9  A    between atoms: O_32  and  C_33
REMARK                            x       y       z     vdW  Elec       q    Type
REMARK                         _______ _______ _______ _____ _____    ______ ____
ROOT
ATOM      1  C   UNL     1      -1.132  10.940  19.067  0.00  0.00    +0.000 A 
ATOM      2  C   UNL     1      -2.262  11.280  18.332  0.00  0.00    +0.000 A 
ATOM      3  C   UNL     1      -3.295  12.018  18.910  0.00  0.00    +0.000 A 
ATOM      4  C   UNL     1      -3.251  12.414  20.233  0.00  0.00    +0.000 A 
ATOM      5  N   UNL     1      -4.221  13.227  20.671  0.00  0.00    +0.000 NA
ATOM      6  C   UNL     1      -4.179  13.606  21.955  0.00  0.00    +0.000 A 
ATOM      7  N   UNL     1      -4.372  14.937  22.257  0.00  0.00    +0.000 N 
ATOM      8  C   UNL     1      -4.481  15.392  23.630  0.00  0.00    +0.000 C 
ATOM      9  C   UNL     1      -5.434  16.584  23.634  0.00  0.00    +0.000 C 
ATOM     10  C   UNL     1      -5.234  17.603  22.485  0.00  0.00    +0.000 C 
ATOM     11  C   UNL     1      -6.557  18.332  22.236  0.00  0.00    +0.000 C 
ATOM     12  C   UNL     1      -4.738  17.010  21.152  0.00  0.00    +0.000 C 
ATOM     13  C   UNL     1      -3.730  15.898  21.363  0.00  0.00    +0.000 C 
ATOM     14  C   UNL     1      -3.560  12.771  22.846  0.00  0.00    +0.000 A 
ATOM     15  C   UNL     1      -2.274  12.485  22.398  0.00  0.00    +0.000 A 
ATOM     16  C   UNL     1      -1.219  13.292  23.124  0.00  0.00    +0.000 C 
ATOM     17  C   UNL     1      -2.151  12.065  21.038  0.00  0.00    +0.000 A 
ATOM     18  C   UNL     1      -1.065  11.360  20.419  0.00  0.00    +0.000 A 
ENDROOT
BRANCH   1  21
ATOM     19  C   UNL     1       1.278  10.559  18.463  0.00  0.00    +0.000 C 
ATOM     20  O   UNL     1       1.776  11.609  18.867  0.00  0.00    +0.000 OA
ATOM     21  N   UNL     1      -0.055  10.197  18.508  0.00  0.00    +0.000 N 
ATOM     22  H   UNL     1      -0.306   9.309  18.101  0.00  0.00    +0.000 HD
BRANCH  19  24
ATOM     23  C   UNL     1       2.168   8.260  18.352  0.00  0.00    +0.000 C 
ATOM     24  C   UNL     1       2.156   9.510  17.865  0.00  0.00    +0.000 C 
BRANCH  23  28
ATOM     25  C   UNL     1       4.577   4.937  16.996  0.00  0.00    +0.000 A 
ATOM     26  C   UNL     1       4.946   6.265  16.730  0.00  0.00    +0.000 A 
ATOM     27  C   UNL     1       4.146   7.338  17.151  0.00  0.00    +0.000 A 
ATOM     28  C   UNL     1       2.931   7.114  17.805  0.00  0.00    +0.000 A 
ATOM     29  C   UNL     1       2.540   5.786  18.011  0.00  0.00    +0.000 A 
ATOM     30  C   UNL     1       3.339   4.697  17.608  0.00  0.00    +0.000 A 
BRANCH  25  32
ATOM     31  C   UNL     1       6.699   4.220  16.201  0.00  0.00    +0.000 C 
ATOM     32  O   UNL     1       5.383   3.887  16.643  0.00  0.00    +0.000 OA
ENDBRANCH  25  32
BRANCH  30  33
ATOM     33  O   UNL     1       2.756   3.496  17.924  0.00  0.00    +0.000 OA
ATOM     34  C   UNL     1       1.467   3.479  18.517  0.00  0.00    +0.000 C 
ENDBRANCH  30  33
ENDBRANCH  23  28
ENDBRANCH  19  24
ENDBRANCH   1  21
TORSDOF 5
ENDMDL
MODEL 6
REMARK VINA RESULT:      -7.8      2.084      2.920
REMARK  Name = 
REMARK  9 active torsions:
REMARK  status: ('A' for Active; 'I' for Inactive)
REMARK    1  A    between atoms: C_1  and  O_2
REMARK    2  A    between atoms: O_2  and  C_3
REMARK    3  A    between atoms: C_6  and  C_7
REMARK    4  A    between atoms: C_8  and  C_9
REMARK    5  A    between atoms: N_11  and  C_12
REMARK    6  A    between atoms: C_21  and  C_22
REMARK    7  A    between atoms: C_26  and  C_27
REMARK    8  A    between atoms: C_31  and  O_32
REMARK    9  A    between atoms: O_32  and  C_33
REMARK                            x       y       z     vdW  Elec       q    Type
REMARK                         _______ _______ _______ _____ _____    ______ ____
ROOT
ATOM      1  C   UNL     1       0.569  10.952  20.713  0.00  0.00    +0.000 A 
ATOM      2  C   UNL     1      -0.291  10.493  21.704  0.00  0.00    +0.000 A 
ATOM      3  C   UNL     1      -0.915  11.384  22.577  0.00  0.00    +0.000 A 
ATOM      4  C   UNL     1      -0.684  12.744  22.514  0.00  0.00    +0.000 A 
ATOM      5  N   UNL     1      -1.420  13.538  23.303  0.00  0.00    +0.000 NA
ATOM      6  C   UNL     1      -1.191  14.857  23.242  0.00  0.00    +0.000 A 
ATOM      7  N   UNL     1      -2.269  15.711  23.153  0.00  0.00    +0.000 N 
ATOM      8  C   UNL     1      -2.101  17.149  23.228  0.00  0.00    +0.000 C 
ATOM      9  C   UNL     1      -3.353  17.714  23.897  0.00  0.00    +0.000 C 
ATOM     10  C   UNL     1      -4.695  17.105  23.422  0.00  0.00    +0.000 C 
ATOM     11  C   UNL     1      -5.730  17.261  24.540  0.00  0.00    +0.000 C 
ATOM     12  C   UNL     1      -4.640  15.623  23.002  0.00  0.00    +0.000 C 
ATOM     13  C   UNL     1      -3.355  15.285  22.274  0.00  0.00    +0.000 C 
ATOM     14  C   UNL     1       0.059  15.269  22.865  0.00  0.00    +0.000 A 
ATOM     15  C   UNL     1       0.398  14.678  21.653  0.00  0.00    +0.000 A 
ATOM     16  C   UNL     1       0.234  15.625  20.484  0.00  0.00    +0.000 C 
ATOM     17  C   UNL     1       0.208  13.265  21.558  0.00  0.00    +0.000 A 
ATOM     18  C   UNL     1       0.797  12.348  20.623  0.00  0.00    +0.000 A 
ENDROOT
BRANCH   1  21
ATOM     19  C   UNL     1       0.759   9.674  18.557  0.00  0.00    +0.000 C 
ATOM     20  O   UNL     1      -0.309   9.975  18.028  0.00  0.00    +0.000 OA
ATOM     21  N   UNL     1       1.216  10.075  19.799  0.00  0.00    +0.000 N 
ATOM     22  H   UNL     1       2.105   9.709  20.105  0.00  0.00    +0.000 HD
BRANCH  19  24
ATOM     23  C   UNL     1       2.324   7.770  18.443  0.00  0.00    +0.000 C 
ATOM     24  C   UNL     1       1.723   8.799  17.828  0.00  0.00    +0.000 C 
BRANCH  23  28
ATOM     25  C   UNL     1       5.176   4.941  16.847  0.00  0.00    +0.000 A 
ATOM     26  C   UNL     1       5.310   6.320  16.622  0.00  0.00    +0.000 A 
ATOM     27  C   UNL     1       4.366   7.231  17.122  0.00  0.00    +0.000 A 
ATOM     28  C   UNL     1       3.237   6.786  17.817  0.00  0.00    +0.000 A 
ATOM     29  C   UNL     1       3.080   5.405  17.983  0.00  0.00    +0.000 A 
ATOM     30  C   UNL     1       4.026   4.478  17.500  0.00  0.00    +0.000 A 
BRANCH  25  32
ATOM     31  C   UNL     1       6.198   3.837  15.007  0.00  0.00    +0.000 C 
ATOM     32  O   UNL     1       6.126   4.052  16.416  0.00  0.00    +0.000 OA
ENDBRANCH  25  32
BRANCH  30  33
ATOM     33  O   UNL     1       3.664   3.186  17.790  0.00  0.00    +0.000 OA
ATOM     34  C   UNL     1       2.304   2.798  17.672  0.00  0.00    +0.000 C 
ENDBRANCH  30  33
ENDBRANCH  23  28
ENDBRANCH  19  24
ENDBRANCH   1  21
TORSDOF 5
ENDMDL
MODEL 7
REMARK VINA RESULT:      -7.8      2.197      3.095
REMARK  Name = 
REMARK  9 active torsions:
REMARK  status: ('A' for Active; 'I' for Inactive)
REMARK    1  A    between atoms: C_1  and  O_2
REMARK    2  A    between atoms: O_2  and  C_3
REMARK    3  A    between atoms: C_6  and  C_7
REMARK    4  A    between atoms: C_8  and  C_9
REMARK    5  A    between atoms: N_11  and  C_12
REMARK    6  A    between atoms: C_21  and  C_22
REMARK    7  A    between atoms: C_26  and  C_27
REMARK    8  A    between atoms: C_31  and  O_32
REMARK    9  A    between atoms: O_32  and  C_33
REMARK                            x       y       z     vdW  Elec       q    Type
REMARK                         _______ _______ _______ _____ _____    ______ ____
ROOT
ATOM      1  C   UNL     1      -0.776  10.700  19.041  0.00  0.00    +0.000 A 
ATOM      2  C   UNL     1      -1.865  10.990  18.227  0.00  0.00    +0.000 A 
ATOM      3  C   UNL     1      -2.944  11.728  18.714  0.00  0.00    +0.000 A 
ATOM      4  C   UNL     1      -2.990  12.171  20.021  0.00  0.00    +0.000 A 
ATOM      5  N   UNL     1      -3.999  12.980  20.369  0.00  0.00    +0.000 NA
ATOM      6  C   UNL     1      -4.043  13.405  21.639  0.00  0.00    +0.000 A 
ATOM      7  N   UNL     1      -4.277  14.741  21.880  0.00  0.00    +0.000 N 
ATOM      8  C   UNL     1      -4.479  15.243  23.225  0.00  0.00    +0.000 C 
ATOM      9  C   UNL     1      -5.452  16.416  23.128  0.00  0.00    +0.000 C 
ATOM     10  C   UNL     1      -5.200  17.396  21.956  0.00  0.00    +0.000 C 
ATOM     11  C   UNL     1      -6.518  18.089  21.600  0.00  0.00    +0.000 C 
ATOM     12  C   UNL     1      -4.612  16.766  20.678  0.00  0.00    +0.000 C 
ATOM     13  C   UNL     1      -3.599  15.683  20.991  0.00  0.00    +0.000 C 
ATOM     14  C   UNL     1      -3.464  12.615  22.596  0.00  0.00    +0.000 A 
ATOM     15  C   UNL     1      -2.149  12.340  22.238  0.00  0.00    +0.000 A 
ATOM     16  C   UNL     1      -1.155  13.193  22.997  0.00  0.00    +0.000 C 
ATOM     17  C   UNL     1      -1.935  11.874  20.904  0.00  0.00    +0.000 A 
ATOM     18  C   UNL     1      -0.800  11.169  20.378  0.00  0.00    +0.000 A 
ENDROOT
BRANCH   1  21
ATOM     19  C   UNL     1       1.606  10.445  18.280  0.00  0.00    +0.000 C 
ATOM     20  O   UNL     1       1.980  11.615  18.329  0.00  0.00    +0.000 OA
ATOM     21  N   UNL     1       0.346   9.959  18.577  0.00  0.00    +0.000 N 
ATOM     22  H   UNL     1       0.191   8.970  18.453  0.00  0.00    +0.000 HD
BRANCH  19  24
ATOM     23  C   UNL     1       2.406   8.110  18.287  0.00  0.00    +0.000 C 
ATOM     24  C   UNL     1       2.572   9.378  17.883  0.00  0.00    +0.000 C 
BRANCH  23  28
ATOM     25  C   UNL     1       4.715   4.731  16.898  0.00  0.00    +0.000 A 
ATOM     26  C   UNL     1       3.422   4.569  17.419  0.00  0.00    +0.000 A 
ATOM     27  C   UNL     1       2.688   5.667  17.892  0.00  0.00    +0.000 A 
ATOM     28  C   UNL     1       3.243   6.951  17.904  0.00  0.00    +0.000 A 
ATOM     29  C   UNL     1       4.556   7.094  17.440  0.00  0.00    +0.000 A 
ATOM     30  C   UNL     1       5.302   6.004  16.947  0.00  0.00    +0.000 A 
BRANCH  25  32
ATOM     31  C   UNL     1       5.812   3.790  15.011  0.00  0.00    +0.000 C 
ATOM     32  O   UNL     1       5.414   3.674  16.377  0.00  0.00    +0.000 OA
ENDBRANCH  25  32
BRANCH  30  33
ATOM     33  O   UNL     1       6.555   6.388  16.541  0.00  0.00    +0.000 OA
ATOM     34  C   UNL     1       7.359   7.174  17.406  0.00  0.00    +0.000 C 
ENDBRANCH  30  33
ENDBRANCH  23  28
ENDBRANCH  19  24
ENDBRANCH   1  21
TORSDOF 5
ENDMDL
MODEL 8
REMARK VINA RESULT:      -7.7      1.195      1.426
REMARK  Name = 
REMARK  9 active torsions:
REMARK  status: ('A' for Active; 'I' for Inactive)
REMARK    1  A    between atoms: C_1  and  O_2
REMARK    2  A    between atoms: O_2  and  C_3
REMARK    3  A    between atoms: C_6  and  C_7
REMARK    4  A    between atoms: C_8  and  C_9
REMARK    5  A    between atoms: N_11  and  C_12
REMARK    6  A    between atoms: C_21  and  C_22
REMARK    7  A    between atoms: C_26  and  C_27
REMARK    8  A    between atoms: C_31  and  O_32
REMARK    9  A    between atoms: O_32  and  C_33
REMARK                            x       y       z     vdW  Elec       q    Type
REMARK                         _______ _______ _______ _____ _____    ______ ____
ROOT
ATOM      1  C   UNL     1       0.727   9.742  20.425  0.00  0.00    +0.000 A 
ATOM      2  C   UNL     1       0.819  10.257  21.713  0.00  0.00    +0.000 A 
ATOM      3  C   UNL     1       0.015  11.324  22.115  0.00  0.00    +0.000 A 
ATOM      4  C   UNL     1      -0.876  11.927  21.249  0.00  0.00    +0.000 A 
ATOM      5  N   UNL     1      -1.698  12.857  21.750  0.00  0.00    +0.000 NA
ATOM      6  C   UNL     1      -2.559  13.444  20.907  0.00  0.00    +0.000 A 
ATOM      7  N   UNL     1      -3.874  13.578  21.294  0.00  0.00    +0.000 N 
ATOM      8  C   UNL     1      -4.825  14.327  20.495  0.00  0.00    +0.000 C 
ATOM      9  C   UNL     1      -5.823  14.963  21.460  0.00  0.00    +0.000 C 
ATOM     10  C   UNL     1      -6.315  14.048  22.609  0.00  0.00    +0.000 C 
ATOM     11  C   UNL     1      -6.753  14.926  23.785  0.00  0.00    +0.000 C 
ATOM     12  C   UNL     1      -5.292  13.014  23.118  0.00  0.00    +0.000 C 
ATOM     13  C   UNL     1      -4.458  12.435  21.993  0.00  0.00    +0.000 C 
ATOM     14  C   UNL     1      -2.210  13.509  19.585  0.00  0.00    +0.000 A 
ATOM     15  C   UNL     1      -1.896  12.235  19.124  0.00  0.00    +0.000 A 
ATOM     16  C   UNL     1      -3.023  11.618  18.323  0.00  0.00    +0.000 C 
ATOM     17  C   UNL     1      -0.984  11.475  19.920  0.00  0.00    +0.000 A 
ATOM     18  C   UNL     1      -0.199  10.337  19.534  0.00  0.00    +0.000 A 
ENDROOT
BRANCH   1  21
ATOM     19  C   UNL     1       1.489   7.346  20.447  0.00  0.00    +0.000 C 
ATOM     20  O   UNL     1       0.788   6.900  21.352  0.00  0.00    +0.000 OA
ATOM     21  N   UNL     1       1.524   8.649  19.984  0.00  0.00    +0.000 N 
ATOM     22  H   UNL     1       2.185   8.862  19.252  0.00  0.00    +0.000 HD
BRANCH  19  24
ATOM     23  C   UNL     1       3.052   6.841  18.605  0.00  0.00    +0.000 C 
ATOM     24  C   UNL     1       2.415   6.434  19.713  0.00  0.00    +0.000 C 
BRANCH  23  28
ATOM     25  C   UNL     1       5.818   4.667  16.094  0.00  0.00    +0.000 A 
ATOM     26  C   UNL     1       4.579   4.120  16.461  0.00  0.00    +0.000 A 
ATOM     27  C   UNL     1       3.696   4.821  17.297  0.00  0.00    +0.000 A 
ATOM     28  C   UNL     1       4.048   6.065  17.831  0.00  0.00    +0.000 A 
ATOM     29  C   UNL     1       5.311   6.575  17.509  0.00  0.00    +0.000 A 
ATOM     30  C   UNL     1       6.203   5.891  16.659  0.00  0.00    +0.000 A 
BRANCH  25  32
ATOM     31  C   UNL     1       6.258   3.992  13.858  0.00  0.00    +0.000 C 
ATOM     32  O   UNL     1       6.658   4.017  15.229  0.00  0.00    +0.000 OA
ENDBRANCH  25  32
BRANCH  30  33
ATOM     33  O   UNL     1       7.372   6.588  16.482  0.00  0.00    +0.000 OA
ATOM     34  C   UNL     1       7.757   7.561  17.441  0.00  0.00    +0.000 C 
ENDBRANCH  30  33
ENDBRANCH  23  28
ENDBRANCH  19  24
ENDBRANCH   1  21
TORSDOF 5
ENDMDL
MODEL 9
REMARK VINA RESULT:      -7.6      2.372      3.951
REMARK  Name = 
REMARK  9 active torsions:
REMARK  status: ('A' for Active; 'I' for Inactive)
REMARK    1  A    between atoms: C_1  and  O_2
REMARK    2  A    between atoms: O_2  and  C_3
REMARK    3  A    between atoms: C_6  and  C_7
REMARK    4  A    between atoms: C_8  and  C_9
REMARK    5  A    between atoms: N_11  and  C_12
REMARK    6  A    between atoms: C_21  and  C_22
REMARK    7  A    between atoms: C_26  and  C_27
REMARK    8  A    between atoms: C_31  and  O_32
REMARK    9  A    between atoms: O_32  and  C_33
REMARK                            x       y       z     vdW  Elec       q    Type
REMARK                         _______ _______ _______ _____ _____    ______ ____
ROOT
ATOM      1  C   UNL     1      -0.030  11.691  20.605  0.00  0.00    +0.000 A 
ATOM      2  C   UNL     1       0.706  12.767  21.086  0.00  0.00    +0.000 A 
ATOM      3  C   UNL     1       0.077  13.956  21.453  0.00  0.00    +0.000 A 
ATOM      4  C   UNL     1      -1.288  14.124  21.325  0.00  0.00    +0.000 A 
ATOM      5  N   UNL     1      -1.826  15.247  21.819  0.00  0.00    +0.000 NA
ATOM      6  C   UNL     1      -3.150  15.409  21.691  0.00  0.00    +0.000 A 
ATOM      7  N   UNL     1      -3.873  15.829  22.786  0.00  0.00    +0.000 N 
ATOM      8  C   UNL     1      -5.280  16.160  22.680  0.00  0.00    +0.000 C 
ATOM      9  C   UNL     1      -5.558  17.274  23.688  0.00  0.00    +0.000 C 
ATOM     10  C   UNL     1      -4.897  17.096  25.077  0.00  0.00    +0.000 C 
ATOM     11  C   UNL     1      -4.716  18.475  25.717  0.00  0.00    +0.000 C 
ATOM     12  C   UNL     1      -3.539  16.367  25.078  0.00  0.00    +0.000 C 
ATOM     13  C   UNL     1      -3.498  15.238  24.068  0.00  0.00    +0.000 C 
ATOM     14  C   UNL     1      -3.770  14.779  20.645  0.00  0.00    +0.000 A 
ATOM     15  C   UNL     1      -3.463  13.423  20.671  0.00  0.00    +0.000 A 
ATOM     16  C   UNL     1      -4.590  12.588  21.242  0.00  0.00    +0.000 C 
ATOM     17  C   UNL     1      -2.082  13.084  20.806  0.00  0.00    +0.000 A 
ATOM     18  C   UNL     1      -1.434  11.842  20.491  0.00  0.00    +0.000 A 
ENDROOT
BRANCH   1  21
ATOM     19  C   UNL     1       0.988   9.440  21.069  0.00  0.00    +0.000 C 
ATOM     20  O   UNL     1       0.938   9.424  22.297  0.00  0.00    +0.000 OA
ATOM     21  N   UNL     1       0.576  10.459  20.231  0.00  0.00    +0.000 N 
ATOM     22  H   UNL     1       0.718  10.329  19.240  0.00  0.00    +0.000 HD
BRANCH  19  24
ATOM     23  C   UNL     1       1.391   7.016  20.838  0.00  0.00    +0.000 C 
ATOM     24  C   UNL     1       1.523   8.253  20.338  0.00  0.00    +0.000 C 
BRANCH  23  28
ATOM     25  C   UNL     1       2.346   3.346  18.763  0.00  0.00    +0.000 A 
ATOM     26  C   UNL     1       1.524   3.351  19.901  0.00  0.00    +0.000 A 
ATOM     27  C   UNL     1       1.239   4.543  20.585  0.00  0.00    +0.000 A 
ATOM     28  C   UNL     1       1.806   5.755  20.181  0.00  0.00    +0.000 A 
ATOM     29  C   UNL     1       2.673   5.732  19.082  0.00  0.00    +0.000 A 
ATOM     30  C   UNL     1       2.958   4.546  18.375  0.00  0.00    +0.000 A 
BRANCH  25  32
ATOM     31  C   UNL     1       3.650   1.375  18.516  0.00  0.00    +0.000 C 
ATOM     32  O   UNL     1       2.578   2.197  18.054  0.00  0.00    +0.000 OA
ENDBRANCH  25  32
BRANCH  30  33
ATOM     33  O   UNL     1       3.823   4.771  17.335  0.00  0.00    +0.000 OA
ATOM     34  C   UNL     1       5.219   4.614  17.539  0.00  0.00    +0.000 C 
ENDBRANCH  30  33
ENDBRANCH  23  28
ENDBRANCH  19  24
ENDBRANCH   1  21
TORSDOF 5
ENDMDL
