MODEL 1
REMARK VINA RESULT:      -8.5      0.000      0.000
REMARK  Name = 
REMARK  6 active torsions:
REMARK  status: ('A' for Active; 'I' for Inactive)
REMARK    1  A    between atoms: C_2  and  O_3
REMARK    2  A    between atoms: C_2  and  C_4
REMARK    3  A    between atoms: N_7  and  C_8
REMARK    4  A    between atoms: C_11  and  C_12
REMARK    5  A    between atoms: C_14  and  O_15
REMARK    6  A    between atoms: O_15  and  C_16
REMARK                            x       y       z     vdW  Elec       q    Type
REMARK                         _______ _______ _______ _____ _____    ______ ____
ROOT
ATOM      1  C   UNL     1       1.058   9.650  19.371  0.00  0.00    +0.000 A 
ATOM      2  C   UNL     1       1.565   9.341  18.105  0.00  0.00    +0.000 A 
ATOM      3  C   UNL     1       2.215   8.134  17.838  0.00  0.00    +0.000 A 
ATOM      4  C   UNL     1       2.424   7.175  18.839  0.00  0.00    +0.000 A 
ATOM      5  C   UNL     1       1.944   7.491  20.118  0.00  0.00    +0.000 A 
ATOM      6  C   UNL     1       1.271   8.698  20.373  0.00  0.00    +0.000 A 
ENDROOT
BRANCH   4   7
ATOM      7  C   UNL     1       3.119   5.904  18.533  0.00  0.00    +0.000 A 
ATOM      8  C   UNL     1       4.466   5.720  18.902  0.00  0.00    +0.000 A 
ATOM      9  C   UNL     1       5.186   4.567  18.563  0.00  0.00    +0.000 A 
ATOM     10  C   UNL     1       4.528   3.518  17.931  0.00  0.00    +0.000 A 
ATOM     11  C   UNL     1       3.193   3.667  17.558  0.00  0.00    +0.000 A 
ATOM     12  C   UNL     1       2.508   4.848  17.844  0.00  0.00    +0.000 A 
ATOM     13  F   UNL     1       1.237   4.941  17.423  0.00  0.00    +0.000 F 
BRANCH   9  14
ATOM     14  O   UNL     1       6.486   4.571  18.961  0.00  0.00    +0.000 OA
BRANCH  14  15
ATOM     15  C   UNL     1       7.478   5.101  18.091  0.00  0.00    +0.000 C 
ATOM     16  F   UNL     1       6.991   5.660  16.964  0.00  0.00    +0.000 F 
ATOM     17  F   UNL     1       8.170   6.053  18.758  0.00  0.00    +0.000 F 
ATOM     18  F   UNL     1       8.337   4.116  17.752  0.00  0.00    +0.000 F 
ENDBRANCH  14  15
ENDBRANCH   9  14
ENDBRANCH   4   7
BRANCH   1  22
ATOM     19  C   UNL     1      -0.617  13.463  19.063  0.00  0.00    +0.000 C 
ATOM     20  C   UNL     1      -1.159  12.208  18.363  0.00  0.00    +0.000 C 
ATOM     21  C   UNL     1      -1.013  10.986  19.265  0.00  0.00    +0.000 C 
ATOM     22  N   UNL     1       0.402  10.842  19.595  0.00  0.00    +0.000 N 
ATOM     23  C   UNL     1       0.997  11.945  20.348  0.00  0.00    +0.000 C 
ATOM     24  C   UNL     1       0.832  13.233  19.530  0.00  0.00    +0.000 C 
BRANCH  19  26
ATOM     25  O   UNL     1      -1.099  14.328  21.290  0.00  0.00    +0.000 OA
ATOM     26  C   UNL     1      -1.503  13.881  20.228  0.00  0.00    +0.000 C 
BRANCH  26  27
ATOM     27  O   UNL     1      -2.824  13.743  19.975  0.00  0.00    +0.000 OA
ATOM     28  H   UNL     1      -3.035  13.246  19.163  0.00  0.00    +0.000 HD
ENDBRANCH  26  27
ENDBRANCH  19  26
ENDBRANCH   1  22
TORSDOF 6
ENDMDL
MODEL 2
REMARK VINA RESULT:      -8.4      0.746      1.517
REMARK  Name = 
REMARK  6 active torsions:
REMARK  status: ('A' for Active; 'I' for Inactive)
REMARK    1  A    between atoms: C_2  and  O_3
REMARK    2  A    between atoms: C_2  and  C_4
REMARK    3  A    between atoms: N_7  and  C_8
REMARK    4  A    between atoms: C_11  and  C_12
REMARK    5  A    between atoms: C_14  and  O_15
REMARK    6  A    between atoms: O_15  and  C_16
REMARK                            x       y       z     vdW  Elec       q    Type
REMARK                         _______ _______ _______ _____ _____    ______ ____
ROOT
ATOM      1  C   UNL     1       1.067   9.557  19.437  0.00  0.00    +0.000 A 
ATOM      2  C   UNL     1       1.261   8.551  20.389  0.00  0.00    +0.000 A 
ATOM      3  C   UNL     1       1.934   7.364  20.089  0.00  0.00    +0.000 A 
ATOM      4  C   UNL     1       2.426   7.103  18.803  0.00  0.00    +0.000 A 
ATOM      5  C   UNL     1       2.209   8.095  17.837  0.00  0.00    +0.000 A 
ATOM      6  C   UNL     1       1.550   9.297  18.151  0.00  0.00    +0.000 A 
ENDROOT
BRANCH   4   7
ATOM      7  C   UNL     1       3.133   5.836  18.509  0.00  0.00    +0.000 A 
ATOM      8  C   UNL     1       4.476   5.660  18.900  0.00  0.00    +0.000 A 
ATOM      9  C   UNL     1       5.208   4.512  18.574  0.00  0.00    +0.000 A 
ATOM     10  C   UNL     1       4.567   3.458  17.931  0.00  0.00    +0.000 A 
ATOM     11  C   UNL     1       3.237   3.599  17.537  0.00  0.00    +0.000 A 
ATOM     12  C   UNL     1       2.541   4.776  17.810  0.00  0.00    +0.000 A 
ATOM     13  F   UNL     1       1.276   4.862  17.368  0.00  0.00    +0.000 F 
BRANCH   9  14
ATOM     14  O   UNL     1       6.501   4.523  18.993  0.00  0.00    +0.000 OA
BRANCH  14  15
ATOM     15  C   UNL     1       7.497   5.103  18.159  0.00  0.00    +0.000 C 
ATOM     16  F   UNL     1       7.013   5.775  17.095  0.00  0.00    +0.000 F 
ATOM     17  F   UNL     1       8.226   5.969  18.899  0.00  0.00    +0.000 F 
ATOM     18  F   UNL     1       8.322   4.128  17.718  0.00  0.00    +0.000 F 
ENDBRANCH  14  15
ENDBRANCH   9  14
ENDBRANCH   4   7
BRANCH   1  22
ATOM     19  C   UNL     1      -1.631  12.430  20.819  0.00  0.00    +0.000 C 
ATOM     20  C   UNL     1      -0.745  11.555  21.718  0.00  0.00    +0.000 C 
ATOM     21  C   UNL     1       0.625  11.345  21.079  0.00  0.00    +0.000 C 
ATOM     22  N   UNL     1       0.417  10.726  19.772  0.00  0.00    +0.000 N 
ATOM     23  C   UNL     1      -0.337  11.520  18.804  0.00  0.00    +0.000 C 
ATOM     24  C   UNL     1      -1.716  11.831  19.402  0.00  0.00    +0.000 C 
BRANCH  19  26
ATOM     25  O   UNL     1      -0.354  14.366  21.570  0.00  0.00    +0.000 OA
ATOM     26  C   UNL     1      -1.133  13.868  20.771  0.00  0.00    +0.000 C 
BRANCH  26  27
ATOM     27  O   UNL     1      -1.611  14.568  19.718  0.00  0.00    +0.000 OA
ATOM     28  H   UNL     1      -0.941  15.080  19.230  0.00  0.00    +0.000 HD
ENDBRANCH  26  27
ENDBRANCH  19  26
ENDBRANCH   1  22
TORSDOF 6
ENDMDL
MODEL 3
REMARK VINA RESULT:      -8.4      0.404      1.264
REMARK  Name = 
REMARK  6 active torsions:
REMARK  status: ('A' for Active; 'I' for Inactive)
REMARK    1  A    between atoms: C_2  and  O_3
REMARK    2  A    between atoms: C_2  and  C_4
REMARK    3  A    between atoms: N_7  and  C_8
REMARK    4  A    between atoms: C_11  and  C_12
REMARK    5  A    between atoms: C_14  and  O_15
REMARK    6  A    between atoms: O_15  and  C_16
REMARK                            x       y       z     vdW  Elec       q    Type
REMARK                         _______ _______ _______ _____ _____    ______ ____
ROOT
ATOM      1  C   UNL     1       1.253   9.777  19.072  0.00  0.00    +0.000 A 
ATOM      2  C   UNL     1       1.293   8.797  20.070  0.00  0.00    +0.000 A 
ATOM      3  C   UNL     1       1.902   7.557  19.869  0.00  0.00    +0.000 A 
ATOM      4  C   UNL     1       2.481   7.213  18.640  0.00  0.00    +0.000 A 
ATOM      5  C   UNL     1       2.418   8.179  17.626  0.00  0.00    +0.000 A 
ATOM      6  C   UNL     1       1.823   9.434  17.843  0.00  0.00    +0.000 A 
ENDROOT
BRANCH   4   7
ATOM      7  C   UNL     1       3.118   5.890  18.450  0.00  0.00    +0.000 A 
ATOM      8  C   UNL     1       4.469   5.690  18.800  0.00  0.00    +0.000 A 
ATOM      9  C   UNL     1       5.134   4.481  18.564  0.00  0.00    +0.000 A 
ATOM     10  C   UNL     1       4.417   3.399  18.063  0.00  0.00    +0.000 A 
ATOM     11  C   UNL     1       3.078   3.562  17.713  0.00  0.00    +0.000 A 
ATOM     12  C   UNL     1       2.447   4.793  17.892  0.00  0.00    +0.000 A 
ATOM     13  F   UNL     1       1.168   4.894  17.498  0.00  0.00    +0.000 F 
BRANCH   9  14
ATOM     14  O   UNL     1       6.444   4.473  18.925  0.00  0.00    +0.000 OA
BRANCH  14  15
ATOM     15  C   UNL     1       7.425   4.899  17.987  0.00  0.00    +0.000 C 
ATOM     16  F   UNL     1       8.479   4.066  17.864  0.00  0.00    +0.000 F 
ATOM     17  F   UNL     1       6.840   5.007  16.773  0.00  0.00    +0.000 F 
ATOM     18  F   UNL     1       7.877   6.120  18.347  0.00  0.00    +0.000 F 
ENDBRANCH  14  15
ENDBRANCH   9  14
ENDBRANCH   4   7
BRANCH   1  22
ATOM     19  C   UNL     1      -0.497  13.555  18.745  0.00  0.00    +0.000 C 
ATOM     20  C   UNL     1      -1.185  12.235  18.371  0.00  0.00    +0.000 C 
ATOM     21  C   UNL     1      -0.792  11.129  19.347  0.00  0.00    +0.000 C 
ATOM     22  N   UNL     1       0.662  11.000  19.311  0.00  0.00    +0.000 N 
ATOM     23  C   UNL     1       1.417  12.175  19.743  0.00  0.00    +0.000 C 
ATOM     24  C   UNL     1       1.028  13.357  18.844  0.00  0.00    +0.000 C 
BRANCH  19  26
ATOM     25  O   UNL     1      -0.384  14.629  20.931  0.00  0.00    +0.000 OA
ATOM     26  C   UNL     1      -1.054  14.129  20.041  0.00  0.00    +0.000 C 
BRANCH  26  27
ATOM     27  O   UNL     1      -2.402  14.068  20.119  0.00  0.00    +0.000 OA
ATOM     28  H   UNL     1      -2.761  14.101  21.025  0.00  0.00    +0.000 HD
ENDBRANCH  26  27
ENDBRANCH  19  26
ENDBRANCH   1  22
TORSDOF 6
ENDMDL
MODEL 4
REMARK VINA RESULT:      -8.3      0.768      1.454
REMARK  Name = 
REMARK  6 active torsions:
REMARK  status: ('A' for Active; 'I' for Inactive)
REMARK    1  A    between atoms: C_2  and  O_3
REMARK    2  A    between atoms: C_2  and  C_4
REMARK    3  A    between atoms: N_7  and  C_8
REMARK    4  A    between atoms: C_11  and  C_12
REMARK    5  A    between atoms: C_14  and  O_15
REMARK    6  A    between atoms: O_15  and  C_16
REMARK                            x       y       z     vdW  Elec       q    Type
REMARK                         _______ _______ _______ _____ _____    ______ ____
ROOT
ATOM      1  C   UNL     1       1.045   9.567  19.420  0.00  0.00    +0.000 A 
ATOM      2  C   UNL     1       1.255   8.576  20.384  0.00  0.00    +0.000 A 
ATOM      3  C   UNL     1       1.937   7.391  20.097  0.00  0.00    +0.000 A 
ATOM      4  C   UNL     1       2.422   7.116  18.811  0.00  0.00    +0.000 A 
ATOM      5  C   UNL     1       2.188   8.092  17.832  0.00  0.00    +0.000 A 
ATOM      6  C   UNL     1       1.521   9.291  18.134  0.00  0.00    +0.000 A 
ENDROOT
BRANCH   4   7
ATOM      7  C   UNL     1       3.139   5.852  18.530  0.00  0.00    +0.000 A 
ATOM      8  C   UNL     1       4.481   5.687  18.929  0.00  0.00    +0.000 A 
ATOM      9  C   UNL     1       5.222   4.541  18.615  0.00  0.00    +0.000 A 
ATOM     10  C   UNL     1       4.590   3.478  17.977  0.00  0.00    +0.000 A 
ATOM     11  C   UNL     1       3.261   3.607  17.577  0.00  0.00    +0.000 A 
ATOM     12  C   UNL     1       2.556   4.781  17.838  0.00  0.00    +0.000 A 
ATOM     13  F   UNL     1       1.292   4.856  17.390  0.00  0.00    +0.000 F 
BRANCH   9  14
ATOM     14  O   UNL     1       6.513   4.565  19.039  0.00  0.00    +0.000 OA
BRANCH  14  15
ATOM     15  C   UNL     1       7.514   5.112  18.189  0.00  0.00    +0.000 C 
ATOM     16  F   UNL     1       7.036   5.764  17.110  0.00  0.00    +0.000 F 
ATOM     17  F   UNL     1       8.254   5.988  18.907  0.00  0.00    +0.000 F 
ATOM     18  F   UNL     1       8.327   4.117  17.771  0.00  0.00    +0.000 F 
ENDBRANCH  14  15
ENDBRANCH   9  14
ENDBRANCH   4   7
BRANCH   1  22
ATOM     19  C   UNL     1      -0.082  13.278  20.968  0.00  0.00    +0.000 C 
ATOM     20  C   UNL     1       0.982  13.068  19.881  0.00  0.00    +0.000 C 
ATOM     21  C   UNL     1       0.572  11.940  18.939  0.00  0.00    +0.000 C 
ATOM     22  N   UNL     1       0.386  10.734  19.743  0.00  0.00    +0.000 N 
ATOM     23  C   UNL     1      -0.673  10.795  20.748  0.00  0.00    +0.000 C 
ATOM     24  C   UNL     1      -0.365  11.956  21.704  0.00  0.00    +0.000 C 
BRANCH  19  26
ATOM     25  O   UNL     1      -2.493  13.573  20.756  0.00  0.00    +0.000 OA
ATOM     26  C   UNL     1      -1.364  13.863  20.390  0.00  0.00    +0.000 C 
BRANCH  26  27
ATOM     27  O   UNL     1      -1.147  14.785  19.426  0.00  0.00    +0.000 OA
ATOM     28  H   UNL     1      -0.468  14.540  18.771  0.00  0.00    +0.000 HD
ENDBRANCH  26  27
ENDBRANCH  19  26
ENDBRANCH   1  22
TORSDOF 6
ENDMDL
MODEL 5
REMARK VINA RESULT:      -8.3      0.794      1.304
REMARK  Name = 
REMARK  6 active torsions:
REMARK  status: ('A' for Active; 'I' for Inactive)
REMARK    1  A    between atoms: C_2  and  O_3
REMARK    2  A    between atoms: C_2  and  C_4
REMARK    3  A    between atoms: N_7  and  C_8
REMARK    4  A    between atoms: C_11  and  C_12
REMARK    5  A    between atoms: C_14  and  O_15
REMARK    6  A    between atoms: O_15  and  C_16
REMARK                            x       y       z     vdW  Elec       q    Type
REMARK                         _______ _______ _______ _____ _____    ______ ____
ROOT
ATOM      1  C   UNL     1       1.077   9.514  19.574  0.00  0.00    +0.000 A 
ATOM      2  C   UNL     1       1.599   9.273  18.299  0.00  0.00    +0.000 A 
ATOM      3  C   UNL     1       2.244   8.077  17.973  0.00  0.00    +0.000 A 
ATOM      4  C   UNL     1       2.431   7.062  18.921  0.00  0.00    +0.000 A 
ATOM      5  C   UNL     1       1.936   7.309  20.209  0.00  0.00    +0.000 A 
ATOM      6  C   UNL     1       1.268   8.506  20.523  0.00  0.00    +0.000 A 
ENDROOT
BRANCH   4   7
ATOM      7  C   UNL     1       3.120   5.804  18.553  0.00  0.00    +0.000 A 
ATOM      8  C   UNL     1       4.470   5.600  18.905  0.00  0.00    +0.000 A 
ATOM      9  C   UNL     1       5.184   4.462  18.510  0.00  0.00    +0.000 A 
ATOM     10  C   UNL     1       4.519   3.444  17.835  0.00  0.00    +0.000 A 
ATOM     11  C   UNL     1       3.182   3.613  17.478  0.00  0.00    +0.000 A 
ATOM     12  C   UNL     1       2.502   4.781  17.821  0.00  0.00    +0.000 A 
ATOM     13  F   UNL     1       1.228   4.897  17.413  0.00  0.00    +0.000 F 
BRANCH   9  14
ATOM     14  O   UNL     1       6.486   4.444  18.899  0.00  0.00    +0.000 OA
BRANCH  14  15
ATOM     15  C   UNL     1       7.468   5.054  18.070  0.00  0.00    +0.000 C 
ATOM     16  F   UNL     1       6.972   5.668  16.976  0.00  0.00    +0.000 F 
ATOM     17  F   UNL     1       8.130   5.981  18.800  0.00  0.00    +0.000 F 
ATOM     18  F   UNL     1       8.356   4.115  17.677  0.00  0.00    +0.000 F 
ENDBRANCH  14  15
ENDBRANCH   9  14
ENDBRANCH   4   7
BRANCH   1  22
ATOM     19  C   UNL     1      -1.667  12.447  20.719  0.00  0.00    +0.000 C 
ATOM     20  C   UNL     1      -0.891  11.546  21.690  0.00  0.00    +0.000 C 
ATOM     21  C   UNL     1       0.528  11.304  21.180  0.00  0.00    +0.000 C 
ATOM     22  N   UNL     1       0.427  10.697  19.855  0.00  0.00    +0.000 N 
ATOM     23  C   UNL     1      -0.213  11.515  18.827  0.00  0.00    +0.000 C 
ATOM     24  C   UNL     1      -1.633  11.858  19.296  0.00  0.00    +0.000 C 
BRANCH  19  26
ATOM     25  O   UNL     1      -0.928  14.551  19.733  0.00  0.00    +0.000 OA
ATOM     26  C   UNL     1      -1.130  13.872  20.728  0.00  0.00    +0.000 C 
BRANCH  26  27
ATOM     27  O   UNL     1      -0.916  14.358  21.972  0.00  0.00    +0.000 OA
ATOM     28  H   UNL     1      -1.643  14.901  22.329  0.00  0.00    +0.000 HD
ENDBRANCH  26  27
ENDBRANCH  19  26
ENDBRANCH   1  22
TORSDOF 6
ENDMDL
MODEL 6
REMARK VINA RESULT:      -8.2      0.692      1.376
REMARK  Name = 
REMARK  6 active torsions:
REMARK  status: ('A' for Active; 'I' for Inactive)
REMARK    1  A    between atoms: C_2  and  O_3
REMARK    2  A    between atoms: C_2  and  C_4
REMARK    3  A    between atoms: N_7  and  C_8
REMARK    4  A    between atoms: C_11  and  C_12
REMARK    5  A    between atoms: C_14  and  O_15
REMARK    6  A    between atoms: O_15  and  C_16
REMARK                            x       y       z     vdW  Elec       q    Type
REMARK                         _______ _______ _______ _____ _____    ______ ____
ROOT
ATOM      1  C   UNL     1       1.259   9.586  19.265  0.00  0.00    +0.000 A 
ATOM      2  C   UNL     1       1.377   8.572  20.221  0.00  0.00    +0.000 A 
ATOM      3  C   UNL     1       1.992   7.351  19.938  0.00  0.00    +0.000 A 
ATOM      4  C   UNL     1       2.497   7.060  18.664  0.00  0.00    +0.000 A 
ATOM      5  C   UNL     1       2.355   8.060  17.691  0.00  0.00    +0.000 A 
ATOM      6  C   UNL     1       1.755   9.296  17.990  0.00  0.00    +0.000 A 
ENDROOT
BRANCH   4   7
ATOM      7  C   UNL     1       3.141   5.756  18.386  0.00  0.00    +0.000 A 
ATOM      8  C   UNL     1       4.496   5.545  18.714  0.00  0.00    +0.000 A 
ATOM      9  C   UNL     1       5.167   4.357  18.398  0.00  0.00    +0.000 A 
ATOM     10  C   UNL     1       4.454   3.303  17.835  0.00  0.00    +0.000 A 
ATOM     11  C   UNL     1       3.111   3.479  17.506  0.00  0.00    +0.000 A 
ATOM     12  C   UNL     1       2.473   4.692  17.766  0.00  0.00    +0.000 A 
ATOM     13  F   UNL     1       1.190   4.808  17.388  0.00  0.00    +0.000 F 
BRANCH   9  14
ATOM     14  O   UNL     1       6.480   4.336  18.748  0.00  0.00    +0.000 OA
BRANCH  14  15
ATOM     15  C   UNL     1       7.447   4.871  17.852  0.00  0.00    +0.000 C 
ATOM     16  F   UNL     1       7.849   6.125  18.148  0.00  0.00    +0.000 F 
ATOM     17  F   UNL     1       8.538   4.072  17.870  0.00  0.00    +0.000 F 
ATOM     18  F   UNL     1       6.938   4.862  16.601  0.00  0.00    +0.000 F 
ENDBRANCH  14  15
ENDBRANCH   9  14
ENDBRANCH   4   7
BRANCH   1  22
ATOM     19  C   UNL     1      -1.049  13.066  19.324  0.00  0.00    +0.000 C 
ATOM     20  C   UNL     1      -1.588  11.652  19.586  0.00  0.00    +0.000 C 
ATOM     21  C   UNL     1      -0.568  10.825  20.365  0.00  0.00    +0.000 C 
ATOM     22  N   UNL     1       0.665  10.789  19.584  0.00  0.00    +0.000 N 
ATOM     23  C   UNL     1       1.314  12.078  19.356  0.00  0.00    +0.000 C 
ATOM     24  C   UNL     1       0.323  12.997  18.629  0.00  0.00    +0.000 C 
BRANCH  19  26
ATOM     25  O   UNL     1      -1.596  13.645  21.628  0.00  0.00    +0.000 OA
ATOM     26  C   UNL     1      -0.966  13.880  20.608  0.00  0.00    +0.000 C 
BRANCH  26  27
ATOM     27  O   UNL     1      -0.085  14.903  20.540  0.00  0.00    +0.000 OA
ATOM     28  H   UNL     1      -0.166  15.460  19.744  0.00  0.00    +0.000 HD
ENDBRANCH  26  27
ENDBRANCH  19  26
ENDBRANCH   1  22
TORSDOF 6
ENDMDL
MODEL 7
REMARK VINA RESULT:      -8.1      1.390      1.995
REMARK  Name = 
REMARK  6 active torsions:
REMARK  status: ('A' for Active; 'I' for Inactive)
REMARK    1  A    between atoms: C_2  and  O_3
REMARK    2  A    between atoms: C_2  and  C_4
REMARK    3  A    between atoms: N_7  and  C_8
REMARK    4  A    between atoms: C_11  and  C_12
REMARK    5  A    between atoms: C_14  and  O_15
REMARK    6  A    between atoms: O_15  and  C_16
REMARK                            x       y       z     vdW  Elec       q    Type
REMARK                         _______ _______ _______ _____ _____    ______ ____
ROOT
ATOM      1  C   UNL     1       1.127   9.339  19.912  0.00  0.00    +0.000 A 
ATOM      2  C   UNL     1       1.445   8.183  20.633  0.00  0.00    +0.000 A 
ATOM      3  C   UNL     1       2.085   7.091  20.043  0.00  0.00    +0.000 A 
ATOM      4  C   UNL     1       2.417   7.082  18.681  0.00  0.00    +0.000 A 
ATOM      5  C   UNL     1       2.075   8.226  17.946  0.00  0.00    +0.000 A 
ATOM      6  C   UNL     1       1.451   9.330  18.552  0.00  0.00    +0.000 A 
ENDROOT
BRANCH   4   7
ATOM      7  C   UNL     1       3.092   5.911  18.077  0.00  0.00    +0.000 A 
ATOM      8  C   UNL     1       4.464   5.964  17.757  0.00  0.00    +0.000 A 
ATOM      9  C   UNL     1       5.126   4.911  17.113  0.00  0.00    +0.000 A 
ATOM     10  C   UNL     1       4.438   3.726  16.869  0.00  0.00    +0.000 A 
ATOM     11  C   UNL     1       3.082   3.641  17.179  0.00  0.00    +0.000 A 
ATOM     12  C   UNL     1       2.421   4.722  17.760  0.00  0.00    +0.000 A 
ATOM     13  F   UNL     1       1.106   4.588  17.997  0.00  0.00    +0.000 F 
BRANCH   9  14
ATOM     14  O   UNL     1       6.437   5.144  16.843  0.00  0.00    +0.000 OA
BRANCH  14  15
ATOM     15  C   UNL     1       7.382   5.117  17.906  0.00  0.00    +0.000 C 
ATOM     16  F   UNL     1       8.010   6.290  18.125  0.00  0.00    +0.000 F 
ATOM     17  F   UNL     1       6.736   4.774  19.044  0.00  0.00    +0.000 F 
ATOM     18  F   UNL     1       8.309   4.169  17.646  0.00  0.00    +0.000 F 
ENDBRANCH  14  15
ENDBRANCH   9  14
ENDBRANCH   4   7
BRANCH   1  22
ATOM     19  C   UNL     1      -1.549  11.914  21.822  0.00  0.00    +0.000 C 
ATOM     20  C   UNL     1      -0.871  10.705  22.484  0.00  0.00    +0.000 C 
ATOM     21  C   UNL     1       0.563  10.553  21.984  0.00  0.00    +0.000 C 
ATOM     22  N   UNL     1       0.514  10.408  20.531  0.00  0.00    +0.000 N 
ATOM     23  C   UNL     1      -0.028  11.547  19.793  0.00  0.00    +0.000 C 
ATOM     24  C   UNL     1      -1.457  11.807  20.288  0.00  0.00    +0.000 C 
BRANCH  19  26
ATOM     25  O   UNL     1      -0.471  13.407  23.419  0.00  0.00    +0.000 OA
ATOM     26  C   UNL     1      -0.953  13.227  22.311  0.00  0.00    +0.000 C 
BRANCH  26  27
ATOM     27  O   UNL     1      -0.969  14.205  21.378  0.00  0.00    +0.000 OA
ATOM     28  H   UNL     1      -0.566  13.962  20.524  0.00  0.00    +0.000 HD
ENDBRANCH  26  27
ENDBRANCH  19  26
ENDBRANCH   1  22
TORSDOF 6
ENDMDL
MODEL 8
REMARK VINA RESULT:      -8.1      4.037      9.348
REMARK  Name = 
REMARK  6 active torsions:
REMARK  status: ('A' for Active; 'I' for Inactive)
REMARK    1  A    between atoms: C_2  and  O_3
REMARK    2  A    between atoms: C_2  and  C_4
REMARK    3  A    between atoms: N_7  and  C_8
REMARK    4  A    between atoms: C_11  and  C_12
REMARK    5  A    between atoms: C_14  and  O_15
REMARK    6  A    between atoms: O_15  and  C_16
REMARK                            x       y       z     vdW  Elec       q    Type
REMARK                         _______ _______ _______ _____ _____    ______ ____
ROOT
ATOM      1  C   UNL     1       3.245   7.355  18.363  0.00  0.00    +0.000 A 
ATOM      2  C   UNL     1       2.884   8.383  17.487  0.00  0.00    +0.000 A 
ATOM      3  C   UNL     1       1.846   9.272  17.771  0.00  0.00    +0.000 A 
ATOM      4  C   UNL     1       1.084   9.162  18.942  0.00  0.00    +0.000 A 
ATOM      5  C   UNL     1       1.421   8.115  19.812  0.00  0.00    +0.000 A 
ATOM      6  C   UNL     1       2.482   7.237  19.529  0.00  0.00    +0.000 A 
ENDROOT
BRANCH   4   7
ATOM      7  C   UNL     1      -0.015  10.114  19.220  0.00  0.00    +0.000 A 
ATOM      8  C   UNL     1      -0.967  10.418  18.226  0.00  0.00    +0.000 A 
ATOM      9  C   UNL     1      -1.974  11.371  18.418  0.00  0.00    +0.000 A 
ATOM     10  C   UNL     1      -2.113  11.970  19.666  0.00  0.00    +0.000 A 
ATOM     11  C   UNL     1      -1.191  11.686  20.672  0.00  0.00    +0.000 A 
ATOM     12  C   UNL     1      -0.153  10.784  20.444  0.00  0.00    +0.000 A 
ATOM     13  F   UNL     1       0.723  10.585  21.442  0.00  0.00    +0.000 F 
BRANCH   9  14
ATOM     14  O   UNL     1      -2.781  11.570  17.342  0.00  0.00    +0.000 OA
BRANCH  14  15
ATOM     15  C   UNL     1      -3.680  10.540  16.948  0.00  0.00    +0.000 C 
ATOM     16  F   UNL     1      -3.162   9.650  16.076  0.00  0.00    +0.000 F 
ATOM     17  F   UNL     1      -4.066   9.861  18.052  0.00  0.00    +0.000 F 
ATOM     18  F   UNL     1      -4.776  11.102  16.394  0.00  0.00    +0.000 F 
ENDBRANCH  14  15
ENDBRANCH   9  14
ENDBRANCH   4   7
BRANCH   1  22
ATOM     19  C   UNL     1       5.652   4.243  16.961  0.00  0.00    +0.000 C 
ATOM     20  C   UNL     1       5.061   5.357  16.085  0.00  0.00    +0.000 C 
ATOM     21  C   UNL     1       5.063   6.687  16.835  0.00  0.00    +0.000 C 
ATOM     22  N   UNL     1       4.290   6.507  18.061  0.00  0.00    +0.000 N 
ATOM     23  C   UNL     1       4.821   5.532  19.012  0.00  0.00    +0.000 C 
ATOM     24  C   UNL     1       4.912   4.171  18.310  0.00  0.00    +0.000 C 
BRANCH  19  26
ATOM     25  O   UNL     1       7.712   4.396  18.255  0.00  0.00    +0.000 OA
ATOM     26  C   UNL     1       7.147   4.431  17.172  0.00  0.00    +0.000 C 
BRANCH  26  27
ATOM     27  O   UNL     1       7.834   4.615  16.022  0.00  0.00    +0.000 OA
ATOM     28  H   UNL     1       7.577   5.407  15.515  0.00  0.00    +0.000 HD
ENDBRANCH  26  27
ENDBRANCH  19  26
ENDBRANCH   1  22
TORSDOF 6
ENDMDL
MODEL 9
REMARK VINA RESULT:      -8.1      1.040      1.737
REMARK  Name = 
REMARK  6 active torsions:
REMARK  status: ('A' for Active; 'I' for Inactive)
REMARK    1  A    between atoms: C_2  and  O_3
REMARK    2  A    between atoms: C_2  and  C_4
REMARK    3  A    between atoms: N_7  and  C_8
REMARK    4  A    between atoms: C_11  and  C_12
REMARK    5  A    between atoms: C_14  and  O_15
REMARK    6  A    between atoms: O_15  and  C_16
REMARK                            x       y       z     vdW  Elec       q    Type
REMARK                         _______ _______ _______ _____ _____    ______ ____
ROOT
ATOM      1  C   UNL     1       1.206   9.468  19.412  0.00  0.00    +0.000 A 
ATOM      2  C   UNL     1       1.259   8.575  20.487  0.00  0.00    +0.000 A 
ATOM      3  C   UNL     1       1.886   7.331  20.389  0.00  0.00    +0.000 A 
ATOM      4  C   UNL     1       2.471   6.895  19.192  0.00  0.00    +0.000 A 
ATOM      5  C   UNL     1       2.396   7.773  18.102  0.00  0.00    +0.000 A 
ATOM      6  C   UNL     1       1.783   9.033  18.215  0.00  0.00    +0.000 A 
ENDROOT
BRANCH   4   7
ATOM      7  C   UNL     1       3.127   5.570  19.112  0.00  0.00    +0.000 A 
ATOM      8  C   UNL     1       4.533   5.467  19.126  0.00  0.00    +0.000 A 
ATOM      9  C   UNL     1       5.197   4.243  18.973  0.00  0.00    +0.000 A 
ATOM     10  C   UNL     1       4.452   3.070  18.908  0.00  0.00    +0.000 A 
ATOM     11  C   UNL     1       3.060   3.139  18.899  0.00  0.00    +0.000 A 
ATOM     12  C   UNL     1       2.413   4.371  18.985  0.00  0.00    +0.000 A 
ATOM     13  F   UNL     1       1.071   4.370  18.931  0.00  0.00    +0.000 F 
BRANCH   9  14
ATOM     14  O   UNL     1       6.553   4.329  18.968  0.00  0.00    +0.000 OA
BRANCH  14  15
ATOM     15  C   UNL     1       7.221   4.709  17.771  0.00  0.00    +0.000 C 
ATOM     16  F   UNL     1       7.435   6.035  17.647  0.00  0.00    +0.000 F 
ATOM     17  F   UNL     1       8.424   4.091  17.737  0.00  0.00    +0.000 F 
ATOM     18  F   UNL     1       6.500   4.284  16.711  0.00  0.00    +0.000 F 
ENDBRANCH  14  15
ENDBRANCH   9  14
ENDBRANCH   4   7
BRANCH   1  22
ATOM     19  C   UNL     1      -0.186  13.161  20.779  0.00  0.00    +0.000 C 
ATOM     20  C   UNL     1       1.264  12.870  20.363  0.00  0.00    +0.000 C 
ATOM     21  C   UNL     1       1.299  11.922  19.168  0.00  0.00    +0.000 C 
ATOM     22  N   UNL     1       0.598  10.698  19.549  0.00  0.00    +0.000 N 
ATOM     23  C   UNL     1      -0.819  10.850  19.873  0.00  0.00    +0.000 C 
ATOM     24  C   UNL     1      -0.946  11.846  21.034  0.00  0.00    +0.000 C 
BRANCH  19  26
ATOM     25  O   UNL     1      -0.354  14.703  18.898  0.00  0.00    +0.000 OA
ATOM     26  C   UNL     1      -0.905  14.011  19.740  0.00  0.00    +0.000 C 
BRANCH  26  27
ATOM     27  O   UNL     1      -2.252  13.911  19.803  0.00  0.00    +0.000 OA
ATOM     28  H   UNL     1      -2.735  14.546  19.243  0.00  0.00    +0.000 HD
ENDBRANCH  26  27
ENDBRANCH  19  26
ENDBRANCH   1  22
TORSDOF 6
ENDMDL
