MODEL 1
REMARK VINA RESULT:      -8.1      0.000      0.000
REMARK  Name = 
REMARK  8 active torsions:
REMARK  status: ('A' for Active; 'I' for Inactive)
REMARK    1  A    between atoms: C_1  and  C_2
REMARK    2  A    between atoms: C_3  and  C_4
REMARK    3  A    between atoms: N_6  and  C_7
REMARK    4  A    between atoms: C_10  and  S_11
REMARK    5  A    between atoms: S_11  and  N_14
REMARK    6  A    between atoms: N_14  and  C_15
REMARK    7  A    between atoms: C_15  and  C_16
REMARK    8  A    between atoms: C_26  and  N_27
REMARK                            x       y       z     vdW  Elec       q    Type
REMARK                         _______ _______ _______ _____ _____    ______ ____
ROOT
ATOM      1  C   UNL     1       8.085   8.359  18.011  0.00  0.00    +0.000 A 
ATOM      2  C   UNL     1       8.415   7.231  18.777  0.00  0.00    +0.000 A 
ATOM      3  C   UNL     1       7.605   6.091  18.790  0.00  0.00    +0.000 A 
ATOM      4  C   UNL     1       6.454   6.066  18.020  0.00  0.00    +0.000 A 
ATOM      5  C   UNL     1       6.150   7.153  17.188  0.00  0.00    +0.000 A 
ATOM      6  C   UNL     1       6.927   8.319  17.232  0.00  0.00    +0.000 A 
ENDROOT
BRANCH   1   9
ATOM      7  C   UNL     1       9.192  10.294  19.090  0.00  0.00    +0.000 C 
ATOM      8  O   UNL     1       8.861  10.026  20.243  0.00  0.00    +0.000 OA
ATOM      9  N   UNL     1       8.886   9.531  17.977  0.00  0.00    +0.000 N 
ATOM     10  H   UNL     1       9.355   9.740  17.106  0.00  0.00    +0.000 HD
BRANCH   7  13
ATOM     11  C   UNL     1       8.421  12.989  17.657  0.00  0.00    +0.000 C 
ATOM     12  C   UNL     1       9.746  12.712  18.318  0.00  0.00    +0.000 A 
ATOM     13  C   UNL     1      10.075  11.488  18.932  0.00  0.00    +0.000 A 
ATOM     14  C   UNL     1      11.316  11.349  19.600  0.00  0.00    +0.000 A 
ATOM     15  C   UNL     1      12.239  12.388  19.678  0.00  0.00    +0.000 A 
ATOM     16  C   UNL     1      11.949  13.592  19.063  0.00  0.00    +0.000 A 
ATOM     17  C   UNL     1      10.726  13.738  18.386  0.00  0.00    +0.000 A 
BRANCH  17  18
ATOM     18  N   UNL     1      10.497  15.032  17.757  0.00  0.00    +0.000 N 
ATOM     19  O   UNL     1      10.972  15.196  16.625  0.00  0.00    +0.000 OA
ATOM     20  O   UNL     1       9.860  15.871  18.404  0.00  0.00    +0.000 OA
ENDBRANCH  17  18
ENDBRANCH   7  13
ENDBRANCH   1   9
BRANCH   4  21
ATOM     21  S   UNL     1       5.377   4.645  18.102  0.00  0.00    +0.000 S 
ATOM     22  O   UNL     1       5.442   3.987  16.823  0.00  0.00    +0.000 OA
ATOM     23  O   UNL     1       5.655   3.942  19.341  0.00  0.00    +0.000 OA
BRANCH  21  24
ATOM     24  N   UNL     1       3.838   5.311  18.282  0.00  0.00    +0.000 NA
ATOM     25  H   UNL     1       3.143   4.935  17.634  0.00  0.00    +0.000 HD
BRANCH  24  26
ATOM     26  C   UNL     1       3.379   5.551  19.654  0.00  0.00    +0.000 C 
BRANCH  26  27
ATOM     27  C   UNL     1       2.050   4.888  19.975  0.00  0.00    +0.000 C 
ATOM     28  C   UNL     1       2.194   4.065  21.251  0.00  0.00    +0.000 C 
ATOM     29  C   UNL     1       1.269   2.908  21.003  0.00  0.00    +0.000 C 
ATOM     30  C   UNL     1       1.436   2.680  19.517  0.00  0.00    +0.000 C 
ATOM     31  O   UNL     1       1.708   3.957  18.926  0.00  0.00    +0.000 OA
ENDBRANCH  26  27
ENDBRANCH  24  26
ENDBRANCH  21  24
ENDBRANCH   4  21
TORSDOF 7
ENDMDL
MODEL 2
REMARK VINA RESULT:      -8.0      5.209      8.259
REMARK  Name = 
REMARK  8 active torsions:
REMARK  status: ('A' for Active; 'I' for Inactive)
REMARK    1  A    between atoms: C_1  and  C_2
REMARK    2  A    between atoms: C_3  and  C_4
REMARK    3  A    between atoms: N_6  and  C_7
REMARK    4  A    between atoms: C_10  and  S_11
REMARK    5  A    between atoms: S_11  and  N_14
REMARK    6  A    between atoms: N_14  and  C_15
REMARK    7  A    between atoms: C_15  and  C_16
REMARK    8  A    between atoms: C_26  and  N_27
REMARK                            x       y       z     vdW  Elec       q    Type
REMARK                         _______ _______ _______ _____ _____    ______ ____
ROOT
ATOM      1  C   UNL     1       2.140   7.069  20.102  0.00  0.00    +0.000 A 
ATOM      2  C   UNL     1       2.841   7.240  18.900  0.00  0.00    +0.000 A 
ATOM      3  C   UNL     1       3.359   6.151  18.191  0.00  0.00    +0.000 A 
ATOM      4  C   UNL     1       3.167   4.869  18.680  0.00  0.00    +0.000 A 
ATOM      5  C   UNL     1       2.403   4.673  19.838  0.00  0.00    +0.000 A 
ATOM      6  C   UNL     1       1.946   5.772  20.581  0.00  0.00    +0.000 A 
ENDROOT
BRANCH   1   9
ATOM      7  C   UNL     1       0.948   9.233  20.278  0.00  0.00    +0.000 C 
ATOM      8  O   UNL     1       0.703   9.361  19.080  0.00  0.00    +0.000 OA
ATOM      9  N   UNL     1       1.603   8.153  20.845  0.00  0.00    +0.000 N 
ATOM     10  H   UNL     1       1.595   8.060  21.852  0.00  0.00    +0.000 HD
BRANCH   7  13
ATOM     11  C   UNL     1       1.250  12.339  19.858  0.00  0.00    +0.000 C 
ATOM     12  C   UNL     1       0.496  11.690  20.989  0.00  0.00    +0.000 A 
ATOM     13  C   UNL     1       0.395  10.297  21.167  0.00  0.00    +0.000 A 
ATOM     14  C   UNL     1      -0.406   9.780  22.214  0.00  0.00    +0.000 A 
ATOM     15  C   UNL     1      -1.110  10.602  23.088  0.00  0.00    +0.000 A 
ATOM     16  C   UNL     1      -1.010  11.975  22.947  0.00  0.00    +0.000 A 
ATOM     17  C   UNL     1      -0.208  12.500  21.920  0.00  0.00    +0.000 A 
BRANCH  17  18
ATOM     18  N   UNL     1      -0.145  13.954  21.842  0.00  0.00    +0.000 N 
ATOM     19  O   UNL     1      -0.928  14.507  21.057  0.00  0.00    +0.000 OA
ATOM     20  O   UNL     1       0.693  14.524  22.551  0.00  0.00    +0.000 OA
ENDBRANCH  17  18
ENDBRANCH   7  13
ENDBRANCH   1   9
BRANCH   4  21
ATOM     21  S   UNL     1       3.900   3.487  17.821  0.00  0.00    +0.000 S 
ATOM     22  O   UNL     1       3.552   2.297  18.552  0.00  0.00    +0.000 OA
ATOM     23  O   UNL     1       3.608   3.632  16.407  0.00  0.00    +0.000 OA
BRANCH  21  24
ATOM     24  N   UNL     1       5.560   3.744  17.979  0.00  0.00    +0.000 NA
ATOM     25  H   UNL     1       6.042   3.027  18.525  0.00  0.00    +0.000 HD
BRANCH  24  26
ATOM     26  C   UNL     1       6.268   4.240  16.795  0.00  0.00    +0.000 C 
BRANCH  26  27
ATOM     27  C   UNL     1       7.465   5.115  17.125  0.00  0.00    +0.000 C 
ATOM     28  C   UNL     1       7.458   5.436  18.617  0.00  0.00    +0.000 C 
ATOM     29  C   UNL     1       8.034   6.823  18.659  0.00  0.00    +0.000 C 
ATOM     30  C   UNL     1       7.474   7.437  17.394  0.00  0.00    +0.000 C 
ATOM     31  O   UNL     1       7.345   6.379  16.436  0.00  0.00    +0.000 OA
ENDBRANCH  26  27
ENDBRANCH  24  26
ENDBRANCH  21  24
ENDBRANCH   4  21
TORSDOF 7
ENDMDL
MODEL 3
REMARK VINA RESULT:      -8.0      6.370      8.197
REMARK  Name = 
REMARK  8 active torsions:
REMARK  status: ('A' for Active; 'I' for Inactive)
REMARK    1  A    between atoms: C_1  and  C_2
REMARK    2  A    between atoms: C_3  and  C_4
REMARK    3  A    between atoms: N_6  and  C_7
REMARK    4  A    between atoms: C_10  and  S_11
REMARK    5  A    between atoms: S_11  and  N_14
REMARK    6  A    between atoms: N_14  and  C_15
REMARK    7  A    between atoms: C_15  and  C_16
REMARK    8  A    between atoms: C_26  and  N_27
REMARK                            x       y       z     vdW  Elec       q    Type
REMARK                         _______ _______ _______ _____ _____    ______ ____
ROOT
ATOM      1  C   UNL     1       2.372   7.701  18.880  0.00  0.00    +0.000 A 
ATOM      2  C   UNL     1       2.590   6.615  19.741  0.00  0.00    +0.000 A 
ATOM      3  C   UNL     1       3.529   5.622  19.447  0.00  0.00    +0.000 A 
ATOM      4  C   UNL     1       4.273   5.715  18.281  0.00  0.00    +0.000 A 
ATOM      5  C   UNL     1       4.125   6.832  17.449  0.00  0.00    +0.000 A 
ATOM      6  C   UNL     1       3.134   7.788  17.713  0.00  0.00    +0.000 A 
ENDROOT
BRANCH   1   9
ATOM      7  C   UNL     1       1.015   9.085  20.423  0.00  0.00    +0.000 C 
ATOM      8  O   UNL     1       1.453   8.609  21.468  0.00  0.00    +0.000 OA
ATOM      9  N   UNL     1       1.426   8.724  19.151  0.00  0.00    +0.000 N 
ATOM     10  H   UNL     1       1.136   9.299  18.371  0.00  0.00    +0.000 HD
BRANCH   7  13
ATOM     11  C   UNL     1      -0.323  10.004  23.121  0.00  0.00    +0.000 C 
ATOM     12  C   UNL     1      -0.555  10.649  21.779  0.00  0.00    +0.000 A 
ATOM     13  C   UNL     1       0.039  10.203  20.582  0.00  0.00    +0.000 A 
ATOM     14  C   UNL     1      -0.174  10.925  19.383  0.00  0.00    +0.000 A 
ATOM     15  C   UNL     1      -0.956  12.075  19.335  0.00  0.00    +0.000 A 
ATOM     16  C   UNL     1      -1.568  12.520  20.493  0.00  0.00    +0.000 A 
ATOM     17  C   UNL     1      -1.375  11.805  21.687  0.00  0.00    +0.000 A 
BRANCH  17  18
ATOM     18  N   UNL     1      -2.059  12.330  22.862  0.00  0.00    +0.000 N 
ATOM     19  O   UNL     1      -1.461  13.194  23.518  0.00  0.00    +0.000 OA
ATOM     20  O   UNL     1      -3.174  11.864  23.123  0.00  0.00    +0.000 OA
ENDBRANCH  17  18
ENDBRANCH   7  13
ENDBRANCH   1   9
BRANCH   4  21
ATOM     21  S   UNL     1       5.411   4.405  17.864  0.00  0.00    +0.000 S 
ATOM     22  O   UNL     1       5.405   4.275  16.431  0.00  0.00    +0.000 OA
ATOM     23  O   UNL     1       6.637   4.621  18.610  0.00  0.00    +0.000 OA
BRANCH  21  24
ATOM     24  N   UNL     1       4.702   3.025  18.528  0.00  0.00    +0.000 NA
ATOM     25  H   UNL     1       4.616   3.050  19.546  0.00  0.00    +0.000 HD
BRANCH  24  26
ATOM     26  C   UNL     1       3.571   2.447  17.797  0.00  0.00    +0.000 C 
BRANCH  26  27
ATOM     27  C   UNL     1       2.416   2.034  18.693  0.00  0.00    +0.000 C 
ATOM     28  C   UNL     1       1.263   3.017  18.514  0.00  0.00    +0.000 C 
ATOM     29  C   UNL     1       0.652   3.062  19.886  0.00  0.00    +0.000 C 
ATOM     30  C   UNL     1       1.866   2.934  20.780  0.00  0.00    +0.000 C 
ATOM     31  O   UNL     1       2.820   2.126  20.077  0.00  0.00    +0.000 OA
ENDBRANCH  26  27
ENDBRANCH  24  26
ENDBRANCH  21  24
ENDBRANCH   4  21
TORSDOF 7
ENDMDL
MODEL 4
REMARK VINA RESULT:      -7.9      6.226      7.934
REMARK  Name = 
REMARK  8 active torsions:
REMARK  status: ('A' for Active; 'I' for Inactive)
REMARK    1  A    between atoms: C_1  and  C_2
REMARK    2  A    between atoms: C_3  and  C_4
REMARK    3  A    between atoms: N_6  and  C_7
REMARK    4  A    between atoms: C_10  and  S_11
REMARK    5  A    between atoms: S_11  and  N_14
REMARK    6  A    between atoms: N_14  and  C_15
REMARK    7  A    between atoms: C_15  and  C_16
REMARK    8  A    between atoms: C_26  and  N_27
REMARK                            x       y       z     vdW  Elec       q    Type
REMARK                         _______ _______ _______ _____ _____    ______ ____
ROOT
ATOM      1  C   UNL     1       2.310   7.588  18.932  0.00  0.00    +0.000 A 
ATOM      2  C   UNL     1       3.119   7.563  17.787  0.00  0.00    +0.000 A 
ATOM      3  C   UNL     1       4.163   6.643  17.647  0.00  0.00    +0.000 A 
ATOM      4  C   UNL     1       4.400   5.725  18.657  0.00  0.00    +0.000 A 
ATOM      5  C   UNL     1       3.553   5.684  19.772  0.00  0.00    +0.000 A 
ATOM      6  C   UNL     1       2.552   6.652  19.939  0.00  0.00    +0.000 A 
ENDROOT
BRANCH   1   9
ATOM      7  C   UNL     1       1.156   9.727  18.451  0.00  0.00    +0.000 C 
ATOM      8  O   UNL     1       1.952  10.134  17.608  0.00  0.00    +0.000 OA
ATOM      9  N   UNL     1       1.243   8.509  19.104  0.00  0.00    +0.000 N 
ATOM     10  H   UNL     1       0.447   8.193  19.641  0.00  0.00    +0.000 HD
BRANCH   7  13
ATOM     11  C   UNL     1       1.043  12.232  20.354  0.00  0.00    +0.000 C 
ATOM     12  C   UNL     1      -0.105  11.734  19.515  0.00  0.00    +0.000 A 
ATOM     13  C   UNL     1      -0.035  10.595  18.688  0.00  0.00    +0.000 A 
ATOM     14  C   UNL     1      -1.140  10.252  17.872  0.00  0.00    +0.000 A 
ATOM     15  C   UNL     1      -2.311  11.004  17.850  0.00  0.00    +0.000 A 
ATOM     16  C   UNL     1      -2.412  12.114  18.669  0.00  0.00    +0.000 A 
ATOM     17  C   UNL     1      -1.327  12.457  19.493  0.00  0.00    +0.000 A 
BRANCH  17  18
ATOM     18  N   UNL     1      -1.512  13.634  20.334  0.00  0.00    +0.000 N 
ATOM     19  O   UNL     1      -1.167  14.723  19.856  0.00  0.00    +0.000 OA
ATOM     20  O   UNL     1      -1.984  13.454  21.463  0.00  0.00    +0.000 OA
ENDBRANCH  17  18
ENDBRANCH   7  13
ENDBRANCH   1   9
BRANCH   4  21
ATOM     21  S   UNL     1       5.785   4.607  18.515  0.00  0.00    +0.000 S 
ATOM     22  O   UNL     1       6.285   4.718  17.170  0.00  0.00    +0.000 OA
ATOM     23  O   UNL     1       6.640   4.804  19.671  0.00  0.00    +0.000 OA
BRANCH  21  24
ATOM     24  N   UNL     1       5.094   3.079  18.704  0.00  0.00    +0.000 NA
ATOM     25  H   UNL     1       4.957   2.802  19.678  0.00  0.00    +0.000 HD
BRANCH  24  26
ATOM     26  C   UNL     1       4.021   2.720  17.773  0.00  0.00    +0.000 C 
BRANCH  26  27
ATOM     27  C   UNL     1       2.811   2.101  18.451  0.00  0.00    +0.000 C 
ATOM     28  C   UNL     1       1.591   2.986  18.211  0.00  0.00    +0.000 C 
ATOM     29  C   UNL     1       0.805   2.815  19.479  0.00  0.00    +0.000 C 
ATOM     30  C   UNL     1       1.899   2.700  20.518  0.00  0.00    +0.000 C 
ATOM     31  O   UNL     1       3.018   2.071  19.879  0.00  0.00    +0.000 OA
ENDBRANCH  26  27
ENDBRANCH  24  26
ENDBRANCH  21  24
ENDBRANCH   4  21
TORSDOF 7
ENDMDL
MODEL 5
REMARK VINA RESULT:      -7.9      6.351      8.320
REMARK  Name = 
REMARK  8 active torsions:
REMARK  status: ('A' for Active; 'I' for Inactive)
REMARK    1  A    between atoms: C_1  and  C_2
REMARK    2  A    between atoms: C_3  and  C_4
REMARK    3  A    between atoms: N_6  and  C_7
REMARK    4  A    between atoms: C_10  and  S_11
REMARK    5  A    between atoms: S_11  and  N_14
REMARK    6  A    between atoms: N_14  and  C_15
REMARK    7  A    between atoms: C_15  and  C_16
REMARK    8  A    between atoms: C_26  and  N_27
REMARK                            x       y       z     vdW  Elec       q    Type
REMARK                         _______ _______ _______ _____ _____    ______ ____
ROOT
ATOM      1  C   UNL     1       2.272   7.854  18.918  0.00  0.00    +0.000 A 
ATOM      2  C   UNL     1       3.096   7.884  17.784  0.00  0.00    +0.000 A 
ATOM      3  C   UNL     1       4.050   6.891  17.543  0.00  0.00    +0.000 A 
ATOM      4  C   UNL     1       4.180   5.842  18.439  0.00  0.00    +0.000 A 
ATOM      5  C   UNL     1       3.313   5.754  19.537  0.00  0.00    +0.000 A 
ATOM      6  C   UNL     1       2.406   6.788  19.810  0.00  0.00    +0.000 A 
ENDROOT
BRANCH   1   9
ATOM      7  C   UNL     1       0.949   9.267  20.464  0.00  0.00    +0.000 C 
ATOM      8  O   UNL     1       1.476   8.878  21.503  0.00  0.00    +0.000 OA
ATOM      9  N   UNL     1       1.295   8.847  19.191  0.00  0.00    +0.000 N 
ATOM     10  H   UNL     1       0.928   9.358  18.399  0.00  0.00    +0.000 HD
BRANCH   7  13
ATOM     11  C   UNL     1      -0.424  10.137  23.160  0.00  0.00    +0.000 C 
ATOM     12  C   UNL     1      -0.681  10.770  21.818  0.00  0.00    +0.000 A 
ATOM     13  C   UNL     1      -0.070  10.347  20.621  0.00  0.00    +0.000 A 
ATOM     14  C   UNL     1      -0.311  11.058  19.421  0.00  0.00    +0.000 A 
ATOM     15  C   UNL     1      -1.138  12.176  19.372  0.00  0.00    +0.000 A 
ATOM     16  C   UNL     1      -1.766  12.598  20.529  0.00  0.00    +0.000 A 
ATOM     17  C   UNL     1      -1.545  11.894  21.724  0.00  0.00    +0.000 A 
BRANCH  17  18
ATOM     18  N   UNL     1      -2.249  12.394  22.898  0.00  0.00    +0.000 N 
ATOM     19  O   UNL     1      -3.375  11.926  23.118  0.00  0.00    +0.000 OA
ATOM     20  O   UNL     1      -1.677  13.256  23.576  0.00  0.00    +0.000 OA
ENDBRANCH  17  18
ENDBRANCH   7  13
ENDBRANCH   1   9
BRANCH   4  21
ATOM     21  S   UNL     1       5.454   4.620  18.176  0.00  0.00    +0.000 S 
ATOM     22  O   UNL     1       5.694   4.553  16.758  0.00  0.00    +0.000 OA
ATOM     23  O   UNL     1       6.523   4.875  19.124  0.00  0.00    +0.000 OA
BRANCH  21  24
ATOM     24  N   UNL     1       4.737   3.173  18.665  0.00  0.00    +0.000 NA
ATOM     25  H   UNL     1       4.549   3.120  19.668  0.00  0.00    +0.000 HD
BRANCH  24  26
ATOM     26  C   UNL     1       3.705   2.617  17.784  0.00  0.00    +0.000 C 
BRANCH  26  27
ATOM     27  C   UNL     1       2.485   2.102  18.528  0.00  0.00    +0.000 C 
ATOM     28  C   UNL     1       1.329   3.080  18.337  0.00  0.00    +0.000 C 
ATOM     29  C   UNL     1       0.596   2.983  19.645  0.00  0.00    +0.000 C 
ATOM     30  C   UNL     1       1.728   2.790  20.630  0.00  0.00    +0.000 C 
ATOM     31  O   UNL     1       2.760   2.068  19.945  0.00  0.00    +0.000 OA
ENDBRANCH  26  27
ENDBRANCH  24  26
ENDBRANCH  21  24
ENDBRANCH   4  21
TORSDOF 7
ENDMDL
MODEL 6
REMARK VINA RESULT:      -7.9      6.579      8.941
REMARK  Name = 
REMARK  8 active torsions:
REMARK  status: ('A' for Active; 'I' for Inactive)
REMARK    1  A    between atoms: C_1  and  C_2
REMARK    2  A    between atoms: C_3  and  C_4
REMARK    3  A    between atoms: N_6  and  C_7
REMARK    4  A    between atoms: C_10  and  S_11
REMARK    5  A    between atoms: S_11  and  N_14
REMARK    6  A    between atoms: N_14  and  C_15
REMARK    7  A    between atoms: C_15  and  C_16
REMARK    8  A    between atoms: C_26  and  N_27
REMARK                            x       y       z     vdW  Elec       q    Type
REMARK                         _______ _______ _______ _____ _____    ______ ____
ROOT
ATOM      1  C   UNL     1       1.063   9.030  19.457  0.00  0.00    +0.000 A 
ATOM      2  C   UNL     1       1.502   7.977  20.273  0.00  0.00    +0.000 A 
ATOM      3  C   UNL     1       2.448   7.049  19.826  0.00  0.00    +0.000 A 
ATOM      4  C   UNL     1       2.976   7.176  18.551  0.00  0.00    +0.000 A 
ATOM      5  C   UNL     1       2.607   8.267  17.752  0.00  0.00    +0.000 A 
ATOM      6  C   UNL     1       1.608   9.154  18.178  0.00  0.00    +0.000 A 
ENDROOT
BRANCH   1   9
ATOM      7  C   UNL     1       0.401  11.088  20.668  0.00  0.00    +0.000 C 
ATOM      8  O   UNL     1       1.527  11.401  21.047  0.00  0.00    +0.000 OA
ATOM      9  N   UNL     1       0.104   9.988  19.881  0.00  0.00    +0.000 N 
ATOM     10  H   UNL     1      -0.820   9.920  19.477  0.00  0.00    +0.000 HD
BRANCH   7  13
ATOM     11  C   UNL     1      -1.462  10.920  23.201  0.00  0.00    +0.000 C 
ATOM     12  C   UNL     1      -1.520  12.005  22.157  0.00  0.00    +0.000 A 
ATOM     13  C   UNL     1      -0.690  12.045  21.020  0.00  0.00    +0.000 A 
ATOM     14  C   UNL     1      -0.761  13.150  20.138  0.00  0.00    +0.000 A 
ATOM     15  C   UNL     1      -1.628  14.217  20.350  0.00  0.00    +0.000 A 
ATOM     16  C   UNL     1      -2.469  14.191  21.448  0.00  0.00    +0.000 A 
ATOM     17  C   UNL     1      -2.417  13.094  22.324  0.00  0.00    +0.000 A 
BRANCH  17  18
ATOM     18  N   UNL     1      -3.340  13.134  23.452  0.00  0.00    +0.000 N 
ATOM     19  O   UNL     1      -3.019  13.848  24.412  0.00  0.00    +0.000 OA
ATOM     20  O   UNL     1      -4.363  12.444  23.371  0.00  0.00    +0.000 OA
ENDBRANCH  17  18
ENDBRANCH   7  13
ENDBRANCH   1   9
BRANCH   4  21
ATOM     21  S   UNL     1       4.120   5.944  17.952  0.00  0.00    +0.000 S 
ATOM     22  O   UNL     1       4.710   6.463  16.745  0.00  0.00    +0.000 OA
ATOM     23  O   UNL     1       4.928   5.499  19.072  0.00  0.00    +0.000 OA
BRANCH  21  24
ATOM     24  N   UNL     1       3.133   4.638  17.544  0.00  0.00    +0.000 NA
ATOM     25  H   UNL     1       2.765   4.676  16.592  0.00  0.00    +0.000 HD
BRANCH  24  26
ATOM     26  C   UNL     1       3.554   3.318  18.023  0.00  0.00    +0.000 C 
BRANCH  26  27
ATOM     27  C   UNL     1       2.632   2.733  19.080  0.00  0.00    +0.000 C 
ATOM     28  C   UNL     1       1.349   3.557  19.141  0.00  0.00    +0.000 C 
ATOM     29  C   UNL     1       0.981   3.487  20.595  0.00  0.00    +0.000 C 
ATOM     30  C   UNL     1       2.337   3.502  21.267  0.00  0.00    +0.000 C 
ATOM     31  O   UNL     1       3.251   2.846  20.379  0.00  0.00    +0.000 OA
ENDBRANCH  26  27
ENDBRANCH  24  26
ENDBRANCH  21  24
ENDBRANCH   4  21
TORSDOF 7
ENDMDL
MODEL 7
REMARK VINA RESULT:      -7.9      6.679      8.086
REMARK  Name = 
REMARK  8 active torsions:
REMARK  status: ('A' for Active; 'I' for Inactive)
REMARK    1  A    between atoms: C_1  and  C_2
REMARK    2  A    between atoms: C_3  and  C_4
REMARK    3  A    between atoms: N_6  and  C_7
REMARK    4  A    between atoms: C_10  and  S_11
REMARK    5  A    between atoms: S_11  and  N_14
REMARK    6  A    between atoms: N_14  and  C_15
REMARK    7  A    between atoms: C_15  and  C_16
REMARK    8  A    between atoms: C_26  and  N_27
REMARK                            x       y       z     vdW  Elec       q    Type
REMARK                         _______ _______ _______ _____ _____    ______ ____
ROOT
ATOM      1  C   UNL     1       1.506   8.513  19.666  0.00  0.00    +0.000 A 
ATOM      2  C   UNL     1       1.783   7.322  20.353  0.00  0.00    +0.000 A 
ATOM      3  C   UNL     1       2.578   6.319  19.791  0.00  0.00    +0.000 A 
ATOM      4  C   UNL     1       3.117   6.506  18.528  0.00  0.00    +0.000 A 
ATOM      5  C   UNL     1       2.915   7.722  17.860  0.00  0.00    +0.000 A 
ATOM      6  C   UNL     1       2.061   8.695  18.399  0.00  0.00    +0.000 A 
ENDROOT
BRANCH   1   9
ATOM      7  C   UNL     1       0.822  10.026  21.505  0.00  0.00    +0.000 C 
ATOM      8  O   UNL     1       1.665   9.656  22.318  0.00  0.00    +0.000 OA
ATOM      9  N   UNL     1       0.703   9.550  20.210  0.00  0.00    +0.000 N 
ATOM     10  H   UNL     1       0.097  10.045  19.569  0.00  0.00    +0.000 HD
BRANCH   7  13
ATOM     11  C   UNL     1       0.937  12.996  20.466  0.00  0.00    +0.000 C 
ATOM     12  C   UNL     1      -0.043  12.476  21.485  0.00  0.00    +0.000 A 
ATOM     13  C   UNL     1      -0.058  11.147  21.951  0.00  0.00    +0.000 A 
ATOM     14  C   UNL     1      -1.070  10.730  22.849  0.00  0.00    +0.000 A 
ATOM     15  C   UNL     1      -2.068  11.590  23.297  0.00  0.00    +0.000 A 
ATOM     16  C   UNL     1      -2.061  12.906  22.872  0.00  0.00    +0.000 A 
ATOM     17  C   UNL     1      -1.054  13.335  21.991  0.00  0.00    +0.000 A 
BRANCH  17  18
ATOM     18  N   UNL     1      -1.109  14.737  21.595  0.00  0.00    +0.000 N 
ATOM     19  O   UNL     1      -1.735  15.002  20.560  0.00  0.00    +0.000 OA
ATOM     20  O   UNL     1      -0.515  15.551  22.311  0.00  0.00    +0.000 OA
ENDBRANCH  17  18
ENDBRANCH   7  13
ENDBRANCH   1   9
BRANCH   4  21
ATOM     21  S   UNL     1       4.061   5.192  17.776  0.00  0.00    +0.000 S 
ATOM     22  O   UNL     1       4.559   5.689  16.520  0.00  0.00    +0.000 OA
ATOM     23  O   UNL     1       4.943   4.638  18.787  0.00  0.00    +0.000 OA
BRANCH  21  24
ATOM     24  N   UNL     1       2.913   3.997  17.459  0.00  0.00    +0.000 NA
ATOM     25  H   UNL     1       2.454   4.092  16.551  0.00  0.00    +0.000 HD
BRANCH  24  26
ATOM     26  C   UNL     1       3.248   2.632  17.874  0.00  0.00    +0.000 C 
BRANCH  26  27
ATOM     27  C   UNL     1       2.441   2.144  19.065  0.00  0.00    +0.000 C 
ATOM     28  C   UNL     1       1.207   3.026  19.232  0.00  0.00    +0.000 C 
ATOM     29  C   UNL     1       1.017   3.048  20.722  0.00  0.00    +0.000 C 
ATOM     30  C   UNL     1       2.444   3.039  21.225  0.00  0.00    +0.000 C 
ATOM     31  O   UNL     1       3.218   2.298  20.273  0.00  0.00    +0.000 OA
ENDBRANCH  26  27
ENDBRANCH  24  26
ENDBRANCH  21  24
ENDBRANCH   4  21
TORSDOF 7
ENDMDL
MODEL 8
REMARK VINA RESULT:      -7.8      6.185      7.922
REMARK  Name = 
REMARK  8 active torsions:
REMARK  status: ('A' for Active; 'I' for Inactive)
REMARK    1  A    between atoms: C_1  and  C_2
REMARK    2  A    between atoms: C_3  and  C_4
REMARK    3  A    between atoms: N_6  and  C_7
REMARK    4  A    between atoms: C_10  and  S_11
REMARK    5  A    between atoms: S_11  and  N_14
REMARK    6  A    between atoms: N_14  and  C_15
REMARK    7  A    between atoms: C_15  and  C_16
REMARK    8  A    between atoms: C_26  and  N_27
REMARK                            x       y       z     vdW  Elec       q    Type
REMARK                         _______ _______ _______ _____ _____    ______ ____
ROOT
ATOM      1  C   UNL     1       2.499   7.679  18.400  0.00  0.00    +0.000 A 
ATOM      2  C   UNL     1       2.592   6.761  19.456  0.00  0.00    +0.000 A 
ATOM      3  C   UNL     1       3.626   5.823  19.523  0.00  0.00    +0.000 A 
ATOM      4  C   UNL     1       4.593   5.804  18.529  0.00  0.00    +0.000 A 
ATOM      5  C   UNL     1       4.559   6.765  17.510  0.00  0.00    +0.000 A 
ATOM      6  C   UNL     1       3.482   7.657  17.410  0.00  0.00    +0.000 A 
ENDROOT
BRANCH   1   9
ATOM      7  C   UNL     1       0.882   9.273  19.393  0.00  0.00    +0.000 C 
ATOM      8  O   UNL     1       1.229   9.121  20.562  0.00  0.00    +0.000 OA
ATOM      9  N   UNL     1       1.461   8.643  18.304  0.00  0.00    +0.000 N 
ATOM     10  H   UNL     1       1.224   8.971  17.377  0.00  0.00    +0.000 HD
BRANCH   7  13
ATOM     11  C   UNL     1       0.504  11.945  21.015  0.00  0.00    +0.000 C 
ATOM     12  C   UNL     1      -0.355  11.510  19.856  0.00  0.00    +0.000 A 
ATOM     13  C   UNL     1      -0.179  10.297  19.162  0.00  0.00    +0.000 A 
ATOM     14  C   UNL     1      -0.984  10.013  18.032  0.00  0.00    +0.000 A 
ATOM     15  C   UNL     1      -1.956  10.894  17.570  0.00  0.00    +0.000 A 
ATOM     16  C   UNL     1      -2.164  12.082  18.249  0.00  0.00    +0.000 A 
ATOM     17  C   UNL     1      -1.380  12.369  19.379  0.00  0.00    +0.000 A 
BRANCH  17  18
ATOM     18  N   UNL     1      -1.663  13.635  20.045  0.00  0.00    +0.000 N 
ATOM     19  O   UNL     1      -2.557  13.628  20.902  0.00  0.00    +0.000 OA
ATOM     20  O   UNL     1      -1.002  14.619  19.694  0.00  0.00    +0.000 OA
ENDBRANCH  17  18
ENDBRANCH   7  13
ENDBRANCH   1   9
BRANCH   4  21
ATOM     21  S   UNL     1       5.865   4.553  18.570  0.00  0.00    +0.000 S 
ATOM     22  O   UNL     1       6.379   4.425  17.232  0.00  0.00    +0.000 OA
ATOM     23  O   UNL     1       6.730   4.830  19.702  0.00  0.00    +0.000 OA
BRANCH  21  24
ATOM     24  N   UNL     1       5.031   3.139  18.960  0.00  0.00    +0.000 NA
ATOM     25  H   UNL     1       4.836   3.032  19.957  0.00  0.00    +0.000 HD
BRANCH  24  26
ATOM     26  C   UNL     1       3.962   2.729  18.044  0.00  0.00    +0.000 C 
BRANCH  26  27
ATOM     27  C   UNL     1       2.734   2.180  18.751  0.00  0.00    +0.000 C 
ATOM     28  C   UNL     1       1.520   3.028  18.380  0.00  0.00    +0.000 C 
ATOM     29  C   UNL     1       0.698   2.992  19.637  0.00  0.00    +0.000 C 
ATOM     30  C   UNL     1       1.762   2.998  20.713  0.00  0.00    +0.000 C 
ATOM     31  O   UNL     1       2.900   2.309  20.179  0.00  0.00    +0.000 OA
ENDBRANCH  26  27
ENDBRANCH  24  26
ENDBRANCH  21  24
ENDBRANCH   4  21
TORSDOF 7
ENDMDL
MODEL 9
REMARK VINA RESULT:      -7.8      6.655      9.023
REMARK  Name = 
REMARK  8 active torsions:
REMARK  status: ('A' for Active; 'I' for Inactive)
REMARK    1  A    between atoms: C_1  and  C_2
REMARK    2  A    between atoms: C_3  and  C_4
REMARK    3  A    between atoms: N_6  and  C_7
REMARK    4  A    between atoms: C_10  and  S_11
REMARK    5  A    between atoms: S_11  and  N_14
REMARK    6  A    between atoms: N_14  and  C_15
REMARK    7  A    between atoms: C_15  and  C_16
REMARK    8  A    between atoms: C_26  and  N_27
REMARK                            x       y       z     vdW  Elec       q    Type
REMARK                         _______ _______ _______ _____ _____    ______ ____
ROOT
ATOM      1  C   UNL     1       0.963   9.152  19.474  0.00  0.00    +0.000 A 
ATOM      2  C   UNL     1       1.472   9.123  18.168  0.00  0.00    +0.000 A 
ATOM      3  C   UNL     1       2.407   8.164  17.766  0.00  0.00    +0.000 A 
ATOM      4  C   UNL     1       2.835   7.210  18.675  0.00  0.00    +0.000 A 
ATOM      5  C   UNL     1       2.279   7.176  19.961  0.00  0.00    +0.000 A 
ATOM      6  C   UNL     1       1.395   8.181  20.379  0.00  0.00    +0.000 A 
ENDROOT
BRANCH   1   9
ATOM      7  C   UNL     1       0.319  11.192  20.725  0.00  0.00    +0.000 C 
ATOM      8  O   UNL     1       1.446  11.482  21.119  0.00  0.00    +0.000 OA
ATOM      9  N   UNL     1       0.014  10.113  19.913  0.00  0.00    +0.000 N 
ATOM     10  H   UNL     1      -0.909  10.066  19.501  0.00  0.00    +0.000 HD
BRANCH   7  13
ATOM     11  C   UNL     1      -1.558  10.998  23.245  0.00  0.00    +0.000 C 
ATOM     12  C   UNL     1      -1.597  12.104  22.223  0.00  0.00    +0.000 A 
ATOM     13  C   UNL     1      -0.761  12.155  21.091  0.00  0.00    +0.000 A 
ATOM     14  C   UNL     1      -0.814  13.278  20.231  0.00  0.00    +0.000 A 
ATOM     15  C   UNL     1      -1.669  14.351  20.459  0.00  0.00    +0.000 A 
ATOM     16  C   UNL     1      -2.516  14.314  21.553  0.00  0.00    +0.000 A 
ATOM     17  C   UNL     1      -2.482  13.200  22.407  0.00  0.00    +0.000 A 
BRANCH  17  18
ATOM     18  N   UNL     1      -3.410  13.230  23.531  0.00  0.00    +0.000 N 
ATOM     19  O   UNL     1      -4.436  12.544  23.428  0.00  0.00    +0.000 OA
ATOM     20  O   UNL     1      -3.110  13.947  24.492  0.00  0.00    +0.000 OA
ENDBRANCH  17  18
ENDBRANCH   7  13
ENDBRANCH   1   9
BRANCH   4  21
ATOM     21  S   UNL     1       4.090   6.039  18.186  0.00  0.00    +0.000 S 
ATOM     22  O   UNL     1       4.841   6.641  17.116  0.00  0.00    +0.000 OA
ATOM     23  O   UNL     1       4.732   5.542  19.389  0.00  0.00    +0.000 OA
BRANCH  21  24
ATOM     24  N   UNL     1       3.213   4.741  17.559  0.00  0.00    +0.000 NA
ATOM     25  H   UNL     1       3.749   3.875  17.483  0.00  0.00    +0.000 HD
BRANCH  24  26
ATOM     26  C   UNL     1       1.824   4.605  18.007  0.00  0.00    +0.000 C 
BRANCH  26  27
ATOM     27  C   UNL     1       1.590   3.400  18.902  0.00  0.00    +0.000 C 
ATOM     28  C   UNL     1       0.887   3.851  20.179  0.00  0.00    +0.000 C 
ATOM     29  C   UNL     1       1.451   2.917  21.212  0.00  0.00    +0.000 C 
ATOM     30  C   UNL     1       2.878   2.744  20.739  0.00  0.00    +0.000 C 
ATOM     31  O   UNL     1       2.859   2.845  19.309  0.00  0.00    +0.000 OA
ENDBRANCH  26  27
ENDBRANCH  24  26
ENDBRANCH  21  24
ENDBRANCH   4  21
TORSDOF 7
ENDMDL
