MODEL 1
REMARK VINA RESULT:      -6.3      0.000      0.000
REMARK  Name = 
REMARK  10 active torsions:
REMARK  status: ('A' for Active; 'I' for Inactive)
REMARK    1  A    between atoms: C_1  and  C_2
REMARK    2  A    between atoms: C_2  and  N_3
REMARK    3  A    between atoms: N_3  and  C_4
REMARK    4  A    between atoms: C_6  and  C_7
REMARK    5  A    between atoms: C_7  and  C_8
REMARK    6  A    between atoms: C_8  and  C_9
REMARK    7  A    between atoms: C_9  and  O_10
REMARK    8  A    between atoms: O_10  and  C_11
REMARK    9  A    between atoms: C_17  and  S_18
REMARK   10  A    between atoms: S_18  and  N_19
REMARK                            x       y       z     vdW  Elec       q    Type
REMARK                         _______ _______ _______ _____ _____    ______ ____
ROOT
ATOM      1  C   UNL     1       3.940   6.803  16.958  0.00  0.00    +0.000 C 
ATOM      2  C   UNL     1       5.314   6.879  16.237  0.00  0.00    +0.000 C 
ATOM      3  C   UNL     1       6.585   6.216  16.838  0.00  0.00    +0.000 C 
ATOM      4  S   UNL     1       6.322   4.525  17.378  0.00  0.00    +0.000 S 
ATOM      5  O   UNL     1       6.528   3.640  16.245  0.00  0.00    +0.000 OA
ATOM      6  O   UNL     1       6.913   4.261  18.670  0.00  0.00    +0.000 OA
ATOM      7  C   UNL     1       4.595   4.464  17.684  0.00  0.00    +0.000 A 
ATOM      8  S   UNL     1       4.009   3.019  18.353  0.00  0.00    +0.000 S 
ATOM      9  C   UNL     1       2.421   3.642  18.443  0.00  0.00    +0.000 A 
ATOM     10  C   UNL     1       2.345   4.912  17.894  0.00  0.00    +0.000 A 
ATOM     11  C   UNL     1       3.628   5.424  17.492  0.00  0.00    +0.000 A 
ENDROOT
BRANCH   9  12
ATOM     12  S   UNL     1       1.248   2.587  19.253  0.00  0.00    +0.000 S 
ATOM     13  O   UNL     1       0.235   2.338  18.252  0.00  0.00    +0.000 OA
ATOM     14  O   UNL     1       2.010   1.542  19.894  0.00  0.00    +0.000 OA
BRANCH  12  15
ATOM     15  N   UNL     1       0.531   3.525  20.455  0.00  0.00    +0.000 NA
ATOM     16  H   UNL     1       0.500   3.040  21.348  0.00  0.00    +0.000 HD
ATOM     17  H   UNL     1      -0.355   3.924  20.150  0.00  0.00    +0.000 HD
ENDBRANCH  12  15
ENDBRANCH   9  12
BRANCH   1  18
ATOM     18  N   UNL     1       3.799   7.740  18.078  0.00  0.00    +0.000 NA
ATOM     19  H   UNL     1       3.659   7.200  18.935  0.00  0.00    +0.000 HD
BRANCH  18  21
ATOM     20  C   UNL     1       1.725   8.504  19.154  0.00  0.00    +0.000 C 
ATOM     21  C   UNL     1       2.621   8.608  17.927  0.00  0.00    +0.000 C 
ENDBRANCH  18  21
ENDBRANCH   1  18
BRANCH   3  22
ATOM     22  C   UNL     1       7.381   7.069  17.839  0.00  0.00    +0.000 C 
BRANCH  22  23
ATOM     23  C   UNL     1       7.616   8.548  17.433  0.00  0.00    +0.000 C 
BRANCH  23  24
ATOM     24  C   UNL     1       8.527   9.352  18.361  0.00  0.00    +0.000 C 
BRANCH  24  25
ATOM     25  O   UNL     1       8.587  10.690  17.879  0.00  0.00    +0.000 OA
ATOM     26  C   UNL     1       9.736  11.374  18.363  0.00  0.00    +0.000 C 
ENDBRANCH  24  25
ENDBRANCH  23  24
ENDBRANCH  22  23
ENDBRANCH   3  22
TORSDOF 8
ENDMDL
MODEL 2
REMARK VINA RESULT:      -6.3      1.146      1.240
REMARK  Name = 
REMARK  10 active torsions:
REMARK  status: ('A' for Active; 'I' for Inactive)
REMARK    1  A    between atoms: C_1  and  C_2
REMARK    2  A    between atoms: C_2  and  N_3
REMARK    3  A    between atoms: N_3  and  C_4
REMARK    4  A    between atoms: C_6  and  C_7
REMARK    5  A    between atoms: C_7  and  C_8
REMARK    6  A    between atoms: C_8  and  C_9
REMARK    7  A    between atoms: C_9  and  O_10
REMARK    8  A    between atoms: O_10  and  C_11
REMARK    9  A    between atoms: C_17  and  S_18
REMARK   10  A    between atoms: S_18  and  N_19
REMARK                            x       y       z     vdW  Elec       q    Type
REMARK                         _______ _______ _______ _____ _____    ______ ____
ROOT
ATOM      1  C   UNL     1       4.540   6.651  17.040  0.00  0.00    +0.000 C 
ATOM      2  C   UNL     1       6.010   6.787  16.559  0.00  0.00    +0.000 C 
ATOM      3  C   UNL     1       7.206   6.576  17.529  0.00  0.00    +0.000 C 
ATOM      4  S   UNL     1       7.070   5.085  18.519  0.00  0.00    +0.000 S 
ATOM      5  O   UNL     1       7.626   3.976  17.763  0.00  0.00    +0.000 OA
ATOM      6  O   UNL     1       7.408   5.310  19.905  0.00  0.00    +0.000 OA
ATOM      7  C   UNL     1       5.342   4.780  18.551  0.00  0.00    +0.000 A 
ATOM      8  S   UNL     1       4.831   3.494  19.533  0.00  0.00    +0.000 S 
ATOM      9  C   UNL     1       3.190   3.799  19.173  0.00  0.00    +0.000 A 
ATOM     10  C   UNL     1       3.057   4.826  18.252  0.00  0.00    +0.000 A 
ATOM     11  C   UNL     1       4.314   5.443  17.920  0.00  0.00    +0.000 A 
ENDROOT
BRANCH   9  12
ATOM     12  S   UNL     1       2.029   2.806  20.073  0.00  0.00    +0.000 S 
ATOM     13  O   UNL     1       1.638   1.772  19.141  0.00  0.00    +0.000 OA
ATOM     14  O   UNL     1       2.628   2.537  21.358  0.00  0.00    +0.000 OA
BRANCH  12  15
ATOM     15  N   UNL     1       0.676   3.781  20.320  0.00  0.00    +0.000 NA
ATOM     16  H   UNL     1       0.934   4.739  20.542  0.00  0.00    +0.000 HD
ATOM     17  H   UNL     1       0.011   3.354  20.963  0.00  0.00    +0.000 HD
ENDBRANCH  12  15
ENDBRANCH   9  12
BRANCH   1  18
ATOM     18  N   UNL     1       4.042   7.818  17.778  0.00  0.00    +0.000 NA
ATOM     19  H   UNL     1       4.080   7.609  18.778  0.00  0.00    +0.000 HD
BRANCH  18  21
ATOM     20  C   UNL     1       1.979   8.867  18.609  0.00  0.00    +0.000 C 
ATOM     21  C   UNL     1       2.635   8.112  17.461  0.00  0.00    +0.000 C 
ENDBRANCH  18  21
ENDBRANCH   1  18
BRANCH   3  22
ATOM     22  C   UNL     1       7.652   7.810  18.330  0.00  0.00    +0.000 C 
BRANCH  22  23
ATOM     23  C   UNL     1       7.781   9.130  17.523  0.00  0.00    +0.000 C 
BRANCH  23  24
ATOM     24  C   UNL     1       8.789  10.141  18.068  0.00  0.00    +0.000 C 
BRANCH  24  25
ATOM     25  O   UNL     1       9.168   9.734  19.379  0.00  0.00    +0.000 OA
ATOM     26  C   UNL     1       9.372  10.847  20.239  0.00  0.00    +0.000 C 
ENDBRANCH  24  25
ENDBRANCH  23  24
ENDBRANCH  22  23
ENDBRANCH   3  22
TORSDOF 8
ENDMDL
MODEL 3
REMARK VINA RESULT:      -6.2      0.813      1.086
REMARK  Name = 
REMARK  10 active torsions:
REMARK  status: ('A' for Active; 'I' for Inactive)
REMARK    1  A    between atoms: C_1  and  C_2
REMARK    2  A    between atoms: C_2  and  N_3
REMARK    3  A    between atoms: N_3  and  C_4
REMARK    4  A    between atoms: C_6  and  C_7
REMARK    5  A    between atoms: C_7  and  C_8
REMARK    6  A    between atoms: C_8  and  C_9
REMARK    7  A    between atoms: C_9  and  O_10
REMARK    8  A    between atoms: O_10  and  C_11
REMARK    9  A    between atoms: C_17  and  S_18
REMARK   10  A    between atoms: S_18  and  N_19
REMARK                            x       y       z     vdW  Elec       q    Type
REMARK                         _______ _______ _______ _____ _____    ______ ____
ROOT
ATOM      1  C   UNL     1       3.886   6.879  17.081  0.00  0.00    +0.000 C 
ATOM      2  C   UNL     1       5.234   7.001  16.319  0.00  0.00    +0.000 C 
ATOM      3  C   UNL     1       6.527   6.310  16.837  0.00  0.00    +0.000 C 
ATOM      4  S   UNL     1       6.287   4.590  17.291  0.00  0.00    +0.000 S 
ATOM      5  O   UNL     1       6.455   3.772  16.103  0.00  0.00    +0.000 OA
ATOM      6  O   UNL     1       6.922   4.256  18.544  0.00  0.00    +0.000 OA
ATOM      7  C   UNL     1       4.572   4.505  17.652  0.00  0.00    +0.000 A 
ATOM      8  S   UNL     1       4.012   3.023  18.259  0.00  0.00    +0.000 S 
ATOM      9  C   UNL     1       2.427   3.633  18.438  0.00  0.00    +0.000 A 
ATOM     10  C   UNL     1       2.329   4.932  17.965  0.00  0.00    +0.000 A 
ATOM     11  C   UNL     1       3.596   5.471  17.548  0.00  0.00    +0.000 A 
ENDROOT
BRANCH   9  12
ATOM     12  S   UNL     1       1.285   2.529  19.227  0.00  0.00    +0.000 S 
ATOM     13  O   UNL     1       1.194   3.013  20.586  0.00  0.00    +0.000 OA
ATOM     14  O   UNL     1       0.149   2.413  18.344  0.00  0.00    +0.000 OA
BRANCH  12  15
ATOM     15  N   UNL     1       2.055   1.031  19.289  0.00  0.00    +0.000 NA
ATOM     16  H   UNL     1       1.956   0.590  20.200  0.00  0.00    +0.000 HD
ATOM     17  H   UNL     1       3.008   1.078  18.933  0.00  0.00    +0.000 HD
ENDBRANCH  12  15
ENDBRANCH   9  12
BRANCH   1  18
ATOM     18  N   UNL     1       3.783   7.750  18.257  0.00  0.00    +0.000 NA
ATOM     19  H   UNL     1       4.145   7.244  19.067  0.00  0.00    +0.000 HD
BRANCH  18  21
ATOM     20  C   UNL     1       1.921   9.251  17.685  0.00  0.00    +0.000 C 
ATOM     21  C   UNL     1       2.387   8.099  18.564  0.00  0.00    +0.000 C 
ENDBRANCH  18  21
ENDBRANCH   1  18
BRANCH   3  22
ATOM     22  C   UNL     1       7.356   7.109  17.857  0.00  0.00    +0.000 C 
BRANCH  22  23
ATOM     23  C   UNL     1       7.560   8.613  17.535  0.00  0.00    +0.000 C 
BRANCH  23  24
ATOM     24  C   UNL     1       8.577   9.345  18.411  0.00  0.00    +0.000 C 
BRANCH  24  25
ATOM     25  O   UNL     1       8.740  10.664  17.900  0.00  0.00    +0.000 OA
ATOM     26  C   UNL     1       9.895  11.297  18.434  0.00  0.00    +0.000 C 
ENDBRANCH  24  25
ENDBRANCH  23  24
ENDBRANCH  22  23
ENDBRANCH   3  22
TORSDOF 8
ENDMDL
MODEL 4
REMARK VINA RESULT:      -6.1      1.143      1.189
REMARK  Name = 
REMARK  10 active torsions:
REMARK  status: ('A' for Active; 'I' for Inactive)
REMARK    1  A    between atoms: C_1  and  C_2
REMARK    2  A    between atoms: C_2  and  N_3
REMARK    3  A    between atoms: N_3  and  C_4
REMARK    4  A    between atoms: C_6  and  C_7
REMARK    5  A    between atoms: C_7  and  C_8
REMARK    6  A    between atoms: C_8  and  C_9
REMARK    7  A    between atoms: C_9  and  O_10
REMARK    8  A    between atoms: O_10  and  C_11
REMARK    9  A    between atoms: C_17  and  S_18
REMARK   10  A    between atoms: S_18  and  N_19
REMARK                            x       y       z     vdW  Elec       q    Type
REMARK                         _______ _______ _______ _____ _____    ______ ____
ROOT
ATOM      1  C   UNL     1       4.521   6.777  17.077  0.00  0.00    +0.000 C 
ATOM      2  C   UNL     1       5.996   6.877  16.600  0.00  0.00    +0.000 C 
ATOM      3  C   UNL     1       7.182   6.589  17.562  0.00  0.00    +0.000 C 
ATOM      4  S   UNL     1       6.991   5.070  18.500  0.00  0.00    +0.000 S 
ATOM      5  O   UNL     1       7.509   3.969  17.705  0.00  0.00    +0.000 OA
ATOM      6  O   UNL     1       7.336   5.234  19.893  0.00  0.00    +0.000 OA
ATOM      7  C   UNL     1       5.254   4.826  18.521  0.00  0.00    +0.000 A 
ATOM      8  S   UNL     1       4.696   3.526  19.457  0.00  0.00    +0.000 S 
ATOM      9  C   UNL     1       3.067   3.902  19.108  0.00  0.00    +0.000 A 
ATOM     10  C   UNL     1       2.973   4.965  18.224  0.00  0.00    +0.000 A 
ATOM     11  C   UNL     1       4.251   5.548  17.914  0.00  0.00    +0.000 A 
ENDROOT
BRANCH   9  12
ATOM     12  S   UNL     1       1.870   2.920  19.973  0.00  0.00    +0.000 S 
ATOM     13  O   UNL     1       0.748   3.809  20.170  0.00  0.00    +0.000 OA
ATOM     14  O   UNL     1       1.781   1.666  19.266  0.00  0.00    +0.000 OA
BRANCH  12  15
ATOM     15  N   UNL     1       2.530   2.617  21.494  0.00  0.00    +0.000 NA
ATOM     16  H   UNL     1       1.927   2.946  22.243  0.00  0.00    +0.000 HD
ATOM     17  H   UNL     1       3.500   2.923  21.556  0.00  0.00    +0.000 HD
ENDBRANCH  12  15
ENDBRANCH   9  12
BRANCH   1  18
ATOM     18  N   UNL     1       4.064   7.934  17.854  0.00  0.00    +0.000 NA
ATOM     19  H   UNL     1       4.085   7.686  18.846  0.00  0.00    +0.000 HD
BRANCH  18  21
ATOM     20  C   UNL     1       1.888   8.554  18.817  0.00  0.00    +0.000 C 
ATOM     21  C   UNL     1       2.674   8.298  17.538  0.00  0.00    +0.000 C 
ENDBRANCH  18  21
ENDBRANCH   1  18
BRANCH   3  22
ATOM     22  C   UNL     1       7.671   7.778  18.405  0.00  0.00    +0.000 C 
BRANCH  22  23
ATOM     23  C   UNL     1       8.048   9.060  17.615  0.00  0.00    +0.000 C 
BRANCH  23  24
ATOM     24  C   UNL     1       8.867  10.095  18.385  0.00  0.00    +0.000 C 
BRANCH  24  25
ATOM     25  O   UNL     1       8.660  11.368  17.782  0.00  0.00    +0.000 OA
ATOM     26  C   UNL     1       9.843  12.155  17.794  0.00  0.00    +0.000 C 
ENDBRANCH  24  25
ENDBRANCH  23  24
ENDBRANCH  22  23
ENDBRANCH   3  22
TORSDOF 8
ENDMDL
MODEL 5
REMARK VINA RESULT:      -6.0      3.928      5.856
REMARK  Name = 
REMARK  10 active torsions:
REMARK  status: ('A' for Active; 'I' for Inactive)
REMARK    1  A    between atoms: C_1  and  C_2
REMARK    2  A    between atoms: C_2  and  N_3
REMARK    3  A    between atoms: N_3  and  C_4
REMARK    4  A    between atoms: C_6  and  C_7
REMARK    5  A    between atoms: C_7  and  C_8
REMARK    6  A    between atoms: C_8  and  C_9
REMARK    7  A    between atoms: C_9  and  O_10
REMARK    8  A    between atoms: O_10  and  C_11
REMARK    9  A    between atoms: C_17  and  S_18
REMARK   10  A    between atoms: S_18  and  N_19
REMARK                            x       y       z     vdW  Elec       q    Type
REMARK                         _______ _______ _______ _____ _____    ______ ____
ROOT
ATOM      1  C   UNL     1       3.378   4.565  18.276  0.00  0.00    +0.000 C 
ATOM      2  C   UNL     1       4.822   4.119  17.919  0.00  0.00    +0.000 C 
ATOM      3  C   UNL     1       5.569   4.697  16.684  0.00  0.00    +0.000 C 
ATOM      4  S   UNL     1       5.482   6.486  16.567  0.00  0.00    +0.000 S 
ATOM      5  O   UNL     1       6.566   7.052  17.351  0.00  0.00    +0.000 OA
ATOM      6  O   UNL     1       5.193   6.938  15.226  0.00  0.00    +0.000 OA
ATOM      7  C   UNL     1       4.028   6.878  17.467  0.00  0.00    +0.000 A 
ATOM      8  S   UNL     1       3.557   8.508  17.447  0.00  0.00    +0.000 S 
ATOM      9  C   UNL     1       2.160   8.172  18.370  0.00  0.00    +0.000 A 
ATOM     10  C   UNL     1       2.110   6.839  18.744  0.00  0.00    +0.000 A 
ATOM     11  C   UNL     1       3.177   6.059  18.174  0.00  0.00    +0.000 A 
ENDROOT
BRANCH   9  12
ATOM     12  S   UNL     1       1.066   9.549  18.599  0.00  0.00    +0.000 S 
ATOM     13  O   UNL     1       0.003   9.329  17.645  0.00  0.00    +0.000 OA
ATOM     14  O   UNL     1       0.850   9.669  20.021  0.00  0.00    +0.000 OA
BRANCH  12  15
ATOM     15  N   UNL     1       1.917  10.909  18.082  0.00  0.00    +0.000 NA
ATOM     16  H   UNL     1       2.526  10.701  17.296  0.00  0.00    +0.000 HD
ATOM     17  H   UNL     1       2.365  11.396  18.857  0.00  0.00    +0.000 HD
ENDBRANCH  12  15
ENDBRANCH   9  12
BRANCH   1  18
ATOM     18  N   UNL     1       2.337   3.935  17.456  0.00  0.00    +0.000 NA
ATOM     19  H   UNL     1       1.546   4.578  17.388  0.00  0.00    +0.000 HD
BRANCH  18  21
ATOM     20  C   UNL     1       1.078   3.011  19.354  0.00  0.00    +0.000 C 
ATOM     21  C   UNL     1       1.826   2.698  18.066  0.00  0.00    +0.000 C 
ENDBRANCH  18  21
ENDBRANCH   1  18
BRANCH   3  22
ATOM     22  C   UNL     1       5.320   3.977  15.348  0.00  0.00    +0.000 C 
BRANCH  22  23
ATOM     23  C   UNL     1       6.522   3.935  14.367  0.00  0.00    +0.000 C 
BRANCH  23  24
ATOM     24  C   UNL     1       6.176   3.623  12.911  0.00  0.00    +0.000 C 
BRANCH  24  25
ATOM     25  O   UNL     1       4.759   3.654  12.771  0.00  0.00    +0.000 OA
ATOM     26  C   UNL     1       4.346   3.212  11.485  0.00  0.00    +0.000 C 
ENDBRANCH  24  25
ENDBRANCH  23  24
ENDBRANCH  22  23
ENDBRANCH   3  22
TORSDOF 8
ENDMDL
MODEL 6
REMARK VINA RESULT:      -5.9      1.194      1.425
REMARK  Name = 
REMARK  10 active torsions:
REMARK  status: ('A' for Active; 'I' for Inactive)
REMARK    1  A    between atoms: C_1  and  C_2
REMARK    2  A    between atoms: C_2  and  N_3
REMARK    3  A    between atoms: N_3  and  C_4
REMARK    4  A    between atoms: C_6  and  C_7
REMARK    5  A    between atoms: C_7  and  C_8
REMARK    6  A    between atoms: C_8  and  C_9
REMARK    7  A    between atoms: C_9  and  O_10
REMARK    8  A    between atoms: O_10  and  C_11
REMARK    9  A    between atoms: C_17  and  S_18
REMARK   10  A    between atoms: S_18  and  N_19
REMARK                            x       y       z     vdW  Elec       q    Type
REMARK                         _______ _______ _______ _____ _____    ______ ____
ROOT
ATOM      1  C   UNL     1       3.961   6.875  17.049  0.00  0.00    +0.000 C 
ATOM      2  C   UNL     1       5.388   7.106  16.482  0.00  0.00    +0.000 C 
ATOM      3  C   UNL     1       6.656   6.892  17.356  0.00  0.00    +0.000 C 
ATOM      4  S   UNL     1       6.650   5.341  18.259  0.00  0.00    +0.000 S 
ATOM      5  O   UNL     1       7.199   4.305  17.401  0.00  0.00    +0.000 OA
ATOM      6  O   UNL     1       7.072   5.499  19.631  0.00  0.00    +0.000 OA
ATOM      7  C   UNL     1       4.942   4.956  18.385  0.00  0.00    +0.000 A 
ATOM      8  S   UNL     1       4.554   3.593  19.318  0.00  0.00    +0.000 S 
ATOM      9  C   UNL     1       2.881   3.843  19.086  0.00  0.00    +0.000 A 
ATOM     10  C   UNL     1       2.643   4.916  18.242  0.00  0.00    +0.000 A 
ATOM     11  C   UNL     1       3.847   5.608  17.866  0.00  0.00    +0.000 A 
ENDROOT
BRANCH   9  12
ATOM     12  S   UNL     1       1.827   2.747  19.998  0.00  0.00    +0.000 S 
ATOM     13  O   UNL     1       2.604   2.381  21.160  0.00  0.00    +0.000 OA
ATOM     14  O   UNL     1       0.534   3.385  20.070  0.00  0.00    +0.000 OA
BRANCH  12  15
ATOM     15  N   UNL     1       1.672   1.359  19.054  0.00  0.00    +0.000 NA
ATOM     16  H   UNL     1       0.701   1.153  18.836  0.00  0.00    +0.000 HD
ATOM     17  H   UNL     1       2.203   0.578  19.435  0.00  0.00    +0.000 HD
ENDBRANCH  12  15
ENDBRANCH   9  12
BRANCH   1  18
ATOM     18  N   UNL     1       3.467   7.972  17.889  0.00  0.00    +0.000 NA
ATOM     19  H   UNL     1       3.524   7.681  18.867  0.00  0.00    +0.000 HD
BRANCH  18  21
ATOM     20  C   UNL     1       1.725   9.698  18.061  0.00  0.00    +0.000 C 
ATOM     21  C   UNL     1       2.053   8.278  17.620  0.00  0.00    +0.000 C 
ENDBRANCH  18  21
ENDBRANCH   1  18
BRANCH   3  22
ATOM     22  C   UNL     1       7.104   8.097  18.200  0.00  0.00    +0.000 C 
BRANCH  22  23
ATOM     23  C   UNL     1       8.388   8.822  17.716  0.00  0.00    +0.000 C 
BRANCH  23  24
ATOM     24  C   UNL     1       8.987   9.829  18.698  0.00  0.00    +0.000 C 
BRANCH  24  25
ATOM     25  O   UNL     1       9.440  10.959  17.959  0.00  0.00    +0.000 OA
ATOM     26  C   UNL     1      10.579  11.561  18.560  0.00  0.00    +0.000 C 
ENDBRANCH  24  25
ENDBRANCH  23  24
ENDBRANCH  22  23
ENDBRANCH   3  22
TORSDOF 8
ENDMDL
MODEL 7
REMARK VINA RESULT:      -5.6      3.934      5.927
REMARK  Name = 
REMARK  10 active torsions:
REMARK  status: ('A' for Active; 'I' for Inactive)
REMARK    1  A    between atoms: C_1  and  C_2
REMARK    2  A    between atoms: C_2  and  N_3
REMARK    3  A    between atoms: N_3  and  C_4
REMARK    4  A    between atoms: C_6  and  C_7
REMARK    5  A    between atoms: C_7  and  C_8
REMARK    6  A    between atoms: C_8  and  C_9
REMARK    7  A    between atoms: C_9  and  O_10
REMARK    8  A    between atoms: O_10  and  C_11
REMARK    9  A    between atoms: C_17  and  S_18
REMARK   10  A    between atoms: S_18  and  N_19
REMARK                            x       y       z     vdW  Elec       q    Type
REMARK                         _______ _______ _______ _____ _____    ______ ____
ROOT
ATOM      1  C   UNL     1       3.315   4.614  18.431  0.00  0.00    +0.000 C 
ATOM      2  C   UNL     1       4.746   4.126  18.073  0.00  0.00    +0.000 C 
ATOM      3  C   UNL     1       5.484   4.634  16.802  0.00  0.00    +0.000 C 
ATOM      4  S   UNL     1       5.428   6.417  16.607  0.00  0.00    +0.000 S 
ATOM      5  O   UNL     1       6.534   6.998  17.349  0.00  0.00    +0.000 OA
ATOM      6  O   UNL     1       5.127   6.814  15.251  0.00  0.00    +0.000 OA
ATOM      7  C   UNL     1       3.995   6.876  17.509  0.00  0.00    +0.000 A 
ATOM      8  S   UNL     1       3.554   8.512  17.423  0.00  0.00    +0.000 S 
ATOM      9  C   UNL     1       2.166   8.245  18.380  0.00  0.00    +0.000 A 
ATOM     10  C   UNL     1       2.097   6.930  18.814  0.00  0.00    +0.000 A 
ATOM     11  C   UNL     1       3.140   6.106  18.265  0.00  0.00    +0.000 A 
ENDROOT
BRANCH   9  12
ATOM     12  S   UNL     1       1.100   9.651  18.563  0.00  0.00    +0.000 S 
ATOM     13  O   UNL     1       1.966  10.789  18.356  0.00  0.00    +0.000 OA
ATOM     14  O   UNL     1      -0.072   9.384  17.765  0.00  0.00    +0.000 OA
BRANCH  12  15
ATOM     15  N   UNL     1       0.636   9.674  20.184  0.00  0.00    +0.000 NA
ATOM     16  H   UNL     1      -0.359   9.852  20.292  0.00  0.00    +0.000 HD
ATOM     17  H   UNL     1       1.244  10.268  20.745  0.00  0.00    +0.000 HD
ENDBRANCH  12  15
ENDBRANCH   9  12
BRANCH   1  18
ATOM     18  N   UNL     1       2.251   3.968  17.654  0.00  0.00    +0.000 NA
ATOM     19  H   UNL     1       1.435   4.583  17.651  0.00  0.00    +0.000 HD
BRANCH  18  21
ATOM     20  C   UNL     1       0.892   2.956  19.435  0.00  0.00    +0.000 C 
ATOM     21  C   UNL     1       1.822   2.697  18.258  0.00  0.00    +0.000 C 
ENDBRANCH  18  21
ENDBRANCH   1  18
BRANCH   3  22
ATOM     22  C   UNL     1       5.201   3.860  15.504  0.00  0.00    +0.000 C 
BRANCH  22  23
ATOM     23  C   UNL     1       6.340   3.868  14.449  0.00  0.00    +0.000 C 
BRANCH  23  24
ATOM     24  C   UNL     1       5.890   3.955  12.991  0.00  0.00    +0.000 C 
BRANCH  24  25
ATOM     25  O   UNL     1       6.467   2.865  12.279  0.00  0.00    +0.000 OA
ATOM     26  C   UNL     1       5.509   2.199  11.467  0.00  0.00    +0.000 C 
ENDBRANCH  24  25
ENDBRANCH  23  24
ENDBRANCH  22  23
ENDBRANCH   3  22
TORSDOF 8
ENDMDL
MODEL 8
REMARK VINA RESULT:      -5.5      1.489      1.680
REMARK  Name = 
REMARK  10 active torsions:
REMARK  status: ('A' for Active; 'I' for Inactive)
REMARK    1  A    between atoms: C_1  and  C_2
REMARK    2  A    between atoms: C_2  and  N_3
REMARK    3  A    between atoms: N_3  and  C_4
REMARK    4  A    between atoms: C_6  and  C_7
REMARK    5  A    between atoms: C_7  and  C_8
REMARK    6  A    between atoms: C_8  and  C_9
REMARK    7  A    between atoms: C_9  and  O_10
REMARK    8  A    between atoms: O_10  and  C_11
REMARK    9  A    between atoms: C_17  and  S_18
REMARK   10  A    between atoms: S_18  and  N_19
REMARK                            x       y       z     vdW  Elec       q    Type
REMARK                         _______ _______ _______ _____ _____    ______ ____
ROOT
ATOM      1  C   UNL     1       4.964   6.062  16.111  0.00  0.00    +0.000 C 
ATOM      2  C   UNL     1       6.472   6.420  16.006  0.00  0.00    +0.000 C 
ATOM      3  C   UNL     1       7.340   6.661  17.273  0.00  0.00    +0.000 C 
ATOM      4  S   UNL     1       7.145   5.392  18.527  0.00  0.00    +0.000 S 
ATOM      5  O   UNL     1       8.067   4.308  18.234  0.00  0.00    +0.000 OA
ATOM      6  O   UNL     1       7.014   5.944  19.855  0.00  0.00    +0.000 OA
ATOM      7  C   UNL     1       5.556   4.730  18.186  0.00  0.00    +0.000 A 
ATOM      8  S   UNL     1       4.979   3.575  19.286  0.00  0.00    +0.000 S 
ATOM      9  C   UNL     1       3.495   3.442  18.452  0.00  0.00    +0.000 A 
ATOM     10  C   UNL     1       3.487   4.222  17.307  0.00  0.00    +0.000 A 
ATOM     11  C   UNL     1       4.674   5.023  17.170  0.00  0.00    +0.000 A 
ENDROOT
BRANCH   9  12
ATOM     12  S   UNL     1       2.285   2.410  19.238  0.00  0.00    +0.000 S 
ATOM     13  O   UNL     1       2.724   1.062  18.958  0.00  0.00    +0.000 OA
ATOM     14  O   UNL     1       2.105   2.930  20.572  0.00  0.00    +0.000 OA
BRANCH  12  15
ATOM     15  N   UNL     1       0.850   2.646  18.386  0.00  0.00    +0.000 NA
ATOM     16  H   UNL     1       0.702   1.928  17.682  0.00  0.00    +0.000 HD
ATOM     17  H   UNL     1       0.759   3.604  18.051  0.00  0.00    +0.000 HD
ENDBRANCH  12  15
ENDBRANCH   9  12
BRANCH   1  18
ATOM     18  N   UNL     1       4.095   7.210  16.388  0.00  0.00    +0.000 NA
ATOM     19  H   UNL     1       4.600   8.065  16.144  0.00  0.00    +0.000 HD
BRANCH  18  21
ATOM     20  C   UNL     1       2.349   7.874  17.987  0.00  0.00    +0.000 C 
ATOM     21  C   UNL     1       3.754   7.313  17.815  0.00  0.00    +0.000 C 
ENDBRANCH  18  21
ENDBRANCH   1  18
BRANCH   3  22
ATOM     22  C   UNL     1       7.330   8.092  17.835  0.00  0.00    +0.000 C 
BRANCH  22  23
ATOM     23  C   UNL     1       8.669   8.592  18.440  0.00  0.00    +0.000 C 
BRANCH  23  24
ATOM     24  C   UNL     1       8.893  10.103  18.393  0.00  0.00    +0.000 C 
BRANCH  24  25
ATOM     25  O   UNL     1       9.899  10.436  19.344  0.00  0.00    +0.000 OA
ATOM     26  C   UNL     1       9.341  10.962  20.540  0.00  0.00    +0.000 C 
ENDBRANCH  24  25
ENDBRANCH  23  24
ENDBRANCH  22  23
ENDBRANCH   3  22
TORSDOF 8
ENDMDL
MODEL 9
REMARK VINA RESULT:      -5.5      3.849      5.460
REMARK  Name = 
REMARK  10 active torsions:
REMARK  status: ('A' for Active; 'I' for Inactive)
REMARK    1  A    between atoms: C_1  and  C_2
REMARK    2  A    between atoms: C_2  and  N_3
REMARK    3  A    between atoms: N_3  and  C_4
REMARK    4  A    between atoms: C_6  and  C_7
REMARK    5  A    between atoms: C_7  and  C_8
REMARK    6  A    between atoms: C_8  and  C_9
REMARK    7  A    between atoms: C_9  and  O_10
REMARK    8  A    between atoms: O_10  and  C_11
REMARK    9  A    between atoms: C_17  and  S_18
REMARK   10  A    between atoms: S_18  and  N_19
REMARK                            x       y       z     vdW  Elec       q    Type
REMARK                         _______ _______ _______ _____ _____    ______ ____
ROOT
ATOM      1  C   UNL     1       3.208   5.226  19.568  0.00  0.00    +0.000 C 
ATOM      2  C   UNL     1       4.638   4.773  19.166  0.00  0.00    +0.000 C 
ATOM      3  C   UNL     1       5.202   5.034  17.741  0.00  0.00    +0.000 C 
ATOM      4  S   UNL     1       4.961   6.720  17.173  0.00  0.00    +0.000 S 
ATOM      5  O   UNL     1       6.071   7.529  17.644  0.00  0.00    +0.000 OA
ATOM      6  O   UNL     1       4.498   6.780  15.807  0.00  0.00    +0.000 OA
ATOM      7  C   UNL     1       3.581   7.266  18.110  0.00  0.00    +0.000 A 
ATOM      8  S   UNL     1       2.982   8.805  17.724  0.00  0.00    +0.000 S 
ATOM      9  C   UNL     1       1.720   8.661  18.866  0.00  0.00    +0.000 A 
ATOM     10  C   UNL     1       1.817   7.476  19.578  0.00  0.00    +0.000 A 
ATOM     11  C   UNL     1       2.877   6.626  19.105  0.00  0.00    +0.000 A 
ENDROOT
BRANCH   9  12
ATOM     12  S   UNL     1       0.549   9.992  18.859  0.00  0.00    +0.000 S 
ATOM     13  O   UNL     1       1.357  11.186  18.962  0.00  0.00    +0.000 OA
ATOM     14  O   UNL     1      -0.359   9.735  17.768  0.00  0.00    +0.000 OA
BRANCH  12  15
ATOM     15  N   UNL     1      -0.315   9.858  20.301  0.00  0.00    +0.000 NA
ATOM     16  H   UNL     1      -1.029  10.577  20.385  0.00  0.00    +0.000 HD
ATOM     17  H   UNL     1       0.301   9.765  21.106  0.00  0.00    +0.000 HD
ENDBRANCH  12  15
ENDBRANCH   9  12
BRANCH   1  18
ATOM     18  N   UNL     1       2.141   4.348  19.074  0.00  0.00    +0.000 NA
ATOM     19  H   UNL     1       1.244   4.813  19.225  0.00  0.00    +0.000 HD
BRANCH  18  21
ATOM     20  C   UNL     1       1.593   3.304  21.232  0.00  0.00    +0.000 C 
ATOM     21  C   UNL     1       2.088   3.075  19.810  0.00  0.00    +0.000 C 
ENDBRANCH  18  21
ENDBRANCH   1  18
BRANCH   3  22
ATOM     22  C   UNL     1       4.874   3.971  16.680  0.00  0.00    +0.000 C 
BRANCH  22  23
ATOM     23  C   UNL     1       5.981   3.702  15.626  0.00  0.00    +0.000 C 
BRANCH  23  24
ATOM     24  C   UNL     1       7.313   4.411  15.870  0.00  0.00    +0.000 C 
BRANCH  24  25
ATOM     25  O   UNL     1       7.634   5.171  14.710  0.00  0.00    +0.000 OA
ATOM     26  C   UNL     1       6.873   4.760  13.582  0.00  0.00    +0.000 C 
ENDBRANCH  24  25
ENDBRANCH  23  24
ENDBRANCH  22  23
ENDBRANCH   3  22
TORSDOF 8
ENDMDL
