MODEL 1
REMARK VINA RESULT:      -8.1      0.000      0.000
REMARK  Name = 
REMARK  7 active torsions:
REMARK  status: ('A' for Active; 'I' for Inactive)
REMARK    1  A    between atoms: C_1  and  O_2
REMARK    2  A    between atoms: O_2  and  C_3
REMARK    3  A    between atoms: C_6  and  C_7
REMARK    4  A    between atoms: N_9  and  C_10
REMARK    5  A    between atoms: C_15  and  C_16
REMARK    6  A    between atoms: N_19  and  C_20
REMARK    7  A    between atoms: C_20  and  C_21
REMARK                            x       y       z     vdW  Elec       q    Type
REMARK                         _______ _______ _______ _____ _____    ______ ____
ROOT
ATOM      1  C   UNL     1       4.337   6.165  17.531  0.00  0.00    +0.000 A 
ATOM      2  C   UNL     1       5.455   6.765  16.929  0.00  0.00    +0.000 A 
ATOM      3  C   UNL     1       6.247   6.081  16.007  0.00  0.00    +0.000 A 
ATOM      4  C   UNL     1       5.952   4.766  15.686  0.00  0.00    +0.000 A 
ATOM      5  C   UNL     1       4.869   4.133  16.297  0.00  0.00    +0.000 A 
ATOM      6  C   UNL     1       4.049   4.814  17.225  0.00  0.00    +0.000 A 
ENDROOT
BRANCH   6   7
ATOM      7  C   UNL     1       2.915   4.092  17.802  0.00  0.00    +0.000 A 
ATOM      8  N   UNL     1       2.239   3.097  17.127  0.00  0.00    +0.000 NA
ATOM      9  N   UNL     1       1.310   2.630  17.947  0.00  0.00    +0.000 NA
ATOM     10  N   UNL     1       1.440   3.363  19.065  0.00  0.00    +0.000 N 
ATOM     11  N   UNL     1       2.422   4.290  19.042  0.00  0.00    +0.000 NA
BRANCH  10  12
ATOM     12  C   UNL     1       0.757   3.013  20.287  0.00  0.00    +0.000 C 
BRANCH  12  13
ATOM     13  C   UNL     1       1.649   2.646  21.447  0.00  0.00    +0.000 C 
ATOM     14  N   UNL     1       2.992   2.512  21.271  0.00  0.00    +0.000 N 
ATOM     15  O   UNL     1       1.178   2.462  22.570  0.00  0.00    +0.000 OA
ATOM     16  H   UNL     1       3.486   2.901  20.473  0.00  0.00    +0.000 HD
ATOM     17  H   UNL     1       3.540   2.345  22.107  0.00  0.00    +0.000 HD
ENDBRANCH  12  13
ENDBRANCH  10  12
ENDBRANCH   6   7
BRANCH   1  20
ATOM     18  C   UNL     1       2.673   7.945  18.061  0.00  0.00    +0.000 C 
ATOM     19  O   UNL     1       2.512   8.379  16.922  0.00  0.00    +0.000 OA
ATOM     20  N   UNL     1       3.506   6.904  18.423  0.00  0.00    +0.000 N 
ATOM     21  H   UNL     1       3.396   6.496  19.352  0.00  0.00    +0.000 HD
BRANCH  18  25
ATOM     22  C   UNL     1       0.345   9.908  21.075  0.00  0.00    +0.000 A 
ATOM     23  C   UNL     1       0.506  10.464  19.808  0.00  0.00    +0.000 A 
ATOM     24  C   UNL     1       1.240   9.790  18.837  0.00  0.00    +0.000 A 
ATOM     25  C   UNL     1       1.833   8.552  19.124  0.00  0.00    +0.000 A 
ATOM     26  C   UNL     1       1.694   7.999  20.401  0.00  0.00    +0.000 A 
ATOM     27  C   UNL     1       0.951   8.683  21.376  0.00  0.00    +0.000 A 
BRANCH  22  29
ATOM     28  C   UNL     1      -0.703  10.048  23.183  0.00  0.00    +0.000 C 
ATOM     29  O   UNL     1      -0.374  10.674  21.951  0.00  0.00    +0.000 OA
ENDBRANCH  22  29
ENDBRANCH  18  25
ENDBRANCH   1  20
TORSDOF 6
ENDMDL
MODEL 2
REMARK VINA RESULT:      -8.1      0.446      1.041
REMARK  Name = 
REMARK  7 active torsions:
REMARK  status: ('A' for Active; 'I' for Inactive)
REMARK    1  A    between atoms: C_1  and  O_2
REMARK    2  A    between atoms: O_2  and  C_3
REMARK    3  A    between atoms: C_6  and  C_7
REMARK    4  A    between atoms: N_9  and  C_10
REMARK    5  A    between atoms: C_15  and  C_16
REMARK    6  A    between atoms: N_19  and  C_20
REMARK    7  A    between atoms: C_20  and  C_21
REMARK                            x       y       z     vdW  Elec       q    Type
REMARK                         _______ _______ _______ _____ _____    ______ ____
ROOT
ATOM      1  C   UNL     1       4.097   6.291  17.486  0.00  0.00    +0.000 A 
ATOM      2  C   UNL     1       5.152   6.933  16.818  0.00  0.00    +0.000 A 
ATOM      3  C   UNL     1       5.900   6.284  15.835  0.00  0.00    +0.000 A 
ATOM      4  C   UNL     1       5.623   4.964  15.516  0.00  0.00    +0.000 A 
ATOM      5  C   UNL     1       4.602   4.292  16.190  0.00  0.00    +0.000 A 
ATOM      6  C   UNL     1       3.828   4.936  17.181  0.00  0.00    +0.000 A 
ENDROOT
BRANCH   6   7
ATOM      7  C   UNL     1       2.758   4.173  17.823  0.00  0.00    +0.000 A 
ATOM      8  N   UNL     1       2.186   3.056  17.250  0.00  0.00    +0.000 NA
ATOM      9  N   UNL     1       1.294   2.590  18.109  0.00  0.00    +0.000 NA
ATOM     10  N   UNL     1       1.339   3.441  19.147  0.00  0.00    +0.000 N 
ATOM     11  N   UNL     1       2.230   4.449  19.034  0.00  0.00    +0.000 NA
BRANCH  10  12
ATOM     12  C   UNL     1       0.674   3.154  20.395  0.00  0.00    +0.000 C 
BRANCH  12  13
ATOM     13  C   UNL     1       1.561   2.638  21.499  0.00  0.00    +0.000 C 
ATOM     14  N   UNL     1       2.900   2.494  21.302  0.00  0.00    +0.000 N 
ATOM     15  O   UNL     1       1.090   2.337  22.597  0.00  0.00    +0.000 OA
ATOM     16  H   UNL     1       3.400   2.961  20.550  0.00  0.00    +0.000 HD
ATOM     17  H   UNL     1       3.448   2.222  22.110  0.00  0.00    +0.000 HD
ENDBRANCH  12  13
ENDBRANCH  10  12
ENDBRANCH   6   7
BRANCH   1  20
ATOM     18  C   UNL     1       2.508   8.088  18.170  0.00  0.00    +0.000 C 
ATOM     19  O   UNL     1       2.347   8.608  17.068  0.00  0.00    +0.000 OA
ATOM     20  N   UNL     1       3.307   6.994  18.442  0.00  0.00    +0.000 N 
ATOM     21  H   UNL     1       3.195   6.524  19.341  0.00  0.00    +0.000 HD
BRANCH  18  25
ATOM     22  C   UNL     1       0.121   9.480  21.444  0.00  0.00    +0.000 A 
ATOM     23  C   UNL     1       0.896   8.328  21.552  0.00  0.00    +0.000 A 
ATOM     24  C   UNL     1       1.688   7.916  20.484  0.00  0.00    +0.000 A 
ATOM     25  C   UNL     1       1.707   8.647  19.288  0.00  0.00    +0.000 A 
ATOM     26  C   UNL     1       0.914   9.792  19.166  0.00  0.00    +0.000 A 
ATOM     27  C   UNL     1       0.118  10.204  20.247  0.00  0.00    +0.000 A 
BRANCH  22  29
ATOM     28  C   UNL     1      -1.008  11.132  22.692  0.00  0.00    +0.000 C 
ATOM     29  O   UNL     1      -0.633   9.769  22.548  0.00  0.00    +0.000 OA
ENDBRANCH  22  29
ENDBRANCH  18  25
ENDBRANCH   1  20
TORSDOF 6
ENDMDL
MODEL 3
REMARK VINA RESULT:      -7.6      2.645      5.011
REMARK  Name = 
REMARK  7 active torsions:
REMARK  status: ('A' for Active; 'I' for Inactive)
REMARK    1  A    between atoms: C_1  and  O_2
REMARK    2  A    between atoms: O_2  and  C_3
REMARK    3  A    between atoms: C_6  and  C_7
REMARK    4  A    between atoms: N_9  and  C_10
REMARK    5  A    between atoms: C_15  and  C_16
REMARK    6  A    between atoms: N_19  and  C_20
REMARK    7  A    between atoms: C_20  and  C_21
REMARK                            x       y       z     vdW  Elec       q    Type
REMARK                         _______ _______ _______ _____ _____    ______ ____
ROOT
ATOM      1  C   UNL     1       2.401   4.356  18.519  0.00  0.00    +0.000 A 
ATOM      2  C   UNL     1       1.304   3.482  18.570  0.00  0.00    +0.000 A 
ATOM      3  C   UNL     1       1.470   2.104  18.704  0.00  0.00    +0.000 A 
ATOM      4  C   UNL     1       2.745   1.565  18.763  0.00  0.00    +0.000 A 
ATOM      5  C   UNL     1       3.854   2.408  18.678  0.00  0.00    +0.000 A 
ATOM      6  C   UNL     1       3.705   3.808  18.553  0.00  0.00    +0.000 A 
ENDROOT
BRANCH   6   7
ATOM      7  C   UNL     1       4.915   4.627  18.497  0.00  0.00    +0.000 A 
ATOM      8  N   UNL     1       6.016   4.393  19.295  0.00  0.00    +0.000 NA
ATOM      9  N   UNL     1       6.938   5.281  18.958  0.00  0.00    +0.000 NA
ATOM     10  N   UNL     1       6.363   6.026  18.000  0.00  0.00    +0.000 N 
ATOM     11  N   UNL     1       5.105   5.671  17.665  0.00  0.00    +0.000 NA
BRANCH  10  12
ATOM     12  C   UNL     1       7.123   6.965  17.210  0.00  0.00    +0.000 C 
BRANCH  12  13
ATOM     13  C   UNL     1       7.887   8.002  17.992  0.00  0.00    +0.000 C 
ATOM     14  N   UNL     1       8.653   7.640  19.057  0.00  0.00    +0.000 N 
ATOM     15  O   UNL     1       7.831   9.193  17.682  0.00  0.00    +0.000 OA
ATOM     16  H   UNL     1       8.969   6.687  19.212  0.00  0.00    +0.000 HD
ATOM     17  H   UNL     1       9.204   8.375  19.487  0.00  0.00    +0.000 HD
ENDBRANCH  12  13
ENDBRANCH  10  12
ENDBRANCH   6   7
BRANCH   1  20
ATOM     18  C   UNL     1       1.956   6.597  19.521  0.00  0.00    +0.000 C 
ATOM     19  O   UNL     1       1.880   6.250  20.698  0.00  0.00    +0.000 OA
ATOM     20  N   UNL     1       2.205   5.767  18.445  0.00  0.00    +0.000 N 
ATOM     21  H   UNL     1       2.457   6.193  17.552  0.00  0.00    +0.000 HD
BRANCH  18  25
ATOM     22  C   UNL     1       1.409  10.790  18.829  0.00  0.00    +0.000 A 
ATOM     23  C   UNL     1       0.975  10.188  20.007  0.00  0.00    +0.000 A 
ATOM     24  C   UNL     1       1.194   8.830  20.221  0.00  0.00    +0.000 A 
ATOM     25  C   UNL     1       1.844   8.053  19.252  0.00  0.00    +0.000 A 
ATOM     26  C   UNL     1       2.262   8.646  18.057  0.00  0.00    +0.000 A 
ATOM     27  C   UNL     1       2.040  10.017  17.847  0.00  0.00    +0.000 A 
BRANCH  22  29
ATOM     28  C   UNL     1      -0.131  12.517  19.279  0.00  0.00    +0.000 C 
ATOM     29  O   UNL     1       1.115  12.120  18.722  0.00  0.00    +0.000 OA
ENDBRANCH  22  29
ENDBRANCH  18  25
ENDBRANCH   1  20
TORSDOF 6
ENDMDL
MODEL 4
REMARK VINA RESULT:      -7.5      1.088      1.232
REMARK  Name = 
REMARK  7 active torsions:
REMARK  status: ('A' for Active; 'I' for Inactive)
REMARK    1  A    between atoms: C_1  and  O_2
REMARK    2  A    between atoms: O_2  and  C_3
REMARK    3  A    between atoms: C_6  and  C_7
REMARK    4  A    between atoms: N_9  and  C_10
REMARK    5  A    between atoms: C_15  and  C_16
REMARK    6  A    between atoms: N_19  and  C_20
REMARK    7  A    between atoms: C_20  and  C_21
REMARK                            x       y       z     vdW  Elec       q    Type
REMARK                         _______ _______ _______ _____ _____    ______ ____
ROOT
ATOM      1  C   UNL     1       4.442   5.863  17.024  0.00  0.00    +0.000 A 
ATOM      2  C   UNL     1       5.080   6.653  16.054  0.00  0.00    +0.000 A 
ATOM      3  C   UNL     1       5.832   6.086  15.025  0.00  0.00    +0.000 A 
ATOM      4  C   UNL     1       5.986   4.711  14.961  0.00  0.00    +0.000 A 
ATOM      5  C   UNL     1       5.393   3.905  15.933  0.00  0.00    +0.000 A 
ATOM      6  C   UNL     1       4.619   4.460  16.976  0.00  0.00    +0.000 A 
ENDROOT
BRANCH   6   7
ATOM      7  C   UNL     1       4.007   3.548  17.942  0.00  0.00    +0.000 A 
ATOM      8  N   UNL     1       3.765   2.218  17.666  0.00  0.00    +0.000 NA
ATOM      9  N   UNL     1       3.252   1.680  18.762  0.00  0.00    +0.000 NA
ATOM     10  N   UNL     1       3.181   2.692  19.640  0.00  0.00    +0.000 N 
ATOM     11  N   UNL     1       3.636   3.882  19.195  0.00  0.00    +0.000 NA
BRANCH  10  12
ATOM     12  C   UNL     1       2.884   2.468  21.035  0.00  0.00    +0.000 C 
BRANCH  12  13
ATOM     13  C   UNL     1       1.469   2.778  21.455  0.00  0.00    +0.000 C 
ATOM     14  N   UNL     1       0.638   3.470  20.628  0.00  0.00    +0.000 N 
ATOM     15  O   UNL     1       1.043   2.412  22.551  0.00  0.00    +0.000 OA
ATOM     16  H   UNL     1       0.807   3.569  19.631  0.00  0.00    +0.000 HD
ATOM     17  H   UNL     1      -0.322   3.572  20.938  0.00  0.00    +0.000 HD
ENDBRANCH  12  13
ENDBRANCH  10  12
ENDBRANCH   6   7
BRANCH   1  20
ATOM     18  C   UNL     1       2.922   7.642  17.888  0.00  0.00    +0.000 C 
ATOM     19  O   UNL     1       2.879   8.341  16.879  0.00  0.00    +0.000 OA
ATOM     20  N   UNL     1       3.627   6.462  18.029  0.00  0.00    +0.000 N 
ATOM     21  H   UNL     1       3.417   5.864  18.829  0.00  0.00    +0.000 HD
BRANCH  18  25
ATOM     22  C   UNL     1       0.567   9.106  21.154  0.00  0.00    +0.000 A 
ATOM     23  C   UNL     1       0.712   9.841  19.980  0.00  0.00    +0.000 A 
ATOM     24  C   UNL     1       1.456   9.327  18.922  0.00  0.00    +0.000 A 
ATOM     25  C   UNL     1       2.074   8.073  19.028  0.00  0.00    +0.000 A 
ATOM     26  C   UNL     1       1.950   7.341  20.213  0.00  0.00    +0.000 A 
ATOM     27  C   UNL     1       1.197   7.863  21.276  0.00  0.00    +0.000 A 
BRANCH  22  29
ATOM     28  C   UNL     1      -0.680  11.004  21.790  0.00  0.00    +0.000 C 
ATOM     29  O   UNL     1      -0.164   9.724  22.131  0.00  0.00    +0.000 OA
ENDBRANCH  22  29
ENDBRANCH  18  25
ENDBRANCH   1  20
TORSDOF 6
ENDMDL
MODEL 5
REMARK VINA RESULT:      -7.5      1.350      1.582
REMARK  Name = 
REMARK  7 active torsions:
REMARK  status: ('A' for Active; 'I' for Inactive)
REMARK    1  A    between atoms: C_1  and  O_2
REMARK    2  A    between atoms: O_2  and  C_3
REMARK    3  A    between atoms: C_6  and  C_7
REMARK    4  A    between atoms: N_9  and  C_10
REMARK    5  A    between atoms: C_15  and  C_16
REMARK    6  A    between atoms: N_19  and  C_20
REMARK    7  A    between atoms: C_20  and  C_21
REMARK                            x       y       z     vdW  Elec       q    Type
REMARK                         _______ _______ _______ _____ _____    ______ ____
ROOT
ATOM      1  C   UNL     1       4.582   5.769  16.775  0.00  0.00    +0.000 A 
ATOM      2  C   UNL     1       5.721   6.291  16.141  0.00  0.00    +0.000 A 
ATOM      3  C   UNL     1       6.688   5.461  15.571  0.00  0.00    +0.000 A 
ATOM      4  C   UNL     1       6.547   4.085  15.647  0.00  0.00    +0.000 A 
ATOM      5  C   UNL     1       5.443   3.540  16.304  0.00  0.00    +0.000 A 
ATOM      6  C   UNL     1       4.449   4.364  16.877  0.00  0.00    +0.000 A 
ENDROOT
BRANCH   6   7
ATOM      7  C   UNL     1       3.307   3.718  17.524  0.00  0.00    +0.000 A 
ATOM      8  N   UNL     1       2.208   3.264  16.825  0.00  0.00    +0.000 NA
ATOM      9  N   UNL     1       1.393   2.699  17.702  0.00  0.00    +0.000 NA
ATOM     10  N   UNL     1       2.008   2.849  18.887  0.00  0.00    +0.000 N 
ATOM     11  N   UNL     1       3.203   3.474  18.847  0.00  0.00    +0.000 NA
BRANCH  10  12
ATOM     12  C   UNL     1       1.548   2.167  20.073  0.00  0.00    +0.000 C 
BRANCH  12  13
ATOM     13  C   UNL     1       1.656   2.951  21.356  0.00  0.00    +0.000 C 
ATOM     14  N   UNL     1       1.950   4.280  21.331  0.00  0.00    +0.000 N 
ATOM     15  O   UNL     1       1.481   2.404  22.445  0.00  0.00    +0.000 OA
ATOM     16  H   UNL     1       1.841   4.855  20.500  0.00  0.00    +0.000 HD
ATOM     17  H   UNL     1       1.926   4.763  22.222  0.00  0.00    +0.000 HD
ENDBRANCH  12  13
ENDBRANCH  10  12
ENDBRANCH   6   7
BRANCH   1  20
ATOM     18  C   UNL     1       3.306   6.834  18.634  0.00  0.00    +0.000 C 
ATOM     19  O   UNL     1       3.895   6.307  19.575  0.00  0.00    +0.000 OA
ATOM     20  N   UNL     1       3.577   6.637  17.294  0.00  0.00    +0.000 N 
ATOM     21  H   UNL     1       3.172   7.285  16.617  0.00  0.00    +0.000 HD
BRANCH  18  25
ATOM     22  C   UNL     1       0.413   9.869  19.515  0.00  0.00    +0.000 A 
ATOM     23  C   UNL     1       0.943   9.723  18.236  0.00  0.00    +0.000 A 
ATOM     24  C   UNL     1       1.857   8.708  17.968  0.00  0.00    +0.000 A 
ATOM     25  C   UNL     1       2.261   7.830  18.983  0.00  0.00    +0.000 A 
ATOM     26  C   UNL     1       1.750   7.984  20.275  0.00  0.00    +0.000 A 
ATOM     27  C   UNL     1       0.827   9.009  20.539  0.00  0.00    +0.000 A 
BRANCH  22  29
ATOM     28  C   UNL     1      -1.571  10.912  18.782  0.00  0.00    +0.000 C 
ATOM     29  O   UNL     1      -0.454  10.916  19.661  0.00  0.00    +0.000 OA
ENDBRANCH  22  29
ENDBRANCH  18  25
ENDBRANCH   1  20
TORSDOF 6
ENDMDL
MODEL 6
REMARK VINA RESULT:      -7.5      2.692      7.376
REMARK  Name = 
REMARK  7 active torsions:
REMARK  status: ('A' for Active; 'I' for Inactive)
REMARK    1  A    between atoms: C_1  and  O_2
REMARK    2  A    between atoms: O_2  and  C_3
REMARK    3  A    between atoms: C_6  and  C_7
REMARK    4  A    between atoms: N_9  and  C_10
REMARK    5  A    between atoms: C_15  and  C_16
REMARK    6  A    between atoms: N_19  and  C_20
REMARK    7  A    between atoms: C_20  and  C_21
REMARK                            x       y       z     vdW  Elec       q    Type
REMARK                         _______ _______ _______ _____ _____    ______ ____
ROOT
ATOM      1  C   UNL     1       3.377   3.892  19.468  0.00  0.00    +0.000 A 
ATOM      2  C   UNL     1       3.508   2.646  20.101  0.00  0.00    +0.000 A 
ATOM      3  C   UNL     1       2.811   2.340  21.270  0.00  0.00    +0.000 A 
ATOM      4  C   UNL     1       1.984   3.290  21.849  0.00  0.00    +0.000 A 
ATOM      5  C   UNL     1       1.864   4.550  21.260  0.00  0.00    +0.000 A 
ATOM      6  C   UNL     1       2.554   4.873  20.071  0.00  0.00    +0.000 A 
ENDROOT
BRANCH   6   7
ATOM      7  C   UNL     1       2.356   6.206  19.500  0.00  0.00    +0.000 A 
ATOM      8  N   UNL     1       2.475   6.467  18.151  0.00  0.00    +0.000 NA
ATOM      9  N   UNL     1       2.189   7.748  17.975  0.00  0.00    +0.000 NA
ATOM     10  N   UNL     1       1.933   8.215  19.208  0.00  0.00    +0.000 N 
ATOM     11  N   UNL     1       2.018   7.306  20.202  0.00  0.00    +0.000 NA
BRANCH  10  12
ATOM     12  C   UNL     1       1.360   9.522  19.421  0.00  0.00    +0.000 C 
BRANCH  12  13
ATOM     13  C   UNL     1       0.758   9.751  20.784  0.00  0.00    +0.000 C 
ATOM     14  N   UNL     1      -0.238   8.946  21.245  0.00  0.00    +0.000 N 
ATOM     15  O   UNL     1       1.155  10.670  21.502  0.00  0.00    +0.000 OA
ATOM     16  H   UNL     1      -0.432   8.028  20.854  0.00  0.00    +0.000 HD
ATOM     17  H   UNL     1      -0.539   9.105  22.200  0.00  0.00    +0.000 HD
ENDBRANCH  12  13
ENDBRANCH  10  12
ENDBRANCH   6   7
BRANCH   1  20
ATOM     18  C   UNL     1       5.400   4.420  18.109  0.00  0.00    +0.000 C 
ATOM     19  O   UNL     1       6.223   4.446  19.022  0.00  0.00    +0.000 OA
ATOM     20  N   UNL     1       4.050   4.159  18.240  0.00  0.00    +0.000 N 
ATOM     21  H   UNL     1       3.512   3.954  17.397  0.00  0.00    +0.000 HD
BRANCH  18  25
ATOM     22  C   UNL     1       6.929   4.735  14.119  0.00  0.00    +0.000 A 
ATOM     23  C   UNL     1       5.885   3.866  14.428  0.00  0.00    +0.000 A 
ATOM     24  C   UNL     1       5.385   3.807  15.725  0.00  0.00    +0.000 A 
ATOM     25  C   UNL     1       5.932   4.611  16.736  0.00  0.00    +0.000 A 
ATOM     26  C   UNL     1       6.994   5.469  16.437  0.00  0.00    +0.000 A 
ATOM     27  C   UNL     1       7.493   5.526  15.126  0.00  0.00    +0.000 A 
BRANCH  22  29
ATOM     28  C   UNL     1       6.725   3.698  12.011  0.00  0.00    +0.000 C 
ATOM     29  O   UNL     1       7.350   4.686  12.819  0.00  0.00    +0.000 OA
ENDBRANCH  22  29
ENDBRANCH  18  25
ENDBRANCH   1  20
TORSDOF 6
ENDMDL
MODEL 7
REMARK VINA RESULT:      -7.5      2.590      5.119
REMARK  Name = 
REMARK  7 active torsions:
REMARK  status: ('A' for Active; 'I' for Inactive)
REMARK    1  A    between atoms: C_1  and  O_2
REMARK    2  A    between atoms: O_2  and  C_3
REMARK    3  A    between atoms: C_6  and  C_7
REMARK    4  A    between atoms: N_9  and  C_10
REMARK    5  A    between atoms: C_15  and  C_16
REMARK    6  A    between atoms: N_19  and  C_20
REMARK    7  A    between atoms: C_20  and  C_21
REMARK                            x       y       z     vdW  Elec       q    Type
REMARK                         _______ _______ _______ _____ _____    ______ ____
ROOT
ATOM      1  C   UNL     1       2.211   4.940  19.963  0.00  0.00    +0.000 A 
ATOM      2  C   UNL     1       1.117   4.275  20.539  0.00  0.00    +0.000 A 
ATOM      3  C   UNL     1       1.220   2.967  21.012  0.00  0.00    +0.000 A 
ATOM      4  C   UNL     1       2.419   2.282  20.892  0.00  0.00    +0.000 A 
ATOM      5  C   UNL     1       3.512   2.907  20.290  0.00  0.00    +0.000 A 
ATOM      6  C   UNL     1       3.429   4.235  19.816  0.00  0.00    +0.000 A 
ENDROOT
BRANCH   6   7
ATOM      7  C   UNL     1       4.626   4.830  19.221  0.00  0.00    +0.000 A 
ATOM      8  N   UNL     1       5.856   4.819  19.844  0.00  0.00    +0.000 NA
ATOM      9  N   UNL     1       6.717   5.395  19.020  0.00  0.00    +0.000 NA
ATOM     10  N   UNL     1       5.984   5.749  17.952  0.00  0.00    +0.000 N 
ATOM     11  N   UNL     1       4.675   5.426  18.013  0.00  0.00    +0.000 NA
BRANCH  10  12
ATOM     12  C   UNL     1       6.597   6.207  16.728  0.00  0.00    +0.000 C 
BRANCH  12  13
ATOM     13  C   UNL     1       6.934   5.129  15.729  0.00  0.00    +0.000 C 
ATOM     14  N   UNL     1       6.574   3.837  15.957  0.00  0.00    +0.000 N 
ATOM     15  O   UNL     1       7.542   5.399  14.692  0.00  0.00    +0.000 OA
ATOM     16  H   UNL     1       5.855   3.574  16.626  0.00  0.00    +0.000 HD
ATOM     17  H   UNL     1       6.759   3.179  15.209  0.00  0.00    +0.000 HD
ENDBRANCH  12  13
ENDBRANCH  10  12
ENDBRANCH   6   7
BRANCH   1  20
ATOM     18  C   UNL     1       1.560   7.324  20.296  0.00  0.00    +0.000 C 
ATOM     19  O   UNL     1       1.111   7.225  21.436  0.00  0.00    +0.000 OA
ATOM     20  N   UNL     1       2.099   6.298  19.544  0.00  0.00    +0.000 N 
ATOM     21  H   UNL     1       2.630   6.539  18.706  0.00  0.00    +0.000 HD
BRANCH  18  25
ATOM     22  C   UNL     1       1.425  11.298  18.699  0.00  0.00    +0.000 A 
ATOM     23  C   UNL     1       0.963  11.018  19.983  0.00  0.00    +0.000 A 
ATOM     24  C   UNL     1       1.049   9.724  20.490  0.00  0.00    +0.000 A 
ATOM     25  C   UNL     1       1.589   8.690  19.713  0.00  0.00    +0.000 A 
ATOM     26  C   UNL     1       2.034   8.960  18.415  0.00  0.00    +0.000 A 
ATOM     27  C   UNL     1       1.947  10.267  17.910  0.00  0.00    +0.000 A 
BRANCH  22  29
ATOM     28  C   UNL     1      -0.052  13.116  18.427  0.00  0.00    +0.000 C 
ATOM     29  O   UNL     1       1.265  12.597  18.303  0.00  0.00    +0.000 OA
ENDBRANCH  22  29
ENDBRANCH  18  25
ENDBRANCH   1  20
TORSDOF 6
ENDMDL
MODEL 8
REMARK VINA RESULT:      -7.5      2.734      4.877
REMARK  Name = 
REMARK  7 active torsions:
REMARK  status: ('A' for Active; 'I' for Inactive)
REMARK    1  A    between atoms: C_1  and  O_2
REMARK    2  A    between atoms: O_2  and  C_3
REMARK    3  A    between atoms: C_6  and  C_7
REMARK    4  A    between atoms: N_9  and  C_10
REMARK    5  A    between atoms: C_15  and  C_16
REMARK    6  A    between atoms: N_19  and  C_20
REMARK    7  A    between atoms: C_20  and  C_21
REMARK                            x       y       z     vdW  Elec       q    Type
REMARK                         _______ _______ _______ _____ _____    ______ ____
ROOT
ATOM      1  C   UNL     1       2.571   4.499  18.156  0.00  0.00    +0.000 A 
ATOM      2  C   UNL     1       1.667   3.524  18.607  0.00  0.00    +0.000 A 
ATOM      3  C   UNL     1       1.997   2.168  18.619  0.00  0.00    +0.000 A 
ATOM      4  C   UNL     1       3.234   1.755  18.151  0.00  0.00    +0.000 A 
ATOM      5  C   UNL     1       4.137   2.700  17.664  0.00  0.00    +0.000 A 
ATOM      6  C   UNL     1       3.825   4.078  17.654  0.00  0.00    +0.000 A 
ENDROOT
BRANCH   6   7
ATOM      7  C   UNL     1       4.835   5.010  17.152  0.00  0.00    +0.000 A 
ATOM      8  N   UNL     1       5.172   5.101  15.818  0.00  0.00    +0.000 NA
ATOM      9  N   UNL     1       6.074   6.064  15.708  0.00  0.00    +0.000 NA
ATOM     10  N   UNL     1       6.265   6.499  16.964  0.00  0.00    +0.000 N 
ATOM     11  N   UNL     1       5.524   5.887  17.911  0.00  0.00    +0.000 NA
BRANCH  10  12
ATOM     12  C   UNL     1       7.012   7.703  17.246  0.00  0.00    +0.000 C 
BRANCH  12  13
ATOM     13  C   UNL     1       8.012   7.597  18.369  0.00  0.00    +0.000 C 
ATOM     14  N   UNL     1       8.192   6.420  19.028  0.00  0.00    +0.000 N 
ATOM     15  O   UNL     1       8.683   8.573  18.709  0.00  0.00    +0.000 OA
ATOM     16  H   UNL     1       7.895   5.524  18.649  0.00  0.00    +0.000 HD
ATOM     17  H   UNL     1       8.936   6.397  19.715  0.00  0.00    +0.000 HD
ENDBRANCH  12  13
ENDBRANCH  10  12
ENDBRANCH   6   7
BRANCH   1  20
ATOM     18  C   UNL     1       2.013   6.606  19.368  0.00  0.00    +0.000 C 
ATOM     19  O   UNL     1       2.086   6.172  20.516  0.00  0.00    +0.000 OA
ATOM     20  N   UNL     1       2.235   5.884  18.212  0.00  0.00    +0.000 N 
ATOM     21  H   UNL     1       2.358   6.395  17.337  0.00  0.00    +0.000 HD
BRANCH  18  25
ATOM     22  C   UNL     1       1.438  10.823  18.876  0.00  0.00    +0.000 A 
ATOM     23  C   UNL     1       2.065  10.058  17.894  0.00  0.00    +0.000 A 
ATOM     24  C   UNL     1       2.210   8.685  18.065  0.00  0.00    +0.000 A 
ATOM     25  C   UNL     1       1.737   8.058  19.227  0.00  0.00    +0.000 A 
ATOM     26  C   UNL     1       1.127   8.824  20.225  0.00  0.00    +0.000 A 
ATOM     27  C   UNL     1       0.982  10.209  20.047  0.00  0.00    +0.000 A 
BRANCH  22  29
ATOM     28  C   UNL     1       2.579  12.742  18.116  0.00  0.00    +0.000 C 
ATOM     29  O   UNL     1       1.378  12.162  18.607  0.00  0.00    +0.000 OA
ENDBRANCH  22  29
ENDBRANCH  18  25
ENDBRANCH   1  20
TORSDOF 6
ENDMDL
MODEL 9
REMARK VINA RESULT:      -7.4      1.349      1.709
REMARK  Name = 
REMARK  7 active torsions:
REMARK  status: ('A' for Active; 'I' for Inactive)
REMARK    1  A    between atoms: C_1  and  O_2
REMARK    2  A    between atoms: O_2  and  C_3
REMARK    3  A    between atoms: C_6  and  C_7
REMARK    4  A    between atoms: N_9  and  C_10
REMARK    5  A    between atoms: C_15  and  C_16
REMARK    6  A    between atoms: N_19  and  C_20
REMARK    7  A    between atoms: C_20  and  C_21
REMARK                            x       y       z     vdW  Elec       q    Type
REMARK                         _______ _______ _______ _____ _____    ______ ____
ROOT
ATOM      1  C   UNL     1       4.662   5.971  17.129  0.00  0.00    +0.000 A 
ATOM      2  C   UNL     1       5.188   6.709  16.057  0.00  0.00    +0.000 A 
ATOM      3  C   UNL     1       6.003   6.119  15.091  0.00  0.00    +0.000 A 
ATOM      4  C   UNL     1       6.332   4.776  15.192  0.00  0.00    +0.000 A 
ATOM      5  C   UNL     1       5.852   4.028  16.268  0.00  0.00    +0.000 A 
ATOM      6  C   UNL     1       5.017   4.606  17.250  0.00  0.00    +0.000 A 
ENDROOT
BRANCH   6   7
ATOM      7  C   UNL     1       4.532   3.751  18.333  0.00  0.00    +0.000 A 
ATOM      8  N   UNL     1       5.358   3.241  19.312  0.00  0.00    +0.000 NA
ATOM      9  N   UNL     1       4.596   2.555  20.149  0.00  0.00    +0.000 NA
ATOM     10  N   UNL     1       3.356   2.654  19.642  0.00  0.00    +0.000 N 
ATOM     11  N   UNL     1       3.246   3.385  18.513  0.00  0.00    +0.000 NA
BRANCH  10  12
ATOM     12  C   UNL     1       2.195   2.229  20.387  0.00  0.00    +0.000 C 
BRANCH  12  13
ATOM     13  C   UNL     1       0.886   2.836  19.949  0.00  0.00    +0.000 C 
ATOM     14  N   UNL     1       0.489   4.045  20.432  0.00  0.00    +0.000 N 
ATOM     15  O   UNL     1       0.155   2.250  19.150  0.00  0.00    +0.000 OA
ATOM     16  H   UNL     1       1.129   4.705  20.865  0.00  0.00    +0.000 HD
ATOM     17  H   UNL     1      -0.360   4.432  20.035  0.00  0.00    +0.000 HD
ENDBRANCH  12  13
ENDBRANCH  10  12
ENDBRANCH   6   7
BRANCH   1  20
ATOM     18  C   UNL     1       2.979   7.678  17.819  0.00  0.00    +0.000 C 
ATOM     19  O   UNL     1       2.893   8.280  16.751  0.00  0.00    +0.000 OA
ATOM     20  N   UNL     1       3.781   6.581  18.070  0.00  0.00    +0.000 N 
ATOM     21  H   UNL     1       3.610   6.040  18.918  0.00  0.00    +0.000 HD
BRANCH  18  25
ATOM     22  C   UNL     1       0.449   9.210  20.919  0.00  0.00    +0.000 A 
ATOM     23  C   UNL     1       0.541   9.842  19.681  0.00  0.00    +0.000 A 
ATOM     24  C   UNL     1       1.345   9.305  18.680  0.00  0.00    +0.000 A 
ATOM     25  C   UNL     1       2.078   8.131  18.908  0.00  0.00    +0.000 A 
ATOM     26  C   UNL     1       2.007   7.505  20.156  0.00  0.00    +0.000 A 
ATOM     27  C   UNL     1       1.193   8.050  21.162  0.00  0.00    +0.000 A 
BRANCH  22  29
ATOM     28  C   UNL     1      -0.078   9.551  23.192  0.00  0.00    +0.000 C 
ATOM     29  O   UNL     1      -0.350   9.844  21.828  0.00  0.00    +0.000 OA
ENDBRANCH  22  29
ENDBRANCH  18  25
ENDBRANCH   1  20
TORSDOF 6
ENDMDL
