MODEL 1
REMARK VINA RESULT:      -7.3      0.000      0.000
REMARK  Name = 
REMARK  6 active torsions:
REMARK  status: ('A' for Active; 'I' for Inactive)
REMARK    1  A    between atoms: C_1  and  C_2
REMARK    2  A    between atoms: C_2  and  N_3
REMARK    3  A    between atoms: N_3  and  C_4
REMARK    4  A    between atoms: N_3  and  C_6
REMARK    5  A    between atoms: C_4  and  C_5
REMARK    6  A    between atoms: C_11  and  C_12
REMARK                            x       y       z     vdW  Elec       q    Type
REMARK                         _______ _______ _______ _____ _____    ______ ____
ROOT
ATOM      1  C   UNL     1       5.350   5.882  16.953  0.00  0.00    +0.000 A 
ATOM      2  S   UNL     1       4.337   7.257  16.639  0.00  0.00    +0.000 S 
ATOM      3  C   UNL     1       3.454   7.080  18.103  0.00  0.00    +0.000 A 
ATOM      4  C   UNL     1       3.737   6.051  18.910  0.00  0.00    +0.000 A 
ATOM      5  S   UNL     1       5.043   4.995  18.425  0.00  0.00    +0.000 S 
ATOM      6  C   UNL     1       3.024   5.846  20.225  0.00  0.00    +0.000 C 
ATOM      7  O   UNL     1       2.167   6.928  20.654  0.00  0.00    +0.000 OA
ATOM      8  C   UNL     1       1.835   7.903  19.754  0.00  0.00    +0.000 A 
ATOM      9  C   UNL     1       0.859   8.807  20.186  0.00  0.00    +0.000 A 
ATOM     10  C   UNL     1       0.459   9.858  19.367  0.00  0.00    +0.000 A 
ATOM     11  C   UNL     1       1.036  10.014  18.111  0.00  0.00    +0.000 A 
ATOM     12  C   UNL     1       2.010   9.111  17.678  0.00  0.00    +0.000 A 
ATOM     13  C   UNL     1       2.423   8.042  18.494  0.00  0.00    +0.000 A 
ENDROOT
BRANCH   6  14
ATOM     14  C   UNL     1       2.191   4.572  20.302  0.00  0.00    +0.000 A 
ATOM     15  C   UNL     1       1.484   4.119  19.173  0.00  0.00    +0.000 A 
ATOM     16  C   UNL     1       0.750   2.931  19.219  0.00  0.00    +0.000 A 
ATOM     17  C   UNL     1       0.714   2.177  20.390  0.00  0.00    +0.000 A 
ATOM     18  C   UNL     1       1.408   2.611  21.517  0.00  0.00    +0.000 A 
ATOM     19  C   UNL     1       2.144   3.797  21.474  0.00  0.00    +0.000 A 
ENDBRANCH   6  14
BRANCH   1  20
ATOM     20  N   UNL     1       6.303   5.382  15.985  0.00  0.00    +0.000 N 
BRANCH  20  22
ATOM     21  C   UNL     1       7.926   4.626  17.770  0.00  0.00    +0.000 C 
ATOM     22  C   UNL     1       7.181   4.311  16.476  0.00  0.00    +0.000 C 
ENDBRANCH  20  22
BRANCH  20  23
ATOM     23  C   UNL     1       5.703   5.137  14.662  0.00  0.00    +0.000 C 
ATOM     24  C   UNL     1       6.260   3.937  13.896  0.00  0.00    +0.000 C 
ENDBRANCH  20  23
ENDBRANCH   1  20
TORSDOF 4
ENDMDL
MODEL 2
REMARK VINA RESULT:      -7.2      3.137      7.201
REMARK  Name = 
REMARK  6 active torsions:
REMARK  status: ('A' for Active; 'I' for Inactive)
REMARK    1  A    between atoms: C_1  and  C_2
REMARK    2  A    between atoms: C_2  and  N_3
REMARK    3  A    between atoms: N_3  and  C_4
REMARK    4  A    between atoms: N_3  and  C_6
REMARK    5  A    between atoms: C_4  and  C_5
REMARK    6  A    between atoms: C_11  and  C_12
REMARK                            x       y       z     vdW  Elec       q    Type
REMARK                         _______ _______ _______ _____ _____    ______ ____
ROOT
ATOM      1  C   UNL     1       3.658   3.796  18.620  0.00  0.00    +0.000 A 
ATOM      2  S   UNL     1       3.460   3.636  16.902  0.00  0.00    +0.000 S 
ATOM      3  C   UNL     1       5.071   4.129  16.559  0.00  0.00    +0.000 A 
ATOM      4  C   UNL     1       5.869   4.486  17.572  0.00  0.00    +0.000 A 
ATOM      5  S   UNL     1       5.209   4.360  19.187  0.00  0.00    +0.000 S 
ATOM      6  C   UNL     1       7.303   4.904  17.353  0.00  0.00    +0.000 C 
ATOM      7  O   UNL     1       7.821   4.703  16.019  0.00  0.00    +0.000 OA
ATOM      8  C   UNL     1       6.945   4.432  15.005  0.00  0.00    +0.000 A 
ATOM      9  C   UNL     1       7.499   4.436  13.719  0.00  0.00    +0.000 A 
ATOM     10  C   UNL     1       6.711   4.149  12.610  0.00  0.00    +0.000 A 
ATOM     11  C   UNL     1       5.362   3.851  12.779  0.00  0.00    +0.000 A 
ATOM     12  C   UNL     1       4.807   3.848  14.061  0.00  0.00    +0.000 A 
ATOM     13  C   UNL     1       5.591   4.139  15.192  0.00  0.00    +0.000 A 
ENDROOT
BRANCH   6  14
ATOM     14  C   UNL     1       7.606   6.350  17.726  0.00  0.00    +0.000 A 
ATOM     15  C   UNL     1       8.344   6.641  18.889  0.00  0.00    +0.000 A 
ATOM     16  C   UNL     1       8.664   7.960  19.220  0.00  0.00    +0.000 A 
ATOM     17  C   UNL     1       8.256   9.006  18.396  0.00  0.00    +0.000 A 
ATOM     18  C   UNL     1       7.524   8.735  17.241  0.00  0.00    +0.000 A 
ATOM     19  C   UNL     1       7.204   7.418  16.907  0.00  0.00    +0.000 A 
ENDBRANCH   6  14
BRANCH   1  20
ATOM     20  N   UNL     1       2.559   3.627  19.547  0.00  0.00    +0.000 N 
BRANCH  20  22
ATOM     21  C   UNL     1       1.613   5.661  20.713  0.00  0.00    +0.000 C 
ATOM     22  C   UNL     1       2.604   4.502  20.727  0.00  0.00    +0.000 C 
ENDBRANCH  20  22
BRANCH  20  23
ATOM     23  C   UNL     1       1.249   3.553  18.877  0.00  0.00    +0.000 C 
ATOM     24  C   UNL     1       0.628   2.158  18.793  0.00  0.00    +0.000 C 
ENDBRANCH  20  23
ENDBRANCH   1  20
TORSDOF 4
ENDMDL
MODEL 3
REMARK VINA RESULT:      -7.2      3.601      7.314
REMARK  Name = 
REMARK  6 active torsions:
REMARK  status: ('A' for Active; 'I' for Inactive)
REMARK    1  A    between atoms: C_1  and  C_2
REMARK    2  A    between atoms: C_2  and  N_3
REMARK    3  A    between atoms: N_3  and  C_4
REMARK    4  A    between atoms: N_3  and  C_6
REMARK    5  A    between atoms: C_4  and  C_5
REMARK    6  A    between atoms: C_11  and  C_12
REMARK                            x       y       z     vdW  Elec       q    Type
REMARK                         _______ _______ _______ _____ _____    ______ ____
ROOT
ATOM      1  C   UNL     1       3.622   3.937  18.713  0.00  0.00    +0.000 A 
ATOM      2  S   UNL     1       3.422   3.748  16.999  0.00  0.00    +0.000 S 
ATOM      3  C   UNL     1       5.037   4.221  16.647  0.00  0.00    +0.000 A 
ATOM      4  C   UNL     1       5.838   4.588  17.653  0.00  0.00    +0.000 A 
ATOM      5  S   UNL     1       5.178   4.496  19.270  0.00  0.00    +0.000 S 
ATOM      6  C   UNL     1       7.276   4.988  17.426  0.00  0.00    +0.000 C 
ATOM      7  O   UNL     1       7.792   4.759  16.096  0.00  0.00    +0.000 OA
ATOM      8  C   UNL     1       6.913   4.479  15.087  0.00  0.00    +0.000 A 
ATOM      9  C   UNL     1       7.466   4.456  13.801  0.00  0.00    +0.000 A 
ATOM     10  C   UNL     1       6.675   4.157  12.697  0.00  0.00    +0.000 A 
ATOM     11  C   UNL     1       5.324   3.875  12.872  0.00  0.00    +0.000 A 
ATOM     12  C   UNL     1       4.769   3.899  14.154  0.00  0.00    +0.000 A 
ATOM     13  C   UNL     1       5.557   4.202  15.280  0.00  0.00    +0.000 A 
ENDROOT
BRANCH   6  14
ATOM     14  C   UNL     1       7.593   6.438  17.774  0.00  0.00    +0.000 A 
ATOM     15  C   UNL     1       8.397   6.738  18.889  0.00  0.00    +0.000 A 
ATOM     16  C   UNL     1       8.729   8.061  19.195  0.00  0.00    +0.000 A 
ATOM     17  C   UNL     1       8.267   9.100  18.392  0.00  0.00    +0.000 A 
ATOM     18  C   UNL     1       7.469   8.820  17.284  0.00  0.00    +0.000 A 
ATOM     19  C   UNL     1       7.137   7.500  16.976  0.00  0.00    +0.000 A 
ENDBRANCH   6  14
BRANCH   1  20
ATOM     20  N   UNL     1       2.522   3.794  19.644  0.00  0.00    +0.000 N 
BRANCH  20  22
ATOM     21  C   UNL     1       0.704   2.307  18.706  0.00  0.00    +0.000 C 
ATOM     22  C   UNL     1       1.192   3.717  19.023  0.00  0.00    +0.000 C 
ENDBRANCH  20  22
BRANCH  20  23
ATOM     23  C   UNL     1       2.780   2.787  20.687  0.00  0.00    +0.000 C 
ATOM     24  C   UNL     1       1.812   2.798  21.870  0.00  0.00    +0.000 C 
ENDBRANCH  20  23
ENDBRANCH   1  20
TORSDOF 4
ENDMDL
MODEL 4
REMARK VINA RESULT:      -7.2      1.392      4.782
REMARK  Name = 
REMARK  6 active torsions:
REMARK  status: ('A' for Active; 'I' for Inactive)
REMARK    1  A    between atoms: C_1  and  C_2
REMARK    2  A    between atoms: C_2  and  N_3
REMARK    3  A    between atoms: N_3  and  C_4
REMARK    4  A    between atoms: N_3  and  C_6
REMARK    5  A    between atoms: C_4  and  C_5
REMARK    6  A    between atoms: C_11  and  C_12
REMARK                            x       y       z     vdW  Elec       q    Type
REMARK                         _______ _______ _______ _____ _____    ______ ____
ROOT
ATOM      1  C   UNL     1       5.889   5.378  17.299  0.00  0.00    +0.000 A 
ATOM      2  S   UNL     1       5.669   4.227  18.580  0.00  0.00    +0.000 S 
ATOM      3  C   UNL     1       4.018   4.642  18.819  0.00  0.00    +0.000 A 
ATOM      4  C   UNL     1       3.484   5.624  18.084  0.00  0.00    +0.000 A 
ATOM      5  S   UNL     1       4.514   6.369  16.884  0.00  0.00    +0.000 S 
ATOM      6  C   UNL     1       2.035   6.026  18.217  0.00  0.00    +0.000 C 
ATOM      7  O   UNL     1       1.213   5.160  19.032  0.00  0.00    +0.000 OA
ATOM      8  C   UNL     1       1.821   4.237  19.835  0.00  0.00    +0.000 A 
ATOM      9  C   UNL     1       0.974   3.569  20.727  0.00  0.00    +0.000 A 
ATOM     10  C   UNL     1       1.476   2.589  21.577  0.00  0.00    +0.000 A 
ATOM     11  C   UNL     1       2.828   2.266  21.538  0.00  0.00    +0.000 A 
ATOM     12  C   UNL     1       3.675   2.932  20.649  0.00  0.00    +0.000 A 
ATOM     13  C   UNL     1       3.184   3.927  19.785  0.00  0.00    +0.000 A 
ENDROOT
BRANCH   6  14
ATOM     14  C   UNL     1       1.814   7.445  18.726  0.00  0.00    +0.000 A 
ATOM     15  C   UNL     1       1.760   8.521  17.821  0.00  0.00    +0.000 A 
ATOM     16  C   UNL     1       1.518   9.821  18.272  0.00  0.00    +0.000 A 
ATOM     17  C   UNL     1       1.323  10.066  19.629  0.00  0.00    +0.000 A 
ATOM     18  C   UNL     1       1.374   9.011  20.539  0.00  0.00    +0.000 A 
ATOM     19  C   UNL     1       1.614   7.710  20.091  0.00  0.00    +0.000 A 
ENDBRANCH   6  14
BRANCH   1  20
ATOM     20  N   UNL     1       7.181   5.632  16.696  0.00  0.00    +0.000 N 
BRANCH  20  22
ATOM     21  C   UNL     1       6.403   4.019  14.910  0.00  0.00    +0.000 C 
ATOM     22  C   UNL     1       7.313   5.179  15.304  0.00  0.00    +0.000 C 
ENDBRANCH  20  22
BRANCH  20  23
ATOM     23  C   UNL     1       7.679   6.993  16.958  0.00  0.00    +0.000 C 
ATOM     24  C   UNL     1       8.055   7.291  18.409  0.00  0.00    +0.000 C 
ENDBRANCH  20  23
ENDBRANCH   1  20
TORSDOF 4
ENDMDL
MODEL 5
REMARK VINA RESULT:      -7.1      2.894      7.170
REMARK  Name = 
REMARK  6 active torsions:
REMARK  status: ('A' for Active; 'I' for Inactive)
REMARK    1  A    between atoms: C_1  and  C_2
REMARK    2  A    between atoms: C_2  and  N_3
REMARK    3  A    between atoms: N_3  and  C_4
REMARK    4  A    between atoms: N_3  and  C_6
REMARK    5  A    between atoms: C_4  and  C_5
REMARK    6  A    between atoms: C_11  and  C_12
REMARK                            x       y       z     vdW  Elec       q    Type
REMARK                         _______ _______ _______ _____ _____    ______ ____
ROOT
ATOM      1  C   UNL     1       3.442   4.114  18.688  0.00  0.00    +0.000 A 
ATOM      2  S   UNL     1       3.259   3.911  16.973  0.00  0.00    +0.000 S 
ATOM      3  C   UNL     1       4.908   4.267  16.643  0.00  0.00    +0.000 A 
ATOM      4  C   UNL     1       5.715   4.596  17.657  0.00  0.00    +0.000 A 
ATOM      5  S   UNL     1       5.024   4.577  19.263  0.00  0.00    +0.000 S 
ATOM      6  C   UNL     1       7.181   4.894  17.449  0.00  0.00    +0.000 C 
ATOM      7  O   UNL     1       7.702   4.608  16.132  0.00  0.00    +0.000 OA
ATOM      8  C   UNL     1       6.823   4.371  15.112  0.00  0.00    +0.000 A 
ATOM      9  C   UNL     1       7.395   4.288  13.837  0.00  0.00    +0.000 A 
ATOM     10  C   UNL     1       6.603   4.025  12.724  0.00  0.00    +0.000 A 
ATOM     11  C   UNL     1       5.233   3.838  12.879  0.00  0.00    +0.000 A 
ATOM     12  C   UNL     1       4.661   3.922  14.150  0.00  0.00    +0.000 A 
ATOM     13  C   UNL     1       5.448   4.190  15.285  0.00  0.00    +0.000 A 
ENDROOT
BRANCH   6  14
ATOM     14  C   UNL     1       7.590   6.325  17.780  0.00  0.00    +0.000 A 
ATOM     15  C   UNL     1       7.172   7.388  16.959  0.00  0.00    +0.000 A 
ATOM     16  C   UNL     1       7.506   8.708  17.274  0.00  0.00    +0.000 A 
ATOM     17  C   UNL     1       8.258   8.985  18.412  0.00  0.00    +0.000 A 
ATOM     18  C   UNL     1       8.681   7.943  19.236  0.00  0.00    +0.000 A 
ATOM     19  C   UNL     1       8.347   6.624  18.925  0.00  0.00    +0.000 A 
ENDBRANCH   6  14
BRANCH   1  20
ATOM     20  N   UNL     1       2.320   4.062  19.601  0.00  0.00    +0.000 N 
BRANCH  20  22
ATOM     21  C   UNL     1       1.576   2.517  21.458  0.00  0.00    +0.000 C 
ATOM     22  C   UNL     1       1.892   2.708  19.978  0.00  0.00    +0.000 C 
ENDBRANCH  20  22
BRANCH  20  23
ATOM     23  C   UNL     1       2.447   5.010  20.721  0.00  0.00    +0.000 C 
ATOM     24  C   UNL     1       1.662   6.314  20.576  0.00  0.00    +0.000 C 
ENDBRANCH  20  23
ENDBRANCH   1  20
TORSDOF 4
ENDMDL
MODEL 6
REMARK VINA RESULT:      -7.1      2.857      7.202
REMARK  Name = 
REMARK  6 active torsions:
REMARK  status: ('A' for Active; 'I' for Inactive)
REMARK    1  A    between atoms: C_1  and  C_2
REMARK    2  A    between atoms: C_2  and  N_3
REMARK    3  A    between atoms: N_3  and  C_4
REMARK    4  A    between atoms: N_3  and  C_6
REMARK    5  A    between atoms: C_4  and  C_5
REMARK    6  A    between atoms: C_11  and  C_12
REMARK                            x       y       z     vdW  Elec       q    Type
REMARK                         _______ _______ _______ _____ _____    ______ ____
ROOT
ATOM      1  C   UNL     1       3.587   3.844  18.630  0.00  0.00    +0.000 A 
ATOM      2  S   UNL     1       3.401   3.682  16.912  0.00  0.00    +0.000 S 
ATOM      3  C   UNL     1       5.022   4.152  16.581  0.00  0.00    +0.000 A 
ATOM      4  C   UNL     1       5.816   4.501  17.599  0.00  0.00    +0.000 A 
ATOM      5  S   UNL     1       5.141   4.389  19.208  0.00  0.00    +0.000 S 
ATOM      6  C   UNL     1       7.257   4.898  17.390  0.00  0.00    +0.000 C 
ATOM      7  O   UNL     1       7.783   4.685  16.061  0.00  0.00    +0.000 OA
ATOM      8  C   UNL     1       6.912   4.424  15.040  0.00  0.00    +0.000 A 
ATOM      9  C   UNL     1       7.476   4.416  13.759  0.00  0.00    +0.000 A 
ATOM     10  C   UNL     1       6.693   4.137  12.645  0.00  0.00    +0.000 A 
ATOM     11  C   UNL     1       5.339   3.858  12.803  0.00  0.00    +0.000 A 
ATOM     12  C   UNL     1       4.774   3.867  14.081  0.00  0.00    +0.000 A 
ATOM     13  C   UNL     1       5.553   4.150  15.218  0.00  0.00    +0.000 A 
ENDROOT
BRANCH   6  14
ATOM     14  C   UNL     1       7.578   6.341  17.761  0.00  0.00    +0.000 A 
ATOM     15  C   UNL     1       8.351   6.623  18.902  0.00  0.00    +0.000 A 
ATOM     16  C   UNL     1       8.686   7.939  19.231  0.00  0.00    +0.000 A 
ATOM     17  C   UNL     1       8.258   8.991  18.425  0.00  0.00    +0.000 A 
ATOM     18  C   UNL     1       7.491   8.729  17.291  0.00  0.00    +0.000 A 
ATOM     19  C   UNL     1       7.156   7.415  16.960  0.00  0.00    +0.000 A 
ENDBRANCH   6  14
BRANCH   1  20
ATOM     20  N   UNL     1       2.479   3.693  19.549  0.00  0.00    +0.000 N 
BRANCH  20  22
ATOM     21  C   UNL     1       1.671   2.634  21.698  0.00  0.00    +0.000 C 
ATOM     22  C   UNL     1       2.839   3.164  20.872  0.00  0.00    +0.000 C 
ENDBRANCH  20  22
BRANCH  20  23
ATOM     23  C   UNL     1       1.587   4.865  19.570  0.00  0.00    +0.000 C 
ATOM     24  C   UNL     1       2.264   6.206  19.852  0.00  0.00    +0.000 C 
ENDBRANCH  20  23
ENDBRANCH   1  20
TORSDOF 4
ENDMDL
MODEL 7
REMARK VINA RESULT:      -6.9      2.925      7.119
REMARK  Name = 
REMARK  6 active torsions:
REMARK  status: ('A' for Active; 'I' for Inactive)
REMARK    1  A    between atoms: C_1  and  C_2
REMARK    2  A    between atoms: C_2  and  N_3
REMARK    3  A    between atoms: N_3  and  C_4
REMARK    4  A    between atoms: N_3  and  C_6
REMARK    5  A    between atoms: C_4  and  C_5
REMARK    6  A    between atoms: C_11  and  C_12
REMARK                            x       y       z     vdW  Elec       q    Type
REMARK                         _______ _______ _______ _____ _____    ______ ____
ROOT
ATOM      1  C   UNL     1       3.667   3.884  18.710  0.00  0.00    +0.000 A 
ATOM      2  S   UNL     1       3.441   3.714  16.996  0.00  0.00    +0.000 S 
ATOM      3  C   UNL     1       5.057   4.168  16.627  0.00  0.00    +0.000 A 
ATOM      4  C   UNL     1       5.877   4.515  17.625  0.00  0.00    +0.000 A 
ATOM      5  S   UNL     1       5.238   4.417  19.249  0.00  0.00    +0.000 S 
ATOM      6  C   UNL     1       7.318   4.897  17.381  0.00  0.00    +0.000 C 
ATOM      7  O   UNL     1       7.812   4.673  16.042  0.00  0.00    +0.000 OA
ATOM      8  C   UNL     1       6.915   4.414  15.042  0.00  0.00    +0.000 A 
ATOM      9  C   UNL     1       7.450   4.395  13.749  0.00  0.00    +0.000 A 
ATOM     10  C   UNL     1       6.639   4.117  12.654  0.00  0.00    +0.000 A 
ATOM     11  C   UNL     1       5.287   3.852  12.845  0.00  0.00    +0.000 A 
ATOM     12  C   UNL     1       4.751   3.873  14.134  0.00  0.00    +0.000 A 
ATOM     13  C   UNL     1       5.558   4.155  15.252  0.00  0.00    +0.000 A 
ENDROOT
BRANCH   6  14
ATOM     14  C   UNL     1       7.660   6.338  17.738  0.00  0.00    +0.000 A 
ATOM     15  C   UNL     1       7.205   7.395  16.927  0.00  0.00    +0.000 A 
ATOM     16  C   UNL     1       7.477   8.723  17.266  0.00  0.00    +0.000 A 
ATOM     17  C   UNL     1       8.203   9.016  18.418  0.00  0.00    +0.000 A 
ATOM     18  C   UNL     1       8.661   7.981  19.232  0.00  0.00    +0.000 A 
ATOM     19  C   UNL     1       8.390   6.653  18.896  0.00  0.00    +0.000 A 
ENDBRANCH   6  14
BRANCH   1  20
ATOM     20  N   UNL     1       2.578   3.748  19.654  0.00  0.00    +0.000 N 
BRANCH  20  22
ATOM     21  C   UNL     1       2.104   6.175  20.179  0.00  0.00    +0.000 C 
ATOM     22  C   UNL     1       1.599   4.843  19.632  0.00  0.00    +0.000 C 
ENDBRANCH  20  22
BRANCH  20  23
ATOM     23  C   UNL     1       1.997   2.395  19.669  0.00  0.00    +0.000 C 
ATOM     24  C   UNL     1       0.674   2.235  18.919  0.00  0.00    +0.000 C 
ENDBRANCH  20  23
ENDBRANCH   1  20
TORSDOF 4
ENDMDL
MODEL 8
REMARK VINA RESULT:      -6.9      0.750      1.528
REMARK  Name = 
REMARK  6 active torsions:
REMARK  status: ('A' for Active; 'I' for Inactive)
REMARK    1  A    between atoms: C_1  and  C_2
REMARK    2  A    between atoms: C_2  and  N_3
REMARK    3  A    between atoms: N_3  and  C_4
REMARK    4  A    between atoms: N_3  and  C_6
REMARK    5  A    between atoms: C_4  and  C_5
REMARK    6  A    between atoms: C_11  and  C_12
REMARK                            x       y       z     vdW  Elec       q    Type
REMARK                         _______ _______ _______ _____ _____    ______ ____
ROOT
ATOM      1  C   UNL     1       5.273   6.057  17.207  0.00  0.00    +0.000 A 
ATOM      2  S   UNL     1       4.206   7.384  16.865  0.00  0.00    +0.000 S 
ATOM      3  C   UNL     1       3.297   7.169  18.309  0.00  0.00    +0.000 A 
ATOM      4  C   UNL     1       3.608   6.157  19.125  0.00  0.00    +0.000 A 
ATOM      5  S   UNL     1       4.972   5.161  18.674  0.00  0.00    +0.000 S 
ATOM      6  C   UNL     1       2.874   5.921  20.424  0.00  0.00    +0.000 C 
ATOM      7  O   UNL     1       1.959   6.964  20.829  0.00  0.00    +0.000 OA
ATOM      8  C   UNL     1       1.604   7.921  19.919  0.00  0.00    +0.000 A 
ATOM      9  C   UNL     1       0.577   8.780  20.324  0.00  0.00    +0.000 A 
ATOM     10  C   UNL     1       0.149   9.810  19.493  0.00  0.00    +0.000 A 
ATOM     11  C   UNL     1       0.748   9.990  18.250  0.00  0.00    +0.000 A 
ATOM     12  C   UNL     1       1.772   9.131  17.843  0.00  0.00    +0.000 A 
ATOM     13  C   UNL     1       2.215   8.084  18.672  0.00  0.00    +0.000 A 
ENDROOT
BRANCH   6  14
ATOM     14  C   UNL     1       2.099   4.611  20.486  0.00  0.00    +0.000 A 
ATOM     15  C   UNL     1       1.339   4.185  19.381  0.00  0.00    +0.000 A 
ATOM     16  C   UNL     1       0.657   2.966  19.410  0.00  0.00    +0.000 A 
ATOM     17  C   UNL     1       0.726   2.154  20.539  0.00  0.00    +0.000 A 
ATOM     18  C   UNL     1       1.475   2.560  21.642  0.00  0.00    +0.000 A 
ATOM     19  C   UNL     1       2.158   3.777  21.615  0.00  0.00    +0.000 A 
ENDBRANCH   6  14
BRANCH   1  20
ATOM     20  N   UNL     1       6.270   5.600  16.263  0.00  0.00    +0.000 N 
BRANCH  20  22
ATOM     21  C   UNL     1       6.267   4.000  14.305  0.00  0.00    +0.000 C 
ATOM     22  C   UNL     1       5.759   5.302  14.918  0.00  0.00    +0.000 C 
ENDBRANCH  20  22
BRANCH  20  23
ATOM     23  C   UNL     1       7.503   6.405  16.296  0.00  0.00    +0.000 C 
ATOM     24  C   UNL     1       7.681   7.291  17.529  0.00  0.00    +0.000 C 
ENDBRANCH  20  23
ENDBRANCH   1  20
TORSDOF 4
ENDMDL
MODEL 9
REMARK VINA RESULT:      -6.9      1.475      4.644
REMARK  Name = 
REMARK  6 active torsions:
REMARK  status: ('A' for Active; 'I' for Inactive)
REMARK    1  A    between atoms: C_1  and  C_2
REMARK    2  A    between atoms: C_2  and  N_3
REMARK    3  A    between atoms: N_3  and  C_4
REMARK    4  A    between atoms: N_3  and  C_6
REMARK    5  A    between atoms: C_4  and  C_5
REMARK    6  A    between atoms: C_11  and  C_12
REMARK                            x       y       z     vdW  Elec       q    Type
REMARK                         _______ _______ _______ _____ _____    ______ ____
ROOT
ATOM      1  C   UNL     1       5.748   6.004  17.588  0.00  0.00    +0.000 A 
ATOM      2  S   UNL     1       5.599   4.703  18.728  0.00  0.00    +0.000 S 
ATOM      3  C   UNL     1       3.936   5.016  19.035  0.00  0.00    +0.000 A 
ATOM      4  C   UNL     1       3.349   6.053  18.426  0.00  0.00    +0.000 A 
ATOM      5  S   UNL     1       4.326   6.976  17.309  0.00  0.00    +0.000 S 
ATOM      6  C   UNL     1       1.887   6.373  18.624  0.00  0.00    +0.000 C 
ATOM      7  O   UNL     1       1.116   5.384  19.343  0.00  0.00    +0.000 OA
ATOM      8  C   UNL     1       1.777   4.401  20.025  0.00  0.00    +0.000 A 
ATOM      9  C   UNL     1       0.974   3.599  20.844  0.00  0.00    +0.000 A 
ATOM     10  C   UNL     1       1.531   2.549  21.567  0.00  0.00    +0.000 A 
ATOM     11  C   UNL     1       2.895   2.291  21.473  0.00  0.00    +0.000 A 
ATOM     12  C   UNL     1       3.697   3.092  20.658  0.00  0.00    +0.000 A 
ATOM     13  C   UNL     1       3.150   4.159  19.922  0.00  0.00    +0.000 A 
ENDROOT
BRANCH   6  14
ATOM     14  C   UNL     1       1.617   7.713  19.298  0.00  0.00    +0.000 A 
ATOM     15  C   UNL     1       1.484   8.881  18.525  0.00  0.00    +0.000 A 
ATOM     16  C   UNL     1       1.196  10.108  19.127  0.00  0.00    +0.000 A 
ATOM     17  C   UNL     1       1.034  10.187  20.508  0.00  0.00    +0.000 A 
ATOM     18  C   UNL     1       1.163   9.040  21.289  0.00  0.00    +0.000 A 
ATOM     19  C   UNL     1       1.449   7.812  20.689  0.00  0.00    +0.000 A 
ENDBRANCH   6  14
BRANCH   1  20
ATOM     20  N   UNL     1       7.017   6.381  17.002  0.00  0.00    +0.000 N 
BRANCH  20  22
ATOM     21  C   UNL     1       8.081   8.504  17.872  0.00  0.00    +0.000 C 
ATOM     22  C   UNL     1       7.976   6.983  17.938  0.00  0.00    +0.000 C 
ENDBRANCH  20  22
BRANCH  20  23
ATOM     23  C   UNL     1       7.576   5.340  16.123  0.00  0.00    +0.000 C 
ATOM     24  C   UNL     1       6.610   4.761  15.088  0.00  0.00    +0.000 C 
ENDBRANCH  20  23
ENDBRANCH   1  20
TORSDOF 4
ENDMDL
