MODEL 1
REMARK VINA RESULT:      -7.4      0.000      0.000
REMARK  Name = 
REMARK  4 active torsions:
REMARK  status: ('A' for Active; 'I' for Inactive)
REMARK    1  A    between atoms: C_1  and  C_2
REMARK    2  A    between atoms: C_7  and  C_8
REMARK    3  A    between atoms: C_11  and  N_12
REMARK    4  A    between atoms: C_15  and  O_16
REMARK                            x       y       z     vdW  Elec       q    Type
REMARK                         _______ _______ _______ _____ _____    ______ ____
ROOT
ATOM      1  C   UNL     1       1.948   9.816  18.138  0.00  0.00    +0.000 C 
ATOM      2  C   UNL     1       2.236   8.417  18.615  0.00  0.00    +0.000 A 
ATOM      3  C   UNL     1       3.039   7.573  17.830  0.00  0.00    +0.000 A 
ATOM      4  C   UNL     1       3.326   6.262  18.240  0.00  0.00    +0.000 A 
ATOM      5  C   UNL     1       2.807   5.787  19.438  0.00  0.00    +0.000 A 
ATOM      6  C   UNL     1       2.010   6.622  20.233  0.00  0.00    +0.000 A 
ATOM      7  C   UNL     1       1.718   7.938  19.833  0.00  0.00    +0.000 A 
ATOM      8  C   UNL     1       0.856   8.799  20.717  0.00  0.00    +0.000 C 
ATOM      9  C   UNL     1       3.066   4.403  19.873  0.00  0.00    +0.000 C 
ATOM     10  O   UNL     1       2.520   3.986  20.886  0.00  0.00    +0.000 OA
ATOM     11  C   UNL     1       3.947   3.588  19.016  0.00  0.00    +0.000 C 
ATOM     12  C   UNL     1       4.470   4.010  17.850  0.00  0.00    +0.000 C 
ATOM     13  C   UNL     1       4.169   5.401  17.392  0.00  0.00    +0.000 C 
ATOM     14  O   UNL     1       4.609   5.833  16.332  0.00  0.00    +0.000 OA
ENDROOT
BRANCH  11  15
ATOM     15  N   UNL     1       4.256   2.241  19.446  0.00  0.00    +0.000 N 
ATOM     16  O   UNL     1       5.062   2.087  20.368  0.00  0.00    +0.000 OA
ATOM     17  O   UNL     1       3.736   1.310  18.806  0.00  0.00    +0.000 OA
ENDBRANCH  11  15
BRANCH  12  18
ATOM     18  O   UNL     1       5.292   3.267  17.009  0.00  0.00    +0.000 OA
ATOM     19  H   UNL     1       4.764   2.685  16.422  0.00  0.00    +0.000 HD
ENDBRANCH  12  18
TORSDOF 2
ENDMDL
MODEL 2
REMARK VINA RESULT:      -7.1      1.464      3.352
REMARK  Name = 
REMARK  4 active torsions:
REMARK  status: ('A' for Active; 'I' for Inactive)
REMARK    1  A    between atoms: C_1  and  C_2
REMARK    2  A    between atoms: C_7  and  C_8
REMARK    3  A    between atoms: C_11  and  N_12
REMARK    4  A    between atoms: C_15  and  O_16
REMARK                            x       y       z     vdW  Elec       q    Type
REMARK                         _______ _______ _______ _____ _____    ______ ____
ROOT
ATOM      1  C   UNL     1       0.747   8.657  20.432  0.00  0.00    +0.000 C 
ATOM      2  C   UNL     1       1.780   8.046  19.523  0.00  0.00    +0.000 A 
ATOM      3  C   UNL     1       2.358   6.812  19.866  0.00  0.00    +0.000 A 
ATOM      4  C   UNL     1       3.326   6.215  19.045  0.00  0.00    +0.000 A 
ATOM      5  C   UNL     1       3.726   6.851  17.876  0.00  0.00    +0.000 A 
ATOM      6  C   UNL     1       3.152   8.079  17.521  0.00  0.00    +0.000 A 
ATOM      7  C   UNL     1       2.179   8.686  18.334  0.00  0.00    +0.000 A 
ATOM      8  C   UNL     1       1.592  10.007  17.915  0.00  0.00    +0.000 C 
ATOM      9  C   UNL     1       4.766   6.260  17.016  0.00  0.00    +0.000 C 
ATOM     10  O   UNL     1       5.161   6.890  16.044  0.00  0.00    +0.000 OA
ATOM     11  C   UNL     1       5.300   4.946  17.421  0.00  0.00    +0.000 C 
ATOM     12  C   UNL     1       4.940   4.296  18.543  0.00  0.00    +0.000 C 
ATOM     13  C   UNL     1       3.915   4.921  19.434  0.00  0.00    +0.000 C 
ATOM     14  O   UNL     1       3.559   4.378  20.475  0.00  0.00    +0.000 OA
ENDROOT
BRANCH  11  15
ATOM     15  N   UNL     1       6.288   4.322  16.567  0.00  0.00    +0.000 N 
ATOM     16  O   UNL     1       5.897   3.642  15.613  0.00  0.00    +0.000 OA
ATOM     17  O   UNL     1       7.480   4.455  16.891  0.00  0.00    +0.000 OA
ENDBRANCH  11  15
BRANCH  12  18
ATOM     18  O   UNL     1       5.430   3.065  18.964  0.00  0.00    +0.000 OA
ATOM     19  H   UNL     1       5.096   2.339  18.396  0.00  0.00    +0.000 HD
ENDBRANCH  12  18
TORSDOF 2
ENDMDL
MODEL 3
REMARK VINA RESULT:      -6.9      2.278      3.973
REMARK  Name = 
REMARK  4 active torsions:
REMARK  status: ('A' for Active; 'I' for Inactive)
REMARK    1  A    between atoms: C_1  and  C_2
REMARK    2  A    between atoms: C_7  and  C_8
REMARK    3  A    between atoms: C_11  and  N_12
REMARK    4  A    between atoms: C_15  and  O_16
REMARK                            x       y       z     vdW  Elec       q    Type
REMARK                         _______ _______ _______ _____ _____    ______ ____
ROOT
ATOM      1  C   UNL     1       1.687   7.443  20.656  0.00  0.00    +0.000 C 
ATOM      2  C   UNL     1       2.554   7.169  19.456  0.00  0.00    +0.000 A 
ATOM      3  C   UNL     1       3.583   6.216  19.552  0.00  0.00    +0.000 A 
ATOM      4  C   UNL     1       4.413   5.938  18.455  0.00  0.00    +0.000 A 
ATOM      5  C   UNL     1       4.222   6.615  17.257  0.00  0.00    +0.000 A 
ATOM      6  C   UNL     1       3.196   7.563  17.149  0.00  0.00    +0.000 A 
ATOM      7  C   UNL     1       2.355   7.848  18.239  0.00  0.00    +0.000 A 
ATOM      8  C   UNL     1       1.267   8.876  18.078  0.00  0.00    +0.000 C 
ATOM      9  C   UNL     1       5.104   6.364  16.103  0.00  0.00    +0.000 C 
ATOM     10  O   UNL     1       4.968   7.043  15.094  0.00  0.00    +0.000 OA
ATOM     11  C   UNL     1       6.137   5.325  16.266  0.00  0.00    +0.000 C 
ATOM     12  C   UNL     1       6.355   4.646  17.408  0.00  0.00    +0.000 C 
ATOM     13  C   UNL     1       5.484   4.935  18.589  0.00  0.00    +0.000 C 
ATOM     14  O   UNL     1       5.646   4.355  19.658  0.00  0.00    +0.000 OA
ENDROOT
BRANCH  11  15
ATOM     15  N   UNL     1       6.985   5.026  15.132  0.00  0.00    +0.000 N 
ATOM     16  O   UNL     1       7.927   5.784  14.885  0.00  0.00    +0.000 OA
ATOM     17  O   UNL     1       6.666   4.053  14.428  0.00  0.00    +0.000 OA
ENDBRANCH  11  15
BRANCH  12  18
ATOM     18  O   UNL     1       7.326   3.670  17.603  0.00  0.00    +0.000 OA
ATOM     19  H   UNL     1       7.253   2.959  16.932  0.00  0.00    +0.000 HD
ENDBRANCH  12  18
TORSDOF 2
ENDMDL
MODEL 4
REMARK VINA RESULT:      -6.8      3.513      5.493
REMARK  Name = 
REMARK  4 active torsions:
REMARK  status: ('A' for Active; 'I' for Inactive)
REMARK    1  A    between atoms: C_1  and  C_2
REMARK    2  A    between atoms: C_7  and  C_8
REMARK    3  A    between atoms: C_11  and  N_12
REMARK    4  A    between atoms: C_15  and  O_16
REMARK                            x       y       z     vdW  Elec       q    Type
REMARK                         _______ _______ _______ _____ _____    ______ ____
ROOT
ATOM      1  C   UNL     1       7.880   5.121  12.649  0.00  0.00    +0.000 C 
ATOM      2  C   UNL     1       7.003   4.731  13.809  0.00  0.00    +0.000 A 
ATOM      3  C   UNL     1       7.349   5.149  15.105  0.00  0.00    +0.000 A 
ATOM      4  C   UNL     1       6.558   4.801  16.211  0.00  0.00    +0.000 A 
ATOM      5  C   UNL     1       5.417   4.029  16.026  0.00  0.00    +0.000 A 
ATOM      6  C   UNL     1       5.060   3.612  14.737  0.00  0.00    +0.000 A 
ATOM      7  C   UNL     1       5.843   3.956  13.621  0.00  0.00    +0.000 A 
ATOM      8  C   UNL     1       5.423   3.484  12.255  0.00  0.00    +0.000 C 
ATOM      9  C   UNL     1       4.590   3.623  17.176  0.00  0.00    +0.000 C 
ATOM     10  O   UNL     1       3.646   2.866  16.991  0.00  0.00    +0.000 OA
ATOM     11  C   UNL     1       4.994   4.129  18.501  0.00  0.00    +0.000 C 
ATOM     12  C   UNL     1       6.090   4.878  18.723  0.00  0.00    +0.000 C 
ATOM     13  C   UNL     1       6.949   5.253  17.558  0.00  0.00    +0.000 C 
ATOM     14  O   UNL     1       7.965   5.924  17.704  0.00  0.00    +0.000 OA
ENDROOT
BRANCH  11  15
ATOM     15  N   UNL     1       4.171   3.783  19.640  0.00  0.00    +0.000 N 
ATOM     16  O   UNL     1       4.256   2.642  20.104  0.00  0.00    +0.000 OA
ATOM     17  O   UNL     1       3.371   4.645  20.042  0.00  0.00    +0.000 OA
ENDBRANCH  11  15
BRANCH  12  18
ATOM     18  O   UNL     1       6.509   5.362  19.957  0.00  0.00    +0.000 OA
ATOM     19  H   UNL     1       7.486   5.440  19.993  0.00  0.00    +0.000 HD
ENDBRANCH  12  18
TORSDOF 2
ENDMDL
MODEL 5
REMARK VINA RESULT:      -6.8      2.194      4.359
REMARK  Name = 
REMARK  4 active torsions:
REMARK  status: ('A' for Active; 'I' for Inactive)
REMARK    1  A    between atoms: C_1  and  C_2
REMARK    2  A    between atoms: C_7  and  C_8
REMARK    3  A    between atoms: C_11  and  N_12
REMARK    4  A    between atoms: C_15  and  O_16
REMARK                            x       y       z     vdW  Elec       q    Type
REMARK                         _______ _______ _______ _____ _____    ______ ____
ROOT
ATOM      1  C   UNL     1       5.556   6.690  15.023  0.00  0.00    +0.000 C 
ATOM      2  C   UNL     1       4.970   5.806  16.092  0.00  0.00    +0.000 A 
ATOM      3  C   UNL     1       4.204   6.383  17.119  0.00  0.00    +0.000 A 
ATOM      4  C   UNL     1       3.646   5.591  18.134  0.00  0.00    +0.000 A 
ATOM      5  C   UNL     1       3.854   4.218  18.130  0.00  0.00    +0.000 A 
ATOM      6  C   UNL     1       4.611   3.631  17.108  0.00  0.00    +0.000 A 
ATOM      7  C   UNL     1       5.173   4.413  16.083  0.00  0.00    +0.000 A 
ATOM      8  C   UNL     1       5.982   3.741  15.006  0.00  0.00    +0.000 C 
ATOM      9  C   UNL     1       3.306   3.371  19.205  0.00  0.00    +0.000 C 
ATOM     10  O   UNL     1       3.585   2.180  19.223  0.00  0.00    +0.000 OA
ATOM     11  C   UNL     1       2.483   4.041  20.228  0.00  0.00    +0.000 C 
ATOM     12  C   UNL     1       2.256   5.367  20.269  0.00  0.00    +0.000 C 
ATOM     13  C   UNL     1       2.849   6.227  19.199  0.00  0.00    +0.000 C 
ATOM     14  O   UNL     1       2.685   7.443  19.194  0.00  0.00    +0.000 OA
ENDROOT
BRANCH  11  15
ATOM     15  N   UNL     1       1.894   3.224  21.268  0.00  0.00    +0.000 N 
ATOM     16  O   UNL     1       0.763   2.763  21.085  0.00  0.00    +0.000 OA
ATOM     17  O   UNL     1       2.542   3.093  22.319  0.00  0.00    +0.000 OA
ENDBRANCH  11  15
BRANCH  12  18
ATOM     18  O   UNL     1       1.497   6.036  21.223  0.00  0.00    +0.000 OA
ATOM     19  H   UNL     1       1.601   7.007  21.140  0.00  0.00    +0.000 HD
ENDBRANCH  12  18
TORSDOF 2
ENDMDL
MODEL 6
REMARK VINA RESULT:      -6.7      3.671      4.827
REMARK  Name = 
REMARK  4 active torsions:
REMARK  status: ('A' for Active; 'I' for Inactive)
REMARK    1  A    between atoms: C_1  and  C_2
REMARK    2  A    between atoms: C_7  and  C_8
REMARK    3  A    between atoms: C_11  and  N_12
REMARK    4  A    between atoms: C_15  and  O_16
REMARK                            x       y       z     vdW  Elec       q    Type
REMARK                         _______ _______ _______ _____ _____    ______ ____
ROOT
ATOM      1  C   UNL     1       1.871   3.330  21.369  0.00  0.00    +0.000 C 
ATOM      2  C   UNL     1       2.596   3.498  20.061  0.00  0.00    +0.000 A 
ATOM      3  C   UNL     1       3.901   4.019  20.058  0.00  0.00    +0.000 A 
ATOM      4  C   UNL     1       4.607   4.193  18.858  0.00  0.00    +0.000 A 
ATOM      5  C   UNL     1       4.009   3.851  17.651  0.00  0.00    +0.000 A 
ATOM      6  C   UNL     1       2.710   3.325  17.642  0.00  0.00    +0.000 A 
ATOM      7  C   UNL     1       1.994   3.143  18.839  0.00  0.00    +0.000 A 
ATOM      8  C   UNL     1       0.600   2.577  18.782  0.00  0.00    +0.000 C 
ATOM      9  C   UNL     1       4.717   4.057  16.376  0.00  0.00    +0.000 C 
ATOM     10  O   UNL     1       4.129   3.833  15.327  0.00  0.00    +0.000 OA
ATOM     11  C   UNL     1       6.096   4.573  16.454  0.00  0.00    +0.000 C 
ATOM     12  C   UNL     1       6.712   4.916  17.601  0.00  0.00    +0.000 C 
ATOM     13  C   UNL     1       5.974   4.744  18.889  0.00  0.00    +0.000 C 
ATOM     14  O   UNL     1       6.482   5.052  19.962  0.00  0.00    +0.000 OA
ENDROOT
BRANCH  11  15
ATOM     15  N   UNL     1       6.831   4.740  15.218  0.00  0.00    +0.000 N 
ATOM     16  O   UNL     1       6.790   3.832  14.382  0.00  0.00    +0.000 OA
ATOM     17  O   UNL     1       7.519   5.767  15.103  0.00  0.00    +0.000 OA
ENDBRANCH  11  15
BRANCH  12  18
ATOM     18  O   UNL     1       8.004   5.417  17.713  0.00  0.00    +0.000 OA
ATOM     19  H   UNL     1       8.667   4.757  17.418  0.00  0.00    +0.000 HD
ENDBRANCH  12  18
TORSDOF 2
ENDMDL
MODEL 7
REMARK VINA RESULT:      -6.6      0.784      1.047
REMARK  Name = 
REMARK  4 active torsions:
REMARK  status: ('A' for Active; 'I' for Inactive)
REMARK    1  A    between atoms: C_1  and  C_2
REMARK    2  A    between atoms: C_7  and  C_8
REMARK    3  A    between atoms: C_11  and  N_12
REMARK    4  A    between atoms: C_15  and  O_16
REMARK                            x       y       z     vdW  Elec       q    Type
REMARK                         _______ _______ _______ _____ _____    ______ ____
ROOT
ATOM      1  C   UNL     1       1.443  10.442  18.450  0.00  0.00    +0.000 C 
ATOM      2  C   UNL     1       1.794   9.041  18.875  0.00  0.00    +0.000 A 
ATOM      3  C   UNL     1       2.642   8.267  18.065  0.00  0.00    +0.000 A 
ATOM      4  C   UNL     1       2.988   6.956  18.428  0.00  0.00    +0.000 A 
ATOM      5  C   UNL     1       2.483   6.411  19.602  0.00  0.00    +0.000 A 
ATOM      6  C   UNL     1       1.642   7.176  20.420  0.00  0.00    +0.000 A 
ATOM      7  C   UNL     1       1.290   8.491  20.069  0.00  0.00    +0.000 A 
ATOM      8  C   UNL     1       0.381   9.276  20.977  0.00  0.00    +0.000 C 
ATOM      9  C   UNL     1       2.805   5.025  19.986  0.00  0.00    +0.000 C 
ATOM     10  O   UNL     1       2.271   4.544  20.976  0.00  0.00    +0.000 OA
ATOM     11  C   UNL     1       3.730   4.286  19.106  0.00  0.00    +0.000 C 
ATOM     12  C   UNL     1       4.240   4.777  17.962  0.00  0.00    +0.000 C 
ATOM     13  C   UNL     1       3.877   6.169  17.556  0.00  0.00    +0.000 C 
ATOM     14  O   UNL     1       4.304   6.663  16.517  0.00  0.00    +0.000 OA
ENDROOT
BRANCH  11  15
ATOM     15  N   UNL     1       4.099   2.939  19.487  0.00  0.00    +0.000 N 
ATOM     16  O   UNL     1       3.276   2.034  19.320  0.00  0.00    +0.000 OA
ATOM     17  O   UNL     1       5.207   2.788  20.027  0.00  0.00    +0.000 OA
ENDBRANCH  11  15
BRANCH  12  18
ATOM     18  O   UNL     1       5.103   4.107  17.101  0.00  0.00    +0.000 OA
ATOM     19  H   UNL     1       5.658   4.738  16.595  0.00  0.00    +0.000 HD
ENDBRANCH  12  18
TORSDOF 2
ENDMDL
MODEL 8
REMARK VINA RESULT:      -6.6      2.196      4.113
REMARK  Name = 
REMARK  4 active torsions:
REMARK  status: ('A' for Active; 'I' for Inactive)
REMARK    1  A    between atoms: C_1  and  C_2
REMARK    2  A    between atoms: C_7  and  C_8
REMARK    3  A    between atoms: C_11  and  N_12
REMARK    4  A    between atoms: C_15  and  O_16
REMARK                            x       y       z     vdW  Elec       q    Type
REMARK                         _______ _______ _______ _____ _____    ______ ____
ROOT
ATOM      1  C   UNL     1       1.389   6.115  20.571  0.00  0.00    +0.000 C 
ATOM      2  C   UNL     1       2.315   6.158  19.385  0.00  0.00    +0.000 A 
ATOM      3  C   UNL     1       2.918   4.971  18.938  0.00  0.00    +0.000 A 
ATOM      4  C   UNL     1       3.790   4.973  17.838  0.00  0.00    +0.000 A 
ATOM      5  C   UNL     1       4.066   6.166  17.181  0.00  0.00    +0.000 A 
ATOM      6  C   UNL     1       3.465   7.355  17.614  0.00  0.00    +0.000 A 
ATOM      7  C   UNL     1       2.588   7.365  18.713  0.00  0.00    +0.000 A 
ATOM      8  C   UNL     1       1.968   8.666  19.146  0.00  0.00    +0.000 C 
ATOM      9  C   UNL     1       5.005   6.198  16.045  0.00  0.00    +0.000 C 
ATOM     10  O   UNL     1       5.298   7.277  15.548  0.00  0.00    +0.000 OA
ATOM     11  C   UNL     1       5.570   4.908  15.610  0.00  0.00    +0.000 C 
ATOM     12  C   UNL     1       5.329   3.732  16.217  0.00  0.00    +0.000 C 
ATOM     13  C   UNL     1       4.408   3.711  17.395  0.00  0.00    +0.000 C 
ATOM     14  O   UNL     1       4.162   2.669  17.994  0.00  0.00    +0.000 OA
ENDROOT
BRANCH  11  15
ATOM     15  N   UNL     1       6.458   4.907  14.466  0.00  0.00    +0.000 N 
ATOM     16  O   UNL     1       6.108   4.300  13.449  0.00  0.00    +0.000 OA
ATOM     17  O   UNL     1       7.559   5.465  14.605  0.00  0.00    +0.000 OA
ENDBRANCH  11  15
BRANCH  12  18
ATOM     18  O   UNL     1       5.853   2.499  15.844  0.00  0.00    +0.000 OA
ATOM     19  H   UNL     1       6.318   2.559  14.983  0.00  0.00    +0.000 HD
ENDBRANCH  12  18
TORSDOF 2
ENDMDL
MODEL 9
REMARK VINA RESULT:      -6.6      2.409      4.120
REMARK  Name = 
REMARK  4 active torsions:
REMARK  status: ('A' for Active; 'I' for Inactive)
REMARK    1  A    between atoms: C_1  and  C_2
REMARK    2  A    between atoms: C_7  and  C_8
REMARK    3  A    between atoms: C_11  and  N_12
REMARK    4  A    between atoms: C_15  and  O_16
REMARK                            x       y       z     vdW  Elec       q    Type
REMARK                         _______ _______ _______ _____ _____    ______ ____
ROOT
ATOM      1  C   UNL     1       0.843   4.141  20.685  0.00  0.00    +0.000 C 
ATOM      2  C   UNL     1       1.920   4.687  19.785  0.00  0.00    +0.000 A 
ATOM      3  C   UNL     1       2.624   3.810  18.942  0.00  0.00    +0.000 A 
ATOM      4  C   UNL     1       3.636   4.282  18.093  0.00  0.00    +0.000 A 
ATOM      5  C   UNL     1       3.953   5.635  18.085  0.00  0.00    +0.000 A 
ATOM      6  C   UNL     1       3.253   6.519  18.917  0.00  0.00    +0.000 A 
ATOM      7  C   UNL     1       2.234   6.059  19.770  0.00  0.00    +0.000 A 
ATOM      8  C   UNL     1       1.511   7.044  20.648  0.00  0.00    +0.000 C 
ATOM      9  C   UNL     1       5.035   6.149  17.227  0.00  0.00    +0.000 C 
ATOM     10  O   UNL     1       5.351   7.328  17.312  0.00  0.00    +0.000 OA
ATOM     11  C   UNL     1       5.705   5.176  16.344  0.00  0.00    +0.000 C 
ATOM     12  C   UNL     1       5.429   3.860  16.320  0.00  0.00    +0.000 C 
ATOM     13  C   UNL     1       4.358   3.337  17.223  0.00  0.00    +0.000 C 
ATOM     14  O   UNL     1       4.074   2.144  17.252  0.00  0.00    +0.000 OA
ENDROOT
BRANCH  11  15
ATOM     15  N   UNL     1       6.739   5.665  15.457  0.00  0.00    +0.000 N 
ATOM     16  O   UNL     1       6.622   5.459  14.245  0.00  0.00    +0.000 OA
ATOM     17  O   UNL     1       7.726   6.207  15.983  0.00  0.00    +0.000 OA
ENDBRANCH  11  15
BRANCH  12  18
ATOM     18  O   UNL     1       6.047   2.912  15.512  0.00  0.00    +0.000 OA
ATOM     19  H   UNL     1       6.669   3.335  14.883  0.00  0.00    +0.000 HD
ENDBRANCH  12  18
TORSDOF 2
ENDMDL
