MODEL 1
REMARK VINA RESULT:      -7.0      0.000      0.000
REMARK  Name = 
REMARK  5 active torsions:
REMARK  status: ('A' for Active; 'I' for Inactive)
REMARK    1  A    between atoms: C_1  and  C_2
REMARK    2  A    between atoms: C_8  and  S_9
REMARK    3  A    between atoms: S_9  and  C_10
REMARK    4  A    between atoms: C_10  and  C_11
REMARK    5  A    between atoms: N_17  and  C_18
REMARK                            x       y       z     vdW  Elec       q    Type
REMARK                         _______ _______ _______ _____ _____    ______ ____
ROOT
ATOM      1  S   UNL     1       0.960   9.636  19.300  0.00  0.00    +0.000 S 
ENDROOT
BRANCH   1   9
ATOM      2  C   UNL     1      -3.180  13.610  20.769  0.00  0.00    +0.000 C 
ATOM      3  C   UNL     1      -2.225  12.556  21.226  0.00  0.00    +0.000 A 
ATOM      4  S   UNL     1      -2.120  12.137  22.875  0.00  0.00    +0.000 S 
ATOM      5  C   UNL     1      -0.917  10.971  22.570  0.00  0.00    +0.000 A 
ATOM      6  N   UNL     1      -0.408  10.263  23.591  0.00  0.00    +0.000 NA
ATOM      7  C   UNL     1       0.520   9.388  23.202  0.00  0.00    +0.000 A 
ATOM      8  N   UNL     1       0.957   9.167  21.954  0.00  0.00    +0.000 NA
ATOM      9  C   UNL     1       0.418   9.901  20.955  0.00  0.00    +0.000 A 
ATOM     10  C   UNL     1      -0.572  10.867  21.228  0.00  0.00    +0.000 A 
ATOM     11  C   UNL     1      -1.350  11.810  20.456  0.00  0.00    +0.000 A 
ATOM     12 CL   UNL     1      -1.240  12.030  18.753  0.00  0.00    +0.000 Cl
ENDBRANCH   1   9
BRANCH   1  13
ATOM     13  C   UNL     1       1.932   8.103  19.414  0.00  0.00    +0.000 C 
BRANCH  13  14
ATOM     14  C   UNL     1       2.725   7.900  18.119  0.00  0.00    +0.000 C 
ATOM     15  O   UNL     1       2.642   8.644  17.140  0.00  0.00    +0.000 OA
ATOM     16  N   UNL     1       3.561   6.810  18.067  0.00  0.00    +0.000 N 
ATOM     17  C   UNL     1       3.795   5.813  19.095  0.00  0.00    +0.000 C 
ATOM     18  C   UNL     1       4.956   5.024  18.512  0.00  0.00    +0.000 C 
ATOM     19  O   UNL     1       5.557   4.136  19.099  0.00  0.00    +0.000 OA
ATOM     20  N   UNL     1       5.190   5.478  17.222  0.00  0.00    +0.000 N 
ATOM     21  C   UNL     1       4.307   6.540  16.873  0.00  0.00    +0.000 C 
BRANCH  20  22
ATOM     22  C   UNL     1       6.330   5.158  16.430  0.00  0.00    +0.000 C 
ATOM     23  C   UNL     1       6.446   3.846  15.707  0.00  0.00    +0.000 C 
ATOM     24  C   UNL     1       6.249   5.111  14.927  0.00  0.00    +0.000 C 
ENDBRANCH  20  22
ENDBRANCH  13  14
ENDBRANCH   1  13
TORSDOF 4
ENDMDL
MODEL 2
REMARK VINA RESULT:      -6.9      3.972      8.762
REMARK  Name = 
REMARK  5 active torsions:
REMARK  status: ('A' for Active; 'I' for Inactive)
REMARK    1  A    between atoms: C_1  and  C_2
REMARK    2  A    between atoms: C_8  and  S_9
REMARK    3  A    between atoms: S_9  and  C_10
REMARK    4  A    between atoms: C_10  and  C_11
REMARK    5  A    between atoms: N_17  and  C_18
REMARK                            x       y       z     vdW  Elec       q    Type
REMARK                         _______ _______ _______ _____ _____    ______ ____
ROOT
ATOM      1  S   UNL     1       3.782   4.079  19.419  0.00  0.00    +0.000 S 
ENDROOT
BRANCH   1   9
ATOM      2  C   UNL     1       5.401   3.842  13.727  0.00  0.00    +0.000 C 
ATOM      3  C   UNL     1       5.758   4.229  15.124  0.00  0.00    +0.000 A 
ATOM      4  S   UNL     1       7.260   4.960  15.464  0.00  0.00    +0.000 S 
ATOM      5  C   UNL     1       6.904   5.073  17.125  0.00  0.00    +0.000 A 
ATOM      6  N   UNL     1       7.806   5.615  17.960  0.00  0.00    +0.000 NA
ATOM      7  C   UNL     1       7.389   5.638  19.227  0.00  0.00    +0.000 A 
ATOM      8  N   UNL     1       6.217   5.199  19.705  0.00  0.00    +0.000 NA
ATOM      9  C   UNL     1       5.336   4.662  18.832  0.00  0.00    +0.000 A 
ATOM     10  C   UNL     1       5.653   4.571  17.460  0.00  0.00    +0.000 A 
ATOM     11  C   UNL     1       4.998   4.076  16.270  0.00  0.00    +0.000 A 
ATOM     12 CL   UNL     1       3.435   3.357  16.221  0.00  0.00    +0.000 Cl
ENDBRANCH   1   9
BRANCH   1  13
ATOM     13  C   UNL     1       3.045   5.551  20.194  0.00  0.00    +0.000 C 
BRANCH  13  14
ATOM     14  C   UNL     1       2.608   6.539  19.108  0.00  0.00    +0.000 C 
ATOM     15  O   UNL     1       2.793   6.360  17.904  0.00  0.00    +0.000 OA
ATOM     16  N   UNL     1       1.988   7.690  19.531  0.00  0.00    +0.000 N 
ATOM     17  C   UNL     1       1.686   8.097  20.890  0.00  0.00    +0.000 C 
ATOM     18  C   UNL     1       0.826   9.331  20.668  0.00  0.00    +0.000 C 
ATOM     19  O   UNL     1       0.254   9.948  21.555  0.00  0.00    +0.000 OA
ATOM     20  N   UNL     1       0.822   9.624  19.312  0.00  0.00    +0.000 N 
ATOM     21  C   UNL     1       1.584   8.676  18.570  0.00  0.00    +0.000 C 
BRANCH  20  22
ATOM     22  C   UNL     1      -0.043  10.557  18.674  0.00  0.00    +0.000 C 
ATOM     23  C   UNL     1      -1.000  10.138  17.593  0.00  0.00    +0.000 C 
ATOM     24  C   UNL     1      -1.527  10.552  18.934  0.00  0.00    +0.000 C 
ENDBRANCH  20  22
ENDBRANCH  13  14
ENDBRANCH   1  13
TORSDOF 4
ENDMDL
MODEL 3
REMARK VINA RESULT:      -6.8      2.754      3.670
REMARK  Name = 
REMARK  5 active torsions:
REMARK  status: ('A' for Active; 'I' for Inactive)
REMARK    1  A    between atoms: C_1  and  C_2
REMARK    2  A    between atoms: C_8  and  S_9
REMARK    3  A    between atoms: S_9  and  C_10
REMARK    4  A    between atoms: C_10  and  C_11
REMARK    5  A    between atoms: N_17  and  C_18
REMARK                            x       y       z     vdW  Elec       q    Type
REMARK                         _______ _______ _______ _____ _____    ______ ____
ROOT
ATOM      1  S   UNL     1       0.462   9.665  18.139  0.00  0.00    +0.000 S 
ENDROOT
BRANCH   1   9
ATOM      2  C   UNL     1      -5.151  11.511  17.723  0.00  0.00    +0.000 C 
ATOM      3  C   UNL     1      -3.848  11.589  18.450  0.00  0.00    +0.000 A 
ATOM      4  S   UNL     1      -3.676  12.595  19.816  0.00  0.00    +0.000 S 
ATOM      5  C   UNL     1      -2.049  12.140  20.027  0.00  0.00    +0.000 A 
ATOM      6  N   UNL     1      -1.341  12.667  21.040  0.00  0.00    +0.000 NA
ATOM      7  C   UNL     1      -0.086  12.219  21.082  0.00  0.00    +0.000 A 
ATOM      8  N   UNL     1       0.491  11.338  20.252  0.00  0.00    +0.000 NA
ATOM      9  C   UNL     1      -0.256  10.831  19.247  0.00  0.00    +0.000 A 
ATOM     10  C   UNL     1      -1.601  11.224  19.084  0.00  0.00    +0.000 A 
ATOM     11  C   UNL     1      -2.673  10.917  18.164  0.00  0.00    +0.000 A 
ATOM     12 CL   UNL     1      -2.559   9.837  16.829  0.00  0.00    +0.000 Cl
ENDBRANCH   1   9
BRANCH   1  13
ATOM     13  C   UNL     1       2.038   9.237  18.941  0.00  0.00    +0.000 C 
BRANCH  13  14
ATOM     14  C   UNL     1       1.833   8.032  19.865  0.00  0.00    +0.000 C 
ATOM     15  O   UNL     1       1.301   8.101  20.974  0.00  0.00    +0.000 OA
ATOM     16  N   UNL     1       2.290   6.818  19.412  0.00  0.00    +0.000 N 
ATOM     17  C   UNL     1       2.949   6.523  18.153  0.00  0.00    +0.000 C 
ATOM     18  C   UNL     1       3.000   5.004  18.171  0.00  0.00    +0.000 C 
ATOM     19  O   UNL     1       3.387   4.311  17.241  0.00  0.00    +0.000 OA
ATOM     20  N   UNL     1       2.551   4.565  19.408  0.00  0.00    +0.000 N 
ATOM     21  C   UNL     1       2.162   5.654  20.240  0.00  0.00    +0.000 C 
BRANCH  20  22
ATOM     22  C   UNL     1       2.232   3.217  19.738  0.00  0.00    +0.000 C 
ATOM     23  C   UNL     1       1.263   2.879  20.836  0.00  0.00    +0.000 C 
ATOM     24  C   UNL     1       0.885   2.629  19.407  0.00  0.00    +0.000 C 
ENDBRANCH  20  22
ENDBRANCH  13  14
ENDBRANCH   1  13
TORSDOF 4
ENDMDL
MODEL 4
REMARK VINA RESULT:      -6.8      2.124      2.321
REMARK  Name = 
REMARK  5 active torsions:
REMARK  status: ('A' for Active; 'I' for Inactive)
REMARK    1  A    between atoms: C_1  and  C_2
REMARK    2  A    between atoms: C_8  and  S_9
REMARK    3  A    between atoms: S_9  and  C_10
REMARK    4  A    between atoms: C_10  and  C_11
REMARK    5  A    between atoms: N_17  and  C_18
REMARK                            x       y       z     vdW  Elec       q    Type
REMARK                         _______ _______ _______ _____ _____    ______ ____
ROOT
ATOM      1  S   UNL     1       2.198   8.051  18.984  0.00  0.00    +0.000 S 
ENDROOT
BRANCH   1   9
ATOM      2  C   UNL     1       0.841  13.817  18.964  0.00  0.00    +0.000 C 
ATOM      3  C   UNL     1       0.693  12.489  19.631  0.00  0.00    +0.000 A 
ATOM      4  S   UNL     1      -0.264  12.325  21.032  0.00  0.00    +0.000 S 
ATOM      5  C   UNL     1       0.064  10.658  21.141  0.00  0.00    +0.000 A 
ATOM      6  N   UNL     1      -0.472   9.942  22.143  0.00  0.00    +0.000 NA
ATOM      7  C   UNL     1      -0.130   8.654  22.099  0.00  0.00    +0.000 A 
ATOM      8  N   UNL     1       0.652   8.051  21.192  0.00  0.00    +0.000 NA
ATOM      9  C   UNL     1       1.171   8.807  20.200  0.00  0.00    +0.000 A 
ATOM     10  C   UNL     1       0.893  10.188  20.130  0.00  0.00    +0.000 A 
ATOM     11  C   UNL     1       1.254  11.281  19.256  0.00  0.00    +0.000 A 
ATOM     12 CL   UNL     1       2.276  11.156  17.877  0.00  0.00    +0.000 Cl
ENDBRANCH   1   9
BRANCH   1  13
ATOM     13  C   UNL     1       2.348   6.334  19.567  0.00  0.00    +0.000 C 
BRANCH  13  14
ATOM     14  C   UNL     1       2.626   5.411  18.377  0.00  0.00    +0.000 C 
ATOM     15  O   UNL     1       1.744   4.899  17.685  0.00  0.00    +0.000 OA
ATOM     16  N   UNL     1       3.944   5.144  18.093  0.00  0.00    +0.000 N 
ATOM     17  C   UNL     1       5.124   5.631  18.782  0.00  0.00    +0.000 C 
ATOM     18  C   UNL     1       6.243   5.157  17.869  0.00  0.00    +0.000 C 
ATOM     19  O   UNL     1       7.423   5.441  18.011  0.00  0.00    +0.000 OA
ATOM     20  N   UNL     1       5.691   4.356  16.880  0.00  0.00    +0.000 N 
ATOM     21  C   UNL     1       4.276   4.260  17.014  0.00  0.00    +0.000 C 
BRANCH  20  22
ATOM     22  C   UNL     1       6.366   3.910  15.708  0.00  0.00    +0.000 C 
ATOM     23  C   UNL     1       5.733   3.998  14.348  0.00  0.00    +0.000 C 
ATOM     24  C   UNL     1       6.891   4.887  14.689  0.00  0.00    +0.000 C 
ENDBRANCH  20  22
ENDBRANCH  13  14
ENDBRANCH   1  13
TORSDOF 4
ENDMDL
MODEL 5
REMARK VINA RESULT:      -6.8      3.594      8.514
REMARK  Name = 
REMARK  5 active torsions:
REMARK  status: ('A' for Active; 'I' for Inactive)
REMARK    1  A    between atoms: C_1  and  C_2
REMARK    2  A    between atoms: C_8  and  S_9
REMARK    3  A    between atoms: S_9  and  C_10
REMARK    4  A    between atoms: C_10  and  C_11
REMARK    5  A    between atoms: N_17  and  C_18
REMARK                            x       y       z     vdW  Elec       q    Type
REMARK                         _______ _______ _______ _____ _____    ______ ____
ROOT
ATOM      1  S   UNL     1       2.163   7.400  19.901  0.00  0.00    +0.000 S 
ENDROOT
BRANCH   1   9
ATOM      2  C   UNL     1       5.152   4.180  15.928  0.00  0.00    +0.000 C 
ATOM      3  C   UNL     1       4.217   4.194  17.093  0.00  0.00    +0.000 A 
ATOM      4  S   UNL     1       3.622   2.736  17.746  0.00  0.00    +0.000 S 
ATOM      5  C   UNL     1       2.716   3.559  18.929  0.00  0.00    +0.000 A 
ATOM      6  N   UNL     1       1.978   2.857  19.804  0.00  0.00    +0.000 NA
ATOM      7  C   UNL     1       1.325   3.633  20.671  0.00  0.00    +0.000 A 
ATOM      8  N   UNL     1       1.347   4.971  20.739  0.00  0.00    +0.000 NA
ATOM      9  C   UNL     1       2.103   5.640  19.841  0.00  0.00    +0.000 A 
ATOM     10  C   UNL     1       2.842   4.941  18.863  0.00  0.00    +0.000 A 
ATOM     11  C   UNL     1       3.725   5.293  17.775  0.00  0.00    +0.000 A 
ATOM     12 CL   UNL     1       4.156   6.897  17.323  0.00  0.00    +0.000 Cl
ENDBRANCH   1   9
BRANCH   1  13
ATOM     13  C   UNL     1       0.863   7.826  21.100  0.00  0.00    +0.000 C 
BRANCH  13  14
ATOM     14  C   UNL     1       1.035   9.280  21.549  0.00  0.00    +0.000 C 
ATOM     15  O   UNL     1       1.690   9.621  22.534  0.00  0.00    +0.000 OA
ATOM     16  N   UNL     1       0.401  10.240  20.796  0.00  0.00    +0.000 N 
ATOM     17  C   UNL     1      -0.421  10.053  19.615  0.00  0.00    +0.000 C 
ATOM     18  C   UNL     1      -0.637  11.484  19.149  0.00  0.00    +0.000 C 
ATOM     19  O   UNL     1      -1.197  11.799  18.109  0.00  0.00    +0.000 OA
ATOM     20  N   UNL     1      -0.105  12.340  20.103  0.00  0.00    +0.000 N 
ATOM     21  C   UNL     1       0.490  11.620  21.178  0.00  0.00    +0.000 C 
BRANCH  20  22
ATOM     22  C   UNL     1       0.098  13.739  19.932  0.00  0.00    +0.000 C 
ATOM     23  C   UNL     1       1.260  14.452  20.564  0.00  0.00    +0.000 C 
ATOM     24  C   UNL     1       1.220  14.267  19.077  0.00  0.00    +0.000 C 
ENDBRANCH  20  22
ENDBRANCH  13  14
ENDBRANCH   1  13
TORSDOF 4
ENDMDL
MODEL 6
REMARK VINA RESULT:      -6.8      1.694      1.829
REMARK  Name = 
REMARK  5 active torsions:
REMARK  status: ('A' for Active; 'I' for Inactive)
REMARK    1  A    between atoms: C_1  and  C_2
REMARK    2  A    between atoms: C_8  and  S_9
REMARK    3  A    between atoms: S_9  and  C_10
REMARK    4  A    between atoms: C_10  and  C_11
REMARK    5  A    between atoms: N_17  and  C_18
REMARK                            x       y       z     vdW  Elec       q    Type
REMARK                         _______ _______ _______ _____ _____    ______ ____
ROOT
ATOM      1  S   UNL     1       1.802   8.024  19.110  0.00  0.00    +0.000 S 
ENDROOT
BRANCH   1   9
ATOM      2  C   UNL     1      -2.370  12.229  19.078  0.00  0.00    +0.000 C 
ATOM      3  C   UNL     1      -1.418  11.403  19.880  0.00  0.00    +0.000 A 
ATOM      4  S   UNL     1      -1.333  11.577  21.574  0.00  0.00    +0.000 S 
ATOM      5  C   UNL     1      -0.124  10.386  21.701  0.00  0.00    +0.000 A 
ATOM      6  N   UNL     1       0.374  10.075  22.909  0.00  0.00    +0.000 NA
ATOM      7  C   UNL     1       1.310   9.127  22.855  0.00  0.00    +0.000 A 
ATOM      8  N   UNL     1       1.764   8.494  21.764  0.00  0.00    +0.000 NA
ATOM      9  C   UNL     1       1.237   8.836  20.567  0.00  0.00    +0.000 A 
ATOM     10  C   UNL     1       0.240   9.830  20.481  0.00  0.00    +0.000 A 
ATOM     11  C   UNL     1      -0.530  10.445  19.423  0.00  0.00    +0.000 A 
ATOM     12 CL   UNL     1      -0.398  10.069  17.749  0.00  0.00    +0.000 Cl
ENDBRANCH   1   9
BRANCH   1  13
ATOM     13  C   UNL     1       2.281   6.373  19.706  0.00  0.00    +0.000 C 
BRANCH  13  14
ATOM     14  C   UNL     1       2.565   5.458  18.510  0.00  0.00    +0.000 C 
ATOM     15  O   UNL     1       1.687   4.975  17.793  0.00  0.00    +0.000 OA
ATOM     16  N   UNL     1       3.882   5.167  18.252  0.00  0.00    +0.000 N 
ATOM     17  C   UNL     1       5.057   5.620  18.973  0.00  0.00    +0.000 C 
ATOM     18  C   UNL     1       6.186   5.133  18.077  0.00  0.00    +0.000 C 
ATOM     19  O   UNL     1       7.369   5.389  18.249  0.00  0.00    +0.000 OA
ATOM     20  N   UNL     1       5.638   4.355  17.067  0.00  0.00    +0.000 N 
ATOM     21  C   UNL     1       4.219   4.289  17.169  0.00  0.00    +0.000 C 
BRANCH  20  22
ATOM     22  C   UNL     1       6.330   3.910  15.905  0.00  0.00    +0.000 C 
ATOM     23  C   UNL     1       5.751   4.074  14.528  0.00  0.00    +0.000 C 
ATOM     24  C   UNL     1       6.942   4.888  14.936  0.00  0.00    +0.000 C 
ENDBRANCH  20  22
ENDBRANCH  13  14
ENDBRANCH   1  13
TORSDOF 4
ENDMDL
MODEL 7
REMARK VINA RESULT:      -6.8      2.526      3.058
REMARK  Name = 
REMARK  5 active torsions:
REMARK  status: ('A' for Active; 'I' for Inactive)
REMARK    1  A    between atoms: C_1  and  C_2
REMARK    2  A    between atoms: C_8  and  S_9
REMARK    3  A    between atoms: S_9  and  C_10
REMARK    4  A    between atoms: C_10  and  C_11
REMARK    5  A    between atoms: N_17  and  C_18
REMARK                            x       y       z     vdW  Elec       q    Type
REMARK                         _______ _______ _______ _____ _____    ______ ____
ROOT
ATOM      1  S   UNL     1       1.432   7.007  20.062  0.00  0.00    +0.000 S 
ENDROOT
BRANCH   1   9
ATOM      2  C   UNL     1      -1.209  11.530  22.827  0.00  0.00    +0.000 C 
ATOM      3  C   UNL     1      -0.385  11.067  21.670  0.00  0.00    +0.000 A 
ATOM      4  S   UNL     1       0.161  12.176  20.496  0.00  0.00    +0.000 S 
ATOM      5  C   UNL     1       0.952  10.953  19.615  0.00  0.00    +0.000 A 
ATOM      6  N   UNL     1       1.612  11.270  18.488  0.00  0.00    +0.000 NA
ATOM      7  C   UNL     1       2.183  10.214  17.908  0.00  0.00    +0.000 A 
ATOM      8  N   UNL     1       2.158   8.942  18.331  0.00  0.00    +0.000 NA
ATOM      9  C   UNL     1       1.483   8.665  19.469  0.00  0.00    +0.000 A 
ATOM     10  C   UNL     1       0.828   9.691  20.182  0.00  0.00    +0.000 A 
ATOM     11  C   UNL     1       0.035   9.780  21.387  0.00  0.00    +0.000 A 
ATOM     12 CL   UNL     1      -0.380   8.456  22.404  0.00  0.00    +0.000 Cl
ENDBRANCH   1   9
BRANCH   1  13
ATOM     13  C   UNL     1       3.112   6.390  19.735  0.00  0.00    +0.000 C 
BRANCH  13  14
ATOM     14  C   UNL     1       3.123   5.597  18.425  0.00  0.00    +0.000 C 
ATOM     15  O   UNL     1       2.113   5.356  17.761  0.00  0.00    +0.000 OA
ATOM     16  N   UNL     1       4.340   5.129  17.993  0.00  0.00    +0.000 N 
ATOM     17  C   UNL     1       5.636   5.291  18.624  0.00  0.00    +0.000 C 
ATOM     18  C   UNL     1       6.577   4.741  17.564  0.00  0.00    +0.000 C 
ATOM     19  O   UNL     1       7.797   4.777  17.630  0.00  0.00    +0.000 OA
ATOM     20  N   UNL     1       5.813   4.195  16.542  0.00  0.00    +0.000 N 
ATOM     21  C   UNL     1       4.419   4.349  16.791  0.00  0.00    +0.000 C 
BRANCH  20  22
ATOM     22  C   UNL     1       6.308   3.791  15.270  0.00  0.00    +0.000 C 
ATOM     23  C   UNL     1       5.550   4.067  14.001  0.00  0.00    +0.000 C 
ATOM     24  C   UNL     1       6.830   4.797  14.278  0.00  0.00    +0.000 C 
ENDBRANCH  20  22
ENDBRANCH  13  14
ENDBRANCH   1  13
TORSDOF 4
ENDMDL
MODEL 8
REMARK VINA RESULT:      -6.7      3.911      9.027
REMARK  Name = 
REMARK  5 active torsions:
REMARK  status: ('A' for Active; 'I' for Inactive)
REMARK    1  A    between atoms: C_1  and  C_2
REMARK    2  A    between atoms: C_8  and  S_9
REMARK    3  A    between atoms: S_9  and  C_10
REMARK    4  A    between atoms: C_10  and  C_11
REMARK    5  A    between atoms: N_17  and  C_18
REMARK                            x       y       z     vdW  Elec       q    Type
REMARK                         _______ _______ _______ _____ _____    ______ ____
ROOT
ATOM      1  S   UNL     1       4.154   3.841  19.484  0.00  0.00    +0.000 S 
ENDROOT
BRANCH   1   9
ATOM      2  C   UNL     1       5.538   3.863  13.724  0.00  0.00    +0.000 C 
ATOM      3  C   UNL     1       5.917   4.258  15.114  0.00  0.00    +0.000 A 
ATOM      4  S   UNL     1       7.356   5.124  15.407  0.00  0.00    +0.000 S 
ATOM      5  C   UNL     1       7.064   5.172  17.083  0.00  0.00    +0.000 A 
ATOM      6  N   UNL     1       7.946   5.782  17.892  0.00  0.00    +0.000 NA
ATOM      7  C   UNL     1       7.585   5.743  19.175  0.00  0.00    +0.000 A 
ATOM      8  N   UNL     1       6.482   5.184  19.692  0.00  0.00    +0.000 NA
ATOM      9  C   UNL     1       5.619   4.581  18.845  0.00  0.00    +0.000 A 
ATOM     10  C   UNL     1       5.882   4.545  17.459  0.00  0.00    +0.000 A 
ATOM     11  C   UNL     1       5.226   4.012  16.287  0.00  0.00    +0.000 A 
ATOM     12 CL   UNL     1       3.738   3.147  16.288  0.00  0.00    +0.000 Cl
ENDBRANCH   1   9
BRANCH   1  13
ATOM     13  C   UNL     1       2.841   4.988  18.965  0.00  0.00    +0.000 C 
BRANCH  13  14
ATOM     14  C   UNL     1       2.240   5.673  20.197  0.00  0.00    +0.000 C 
ATOM     15  O   UNL     1       2.108   5.122  21.291  0.00  0.00    +0.000 OA
ATOM     16  N   UNL     1       1.823   6.973  20.042  0.00  0.00    +0.000 N 
ATOM     17  C   UNL     1       1.879   7.795  18.848  0.00  0.00    +0.000 C 
ATOM     18  C   UNL     1       1.473   9.159  19.383  0.00  0.00    +0.000 C 
ATOM     19  O   UNL     1       1.485  10.193  18.730  0.00  0.00    +0.000 OA
ATOM     20  N   UNL     1       1.086   9.013  20.707  0.00  0.00    +0.000 N 
ATOM     21  C   UNL     1       1.220   7.664  21.145  0.00  0.00    +0.000 C 
BRANCH  20  22
ATOM     22  C   UNL     1       0.860  10.081  21.621  0.00  0.00    +0.000 C 
ATOM     23  C   UNL     1      -0.372  10.939  21.545  0.00  0.00    +0.000 C 
ATOM     24  C   UNL     1      -0.199   9.985  22.688  0.00  0.00    +0.000 C 
ENDBRANCH  20  22
ENDBRANCH  13  14
ENDBRANCH   1  13
TORSDOF 4
ENDMDL
MODEL 9
REMARK VINA RESULT:      -6.7      1.088      1.191
REMARK  Name = 
REMARK  5 active torsions:
REMARK  status: ('A' for Active; 'I' for Inactive)
REMARK    1  A    between atoms: C_1  and  C_2
REMARK    2  A    between atoms: C_8  and  S_9
REMARK    3  A    between atoms: S_9  and  C_10
REMARK    4  A    between atoms: C_10  and  C_11
REMARK    5  A    between atoms: N_17  and  C_18
REMARK                            x       y       z     vdW  Elec       q    Type
REMARK                         _______ _______ _______ _____ _____    ______ ____
ROOT
ATOM      1  S   UNL     1       0.833   9.705  19.249  0.00  0.00    +0.000 S 
ENDROOT
BRANCH   1   9
ATOM      2  C   UNL     1      -0.875  15.170  20.764  0.00  0.00    +0.000 C 
ATOM      3  C   UNL     1      -0.721  13.740  21.167  0.00  0.00    +0.000 A 
ATOM      4  S   UNL     1      -1.198  13.220  22.719  0.00  0.00    +0.000 S 
ATOM      5  C   UNL     1      -0.734  11.614  22.395  0.00  0.00    +0.000 A 
ATOM      6  N   UNL     1      -0.892  10.676  23.343  0.00  0.00    +0.000 NA
ATOM      7  C   UNL     1      -0.488   9.468  22.948  0.00  0.00    +0.000 A 
ATOM      8  N   UNL     1       0.026   9.132  21.756  0.00  0.00    +0.000 NA
ATOM      9  C   UNL     1       0.167  10.106  20.830  0.00  0.00    +0.000 A 
ATOM     10  C   UNL     1      -0.216  11.432  21.119  0.00  0.00    +0.000 A 
ATOM     11  C   UNL     1      -0.214  12.695  20.415  0.00  0.00    +0.000 A 
ATOM     12 CL   UNL     1       0.352  12.937  18.808  0.00  0.00    +0.000 Cl
ENDBRANCH   1   9
BRANCH   1  13
ATOM     13  C   UNL     1       1.744   8.160  19.554  0.00  0.00    +0.000 C 
BRANCH  13  14
ATOM     14  C   UNL     1       2.596   7.815  18.329  0.00  0.00    +0.000 C 
ATOM     15  O   UNL     1       2.703   8.544  17.341  0.00  0.00    +0.000 OA
ATOM     16  N   UNL     1       3.260   6.612  18.354  0.00  0.00    +0.000 N 
ATOM     17  C   UNL     1       3.260   5.612  19.404  0.00  0.00    +0.000 C 
ATOM     18  C   UNL     1       4.331   4.647  18.923  0.00  0.00    +0.000 C 
ATOM     19  O   UNL     1       4.744   3.691  19.564  0.00  0.00    +0.000 OA
ATOM     20  N   UNL     1       4.732   5.035  17.652  0.00  0.00    +0.000 N 
ATOM     21  C   UNL     1       4.048   6.210  17.225  0.00  0.00    +0.000 C 
BRANCH  20  22
ATOM     22  C   UNL     1       5.868   4.533  16.957  0.00  0.00    +0.000 C 
ATOM     23  C   UNL     1       6.423   5.224  15.744  0.00  0.00    +0.000 C 
ATOM     24  C   UNL     1       7.199   5.234  17.026  0.00  0.00    +0.000 C 
ENDBRANCH  20  22
ENDBRANCH  13  14
ENDBRANCH   1  13
TORSDOF 4
ENDMDL
