MODEL 1
REMARK VINA RESULT:      -7.2      0.000      0.000
REMARK  Name = 
REMARK  5 active torsions:
REMARK  status: ('A' for Active; 'I' for Inactive)
REMARK    1  A    between atoms: N_1  and  C_2
REMARK    2  A    between atoms: C_5  and  N_6
REMARK    3  A    between atoms: C_7  and  C_9
REMARK    4  A    between atoms: C_12  and  O_13
REMARK    5  A    between atoms: C_16  and  C_17
REMARK                            x       y       z     vdW  Elec       q    Type
REMARK                         _______ _______ _______ _____ _____    ______ ____
ROOT
ATOM      1  C   UNL     1       4.209   4.253  19.715  0.00  0.00    +0.000 A 
ATOM      2  C   UNL     1       4.061   2.879  20.003  0.00  0.00    +0.000 A 
ATOM      3  C   UNL     1       2.901   2.384  20.610  0.00  0.00    +0.000 A 
ATOM      4  C   UNL     1       1.860   3.245  20.947  0.00  0.00    +0.000 A 
ATOM      5  C   UNL     1       2.015   4.594  20.648  0.00  0.00    +0.000 A 
ATOM      6  N   UNL     1       1.196   5.669  20.853  0.00  0.00    +0.000 N 
ATOM      7  C   UNL     1       1.822   6.794  20.383  0.00  0.00    +0.000 A 
ATOM      8  N   UNL     1       3.005   6.495  19.880  0.00  0.00    +0.000 NA
ATOM      9  C   UNL     1       3.148   5.123  20.041  0.00  0.00    +0.000 A 
ATOM     10  H   UNL     1       0.288   5.640  21.295  0.00  0.00    +0.000 HD
ENDROOT
BRANCH   7  11
ATOM     11  C   UNL     1       1.259   8.112  20.458  0.00  0.00    +0.000 A 
ATOM     12  C   UNL     1       0.601   8.675  21.535  0.00  0.00    +0.000 A 
ATOM     13  C   UNL     1       0.136   9.996  21.268  0.00  0.00    +0.000 A 
ATOM     14  C   UNL     1       0.462  10.407  19.996  0.00  0.00    +0.000 A 
ATOM     15  S   UNL     1       1.326   9.209  19.139  0.00  0.00    +0.000 S 
ENDBRANCH   7  11
BRANCH   1  17
ATOM     16  N   UNL     1       5.368   5.219  17.808  0.00  0.00    +0.000 N 
ATOM     17  C   UNL     1       5.467   4.736  19.092  0.00  0.00    +0.000 C 
ATOM     18  O   UNL     1       6.520   4.693  19.720  0.00  0.00    +0.000 OA
ATOM     19  H   UNL     1       4.430   5.304  17.416  0.00  0.00    +0.000 HD
BRANCH  16  23
ATOM     20  C   UNL     1       6.274   4.692  14.283  0.00  0.00    +0.000 C 
ATOM     21  C   UNL     1       6.780   3.828  15.443  0.00  0.00    +0.000 C 
ATOM     22  C   UNL     1       7.409   4.640  16.578  0.00  0.00    +0.000 C 
ATOM     23  C   UNL     1       6.499   5.768  17.073  0.00  0.00    +0.000 C 
ATOM     24  C   UNL     1       6.029   6.651  15.910  0.00  0.00    +0.000 C 
ATOM     25  C   UNL     1       5.381   5.832  14.789  0.00  0.00    +0.000 C 
BRANCH  20  26
ATOM     26  N   UNL     1       7.390   5.227  13.502  0.00  0.00    +0.000 NA
ATOM     27  H   UNL     1       7.833   5.990  14.013  0.00  0.00    +0.000 HD
ATOM     28  H   UNL     1       7.058   5.629  12.627  0.00  0.00    +0.000 HD
ENDBRANCH  20  26
ENDBRANCH  16  23
ENDBRANCH   1  17
BRANCH   4  29
ATOM     29  O   UNL     1       0.720   2.814  21.556  0.00  0.00    +0.000 OA
ATOM     30  H   UNL     1      -0.031   2.985  20.959  0.00  0.00    +0.000 HD
ENDBRANCH   4  29
TORSDOF 5
ENDMDL
MODEL 2
REMARK VINA RESULT:      -7.1      2.694      7.431
REMARK  Name = 
REMARK  5 active torsions:
REMARK  status: ('A' for Active; 'I' for Inactive)
REMARK    1  A    between atoms: N_1  and  C_2
REMARK    2  A    between atoms: C_5  and  N_6
REMARK    3  A    between atoms: C_7  and  C_9
REMARK    4  A    between atoms: C_12  and  O_13
REMARK    5  A    between atoms: C_16  and  C_17
REMARK                            x       y       z     vdW  Elec       q    Type
REMARK                         _______ _______ _______ _____ _____    ______ ____
ROOT
ATOM      1  C   UNL     1       2.087   5.847  19.636  0.00  0.00    +0.000 A 
ATOM      2  C   UNL     1       1.206   5.097  20.445  0.00  0.00    +0.000 A 
ATOM      3  C   UNL     1       1.110   3.707  20.323  0.00  0.00    +0.000 A 
ATOM      4  C   UNL     1       1.889   3.027  19.389  0.00  0.00    +0.000 A 
ATOM      5  C   UNL     1       2.761   3.776  18.606  0.00  0.00    +0.000 A 
ATOM      6  N   UNL     1       3.635   3.414  17.620  0.00  0.00    +0.000 N 
ATOM      7  C   UNL     1       4.258   4.541  17.150  0.00  0.00    +0.000 A 
ATOM      8  N   UNL     1       3.830   5.612  17.790  0.00  0.00    +0.000 NA
ATOM      9  C   UNL     1       2.888   5.156  18.703  0.00  0.00    +0.000 A 
ATOM     10  H   UNL     1       3.782   2.473  17.282  0.00  0.00    +0.000 HD
ENDROOT
BRANCH   7  11
ATOM     11  C   UNL     1       5.224   4.534  16.089  0.00  0.00    +0.000 A 
ATOM     12  C   UNL     1       5.086   3.956  14.841  0.00  0.00    +0.000 A 
ATOM     13  C   UNL     1       6.251   4.105  14.032  0.00  0.00    +0.000 A 
ATOM     14  C   UNL     1       7.242   4.803  14.684  0.00  0.00    +0.000 A 
ATOM     15  S   UNL     1       6.764   5.277  16.254  0.00  0.00    +0.000 S 
ENDBRANCH   7  11
BRANCH   1  17
ATOM     16  N   UNL     1       1.769   7.827  21.012  0.00  0.00    +0.000 N 
ATOM     17  C   UNL     1       2.137   7.323  19.785  0.00  0.00    +0.000 C 
ATOM     18  O   UNL     1       2.493   8.024  18.844  0.00  0.00    +0.000 OA
ATOM     19  H   UNL     1       1.589   7.152  21.755  0.00  0.00    +0.000 HD
BRANCH  16  23
ATOM     20  C   UNL     1      -0.778   9.840  22.738  0.00  0.00    +0.000 C 
ATOM     21  C   UNL     1      -0.710   9.651  21.218  0.00  0.00    +0.000 C 
ATOM     22  C   UNL     1       0.662   9.980  20.624  0.00  0.00    +0.000 C 
ATOM     23  C   UNL     1       1.804   9.246  21.334  0.00  0.00    +0.000 C 
ATOM     24  C   UNL     1       1.751   9.474  22.849  0.00  0.00    +0.000 C 
ATOM     25  C   UNL     1       0.382   9.121  23.438  0.00  0.00    +0.000 C 
BRANCH  20  26
ATOM     26  N   UNL     1      -0.784  11.261  23.089  0.00  0.00    +0.000 NA
ATOM     27  H   UNL     1      -0.908  11.365  24.096  0.00  0.00    +0.000 HD
ATOM     28  H   UNL     1      -1.574  11.736  22.658  0.00  0.00    +0.000 HD
ENDBRANCH  20  26
ENDBRANCH  16  23
ENDBRANCH   1  17
BRANCH   4  29
ATOM     29  O   UNL     1       1.818   1.677  19.220  0.00  0.00    +0.000 OA
ATOM     30  H   UNL     1       1.827   1.486  18.264  0.00  0.00    +0.000 HD
ENDBRANCH   4  29
TORSDOF 5
ENDMDL
MODEL 3
REMARK VINA RESULT:      -6.9      3.969      6.116
REMARK  Name = 
REMARK  5 active torsions:
REMARK  status: ('A' for Active; 'I' for Inactive)
REMARK    1  A    between atoms: N_1  and  C_2
REMARK    2  A    between atoms: C_5  and  N_6
REMARK    3  A    between atoms: C_7  and  C_9
REMARK    4  A    between atoms: C_12  and  O_13
REMARK    5  A    between atoms: C_16  and  C_17
REMARK                            x       y       z     vdW  Elec       q    Type
REMARK                         _______ _______ _______ _____ _____    ______ ____
ROOT
ATOM      1  C   UNL     1       1.219   9.219  19.766  0.00  0.00    +0.000 A 
ATOM      2  C   UNL     1       0.631   8.503  20.830  0.00  0.00    +0.000 A 
ATOM      3  C   UNL     1       0.067   9.162  21.928  0.00  0.00    +0.000 A 
ATOM      4  C   UNL     1       0.076  10.553  21.995  0.00  0.00    +0.000 A 
ATOM      5  C   UNL     1       0.649  11.247  20.934  0.00  0.00    +0.000 A 
ATOM      6  N   UNL     1       0.814  12.585  20.709  0.00  0.00    +0.000 N 
ATOM      7  C   UNL     1       1.452  12.752  19.507  0.00  0.00    +0.000 A 
ATOM      8  N   UNL     1       1.703  11.585  18.945  0.00  0.00    +0.000 NA
ATOM      9  C   UNL     1       1.213  10.628  19.825  0.00  0.00    +0.000 A 
ATOM     10  H   UNL     1       0.528  13.326  21.334  0.00  0.00    +0.000 HD
ENDROOT
BRANCH   7  11
ATOM     11  C   UNL     1       1.811  14.031  18.965  0.00  0.00    +0.000 A 
ATOM     12  C   UNL     1       2.917  14.327  18.192  0.00  0.00    +0.000 A 
ATOM     13  C   UNL     1       2.993  15.708  17.843  0.00  0.00    +0.000 A 
ATOM     14  C   UNL     1       1.935  16.425  18.353  0.00  0.00    +0.000 A 
ATOM     15  S   UNL     1       0.860  15.436  19.238  0.00  0.00    +0.000 S 
ENDBRANCH   7  11
BRANCH   1  17
ATOM     16  N   UNL     1       2.284   7.208  18.909  0.00  0.00    +0.000 N 
ATOM     17  C   UNL     1       1.826   8.476  18.634  0.00  0.00    +0.000 C 
ATOM     18  O   UNL     1       1.898   8.996  17.525  0.00  0.00    +0.000 OA
ATOM     19  H   UNL     1       2.083   6.835  19.836  0.00  0.00    +0.000 HD
BRANCH  16  23
ATOM     20  C   UNL     1       3.973   3.977  19.388  0.00  0.00    +0.000 C 
ATOM     21  C   UNL     1       4.688   5.332  19.374  0.00  0.00    +0.000 C 
ATOM     22  C   UNL     1       4.370   6.177  18.137  0.00  0.00    +0.000 C 
ATOM     23  C   UNL     1       2.865   6.333  17.900  0.00  0.00    +0.000 C 
ATOM     24  C   UNL     1       2.164   4.970  17.876  0.00  0.00    +0.000 C 
ATOM     25  C   UNL     1       2.469   4.141  19.127  0.00  0.00    +0.000 C 
BRANCH  20  26
ATOM     26  N   UNL     1       4.563   3.062  18.409  0.00  0.00    +0.000 NA
ATOM     27  H   UNL     1       4.392   3.412  17.466  0.00  0.00    +0.000 HD
ATOM     28  H   UNL     1       4.117   2.148  18.455  0.00  0.00    +0.000 HD
ENDBRANCH  20  26
ENDBRANCH  16  23
ENDBRANCH   1  17
BRANCH   4  29
ATOM     29  O   UNL     1      -0.443  11.240  23.051  0.00  0.00    +0.000 OA
ATOM     30  H   UNL     1      -0.842  10.600  23.668  0.00  0.00    +0.000 HD
ENDBRANCH   4  29
TORSDOF 5
ENDMDL
MODEL 4
REMARK VINA RESULT:      -6.8      2.748      6.755
REMARK  Name = 
REMARK  5 active torsions:
REMARK  status: ('A' for Active; 'I' for Inactive)
REMARK    1  A    between atoms: N_1  and  C_2
REMARK    2  A    between atoms: C_5  and  N_6
REMARK    3  A    between atoms: C_7  and  C_9
REMARK    4  A    between atoms: C_12  and  O_13
REMARK    5  A    between atoms: C_16  and  C_17
REMARK                            x       y       z     vdW  Elec       q    Type
REMARK                         _______ _______ _______ _____ _____    ______ ____
ROOT
ATOM      1  C   UNL     1       1.915   5.510  19.814  0.00  0.00    +0.000 A 
ATOM      2  C   UNL     1       0.975   4.681  20.463  0.00  0.00    +0.000 A 
ATOM      3  C   UNL     1       0.864   3.322  20.150  0.00  0.00    +0.000 A 
ATOM      4  C   UNL     1       1.686   2.754  19.179  0.00  0.00    +0.000 A 
ATOM      5  C   UNL     1       2.615   3.579  18.555  0.00  0.00    +0.000 A 
ATOM      6  N   UNL     1       3.541   3.330  17.580  0.00  0.00    +0.000 N 
ATOM      7  C   UNL     1       4.210   4.494  17.302  0.00  0.00    +0.000 A 
ATOM      8  N   UNL     1       3.762   5.481  18.055  0.00  0.00    +0.000 NA
ATOM      9  C   UNL     1       2.759   4.931  18.843  0.00  0.00    +0.000 A 
ATOM     10  H   UNL     1       3.692   2.440  17.128  0.00  0.00    +0.000 HD
ENDROOT
BRANCH   7  11
ATOM     11  C   UNL     1       5.237   4.606  16.307  0.00  0.00    +0.000 A 
ATOM     12  C   UNL     1       5.091   4.463  14.940  0.00  0.00    +0.000 A 
ATOM     13  C   UNL     1       6.323   4.605  14.236  0.00  0.00    +0.000 A 
ATOM     14  C   UNL     1       7.373   4.862  15.087  0.00  0.00    +0.000 A 
ATOM     15  S   UNL     1       6.872   4.936  16.718  0.00  0.00    +0.000 S 
ENDBRANCH   7  11
BRANCH   1  17
ATOM     16  N   UNL     1       1.842   7.840  19.121  0.00  0.00    +0.000 N 
ATOM     17  C   UNL     1       1.980   6.952  20.163  0.00  0.00    +0.000 C 
ATOM     18  O   UNL     1       2.147   7.295  21.328  0.00  0.00    +0.000 OA
ATOM     19  H   UNL     1       1.606   7.451  18.209  0.00  0.00    +0.000 HD
BRANCH  16  23
ATOM     20  C   UNL     1      -1.016  10.151  19.005  0.00  0.00    +0.000 C 
ATOM     21  C   UNL     1      -0.155   9.780  17.793  0.00  0.00    +0.000 C 
ATOM     22  C   UNL     1       1.345   9.977  18.027  0.00  0.00    +0.000 C 
ATOM     23  C   UNL     1       1.840   9.285  19.301  0.00  0.00    +0.000 C 
ATOM     24  C   UNL     1       0.997   9.692  20.516  0.00  0.00    +0.000 C 
ATOM     25  C   UNL     1      -0.499   9.471  20.280  0.00  0.00    +0.000 C 
BRANCH  20  26
ATOM     26  N   UNL     1      -1.068  11.602  19.187  0.00  0.00    +0.000 NA
ATOM     27  H   UNL     1      -0.225  12.028  18.801  0.00  0.00    +0.000 HD
ATOM     28  H   UNL     1      -1.076  11.841  20.177  0.00  0.00    +0.000 HD
ENDBRANCH  20  26
ENDBRANCH  16  23
ENDBRANCH   1  17
BRANCH   4  29
ATOM     29  O   UNL     1       1.604   1.441  18.826  0.00  0.00    +0.000 OA
ATOM     30  H   UNL     1       1.496   1.388  17.859  0.00  0.00    +0.000 HD
ENDBRANCH   4  29
TORSDOF 5
ENDMDL
MODEL 5
REMARK VINA RESULT:      -6.7      3.032      7.596
REMARK  Name = 
REMARK  5 active torsions:
REMARK  status: ('A' for Active; 'I' for Inactive)
REMARK    1  A    between atoms: N_1  and  C_2
REMARK    2  A    between atoms: C_5  and  N_6
REMARK    3  A    between atoms: C_7  and  C_9
REMARK    4  A    between atoms: C_12  and  O_13
REMARK    5  A    between atoms: C_16  and  C_17
REMARK                            x       y       z     vdW  Elec       q    Type
REMARK                         _______ _______ _______ _____ _____    ______ ____
ROOT
ATOM      1  C   UNL     1       2.231   7.346  19.141  0.00  0.00    +0.000 A 
ATOM      2  C   UNL     1       1.587   6.934  20.327  0.00  0.00    +0.000 A 
ATOM      3  C   UNL     1       1.800   5.661  20.867  0.00  0.00    +0.000 A 
ATOM      4  C   UNL     1       2.659   4.763  20.238  0.00  0.00    +0.000 A 
ATOM      5  C   UNL     1       3.296   5.185  19.075  0.00  0.00    +0.000 A 
ATOM      6  N   UNL     1       4.173   4.553  18.240  0.00  0.00    +0.000 N 
ATOM      7  C   UNL     1       4.501   5.406  17.219  0.00  0.00    +0.000 A 
ATOM      8  N   UNL     1       3.879   6.562  17.358  0.00  0.00    +0.000 NA
ATOM      9  C   UNL     1       3.114   6.443  18.512  0.00  0.00    +0.000 A 
ATOM     10  H   UNL     1       4.509   3.606  18.349  0.00  0.00    +0.000 HD
ENDROOT
BRANCH   7  11
ATOM     11  C   UNL     1       5.384   5.061  16.142  0.00  0.00    +0.000 A 
ATOM     12  C   UNL     1       5.067   4.345  15.003  0.00  0.00    +0.000 A 
ATOM     13  C   UNL     1       6.189   4.149  14.145  0.00  0.00    +0.000 A 
ATOM     14  C   UNL     1       7.329   4.730  14.651  0.00  0.00    +0.000 A 
ATOM     15  S   UNL     1       7.042   5.509  16.143  0.00  0.00    +0.000 S 
ENDBRANCH   7  11
BRANCH   1  17
ATOM     16  N   UNL     1       1.380   9.601  19.454  0.00  0.00    +0.000 N 
ATOM     17  C   UNL     1       1.956   8.697  18.592  0.00  0.00    +0.000 C 
ATOM     18  O   UNL     1       2.242   8.958  17.428  0.00  0.00    +0.000 OA
ATOM     19  H   UNL     1       1.278   9.314  20.427  0.00  0.00    +0.000 HD
BRANCH  16  23
ATOM     20  C   UNL     1      -1.310  11.776  20.702  0.00  0.00    +0.000 C 
ATOM     21  C   UNL     1      -1.431  10.872  19.470  0.00  0.00    +0.000 C 
ATOM     22  C   UNL     1      -0.305  11.074  18.452  0.00  0.00    +0.000 C 
ATOM     23  C   UNL     1       1.087  10.979  19.085  0.00  0.00    +0.000 C 
ATOM     24  C   UNL     1       1.211  11.916  20.293  0.00  0.00    +0.000 C 
ATOM     25  C   UNL     1       0.094  11.691  21.315  0.00  0.00    +0.000 C 
BRANCH  20  26
ATOM     26  N   UNL     1      -1.638  13.163  20.368  0.00  0.00    +0.000 NA
ATOM     27  H   UNL     1      -2.504  13.433  20.834  0.00  0.00    +0.000 HD
ATOM     28  H   UNL     1      -1.811  13.263  19.370  0.00  0.00    +0.000 HD
ENDBRANCH  20  26
ENDBRANCH  16  23
ENDBRANCH   1  17
BRANCH   4  29
ATOM     29  O   UNL     1       2.884   3.507  20.714  0.00  0.00    +0.000 OA
ATOM     30  H   UNL     1       3.847   3.353  20.731  0.00  0.00    +0.000 HD
ENDBRANCH   4  29
TORSDOF 5
ENDMDL
MODEL 6
REMARK VINA RESULT:      -6.6      1.593      2.178
REMARK  Name = 
REMARK  5 active torsions:
REMARK  status: ('A' for Active; 'I' for Inactive)
REMARK    1  A    between atoms: N_1  and  C_2
REMARK    2  A    between atoms: C_5  and  N_6
REMARK    3  A    between atoms: C_7  and  C_9
REMARK    4  A    between atoms: C_12  and  O_13
REMARK    5  A    between atoms: C_16  and  C_17
REMARK                            x       y       z     vdW  Elec       q    Type
REMARK                         _______ _______ _______ _____ _____    ______ ____
ROOT
ATOM      1  C   UNL     1       3.348   3.454  19.027  0.00  0.00    +0.000 A 
ATOM      2  C   UNL     1       3.157   2.140  19.505  0.00  0.00    +0.000 A 
ATOM      3  C   UNL     1       2.303   1.873  20.581  0.00  0.00    +0.000 A 
ATOM      4  C   UNL     1       1.618   2.910  21.210  0.00  0.00    +0.000 A 
ATOM      5  C   UNL     1       1.807   4.199  20.722  0.00  0.00    +0.000 A 
ATOM      6  N   UNL     1       1.295   5.403  21.117  0.00  0.00    +0.000 N 
ATOM      7  C   UNL     1       1.807   6.384  20.308  0.00  0.00    +0.000 A 
ATOM      8  N   UNL     1       2.623   5.869  19.408  0.00  0.00    +0.000 NA
ATOM      9  C   UNL     1       2.641   4.502  19.653  0.00  0.00    +0.000 A 
ATOM     10  H   UNL     1       0.658   5.546  21.888  0.00  0.00    +0.000 HD
ENDROOT
BRANCH   7  11
ATOM     11  C   UNL     1       1.502   7.779  20.455  0.00  0.00    +0.000 A 
ATOM     12  C   UNL     1       1.137   8.434  21.616  0.00  0.00    +0.000 A 
ATOM     13  C   UNL     1       0.872   9.819  21.407  0.00  0.00    +0.000 A 
ATOM     14  C   UNL     1       1.053  10.184  20.093  0.00  0.00    +0.000 A 
ATOM     15  S   UNL     1       1.542   8.865  19.125  0.00  0.00    +0.000 S 
ENDBRANCH   7  11
BRANCH   1  17
ATOM     16  N   UNL     1       5.429   4.392  18.190  0.00  0.00    +0.000 N 
ATOM     17  C   UNL     1       4.282   3.691  17.898  0.00  0.00    +0.000 C 
ATOM     18  O   UNL     1       4.013   3.268  16.779  0.00  0.00    +0.000 OA
ATOM     19  H   UNL     1       5.602   4.608  19.172  0.00  0.00    +0.000 HD
BRANCH  16  23
ATOM     20  C   UNL     1       7.347   7.493  17.709  0.00  0.00    +0.000 C 
ATOM     21  C   UNL     1       6.028   7.173  16.996  0.00  0.00    +0.000 C 
ATOM     22  C   UNL     1       6.031   5.816  16.287  0.00  0.00    +0.000 C 
ATOM     23  C   UNL     1       6.466   4.671  17.207  0.00  0.00    +0.000 C 
ATOM     24  C   UNL     1       7.806   4.982  17.885  0.00  0.00    +0.000 C 
ATOM     25  C   UNL     1       7.785   6.331  18.610  0.00  0.00    +0.000 C 
BRANCH  20  26
ATOM     26  N   UNL     1       8.400   7.815  16.744  0.00  0.00    +0.000 NA
ATOM     27  H   UNL     1       9.304   7.828  17.214  0.00  0.00    +0.000 HD
ATOM     28  H   UNL     1       8.266   8.750  16.364  0.00  0.00    +0.000 HD
ENDBRANCH  20  26
ENDBRANCH  16  23
ENDBRANCH   1  17
BRANCH   4  29
ATOM     29  O   UNL     1       0.791   2.704  22.273  0.00  0.00    +0.000 OA
ATOM     30  H   UNL     1       0.379   1.826  22.177  0.00  0.00    +0.000 HD
ENDBRANCH   4  29
TORSDOF 5
ENDMDL
MODEL 7
REMARK VINA RESULT:      -6.6      3.692      5.930
REMARK  Name = 
REMARK  5 active torsions:
REMARK  status: ('A' for Active; 'I' for Inactive)
REMARK    1  A    between atoms: N_1  and  C_2
REMARK    2  A    between atoms: C_5  and  N_6
REMARK    3  A    between atoms: C_7  and  C_9
REMARK    4  A    between atoms: C_12  and  O_13
REMARK    5  A    between atoms: C_16  and  C_17
REMARK                            x       y       z     vdW  Elec       q    Type
REMARK                         _______ _______ _______ _____ _____    ______ ____
ROOT
ATOM      1  C   UNL     1       1.428   8.554  20.228  0.00  0.00    +0.000 A 
ATOM      2  C   UNL     1       1.878   8.658  21.562  0.00  0.00    +0.000 A 
ATOM      3  C   UNL     1       1.220   9.471  22.491  0.00  0.00    +0.000 A 
ATOM      4  C   UNL     1       0.096  10.203  22.115  0.00  0.00    +0.000 A 
ATOM      5  C   UNL     1      -0.343  10.083  20.801  0.00  0.00    +0.000 A 
ATOM      6  N   UNL     1      -1.388  10.662  20.136  0.00  0.00    +0.000 N 
ATOM      7  C   UNL     1      -1.384  10.219  18.839  0.00  0.00    +0.000 A 
ATOM      8  N   UNL     1      -0.387   9.377  18.637  0.00  0.00    +0.000 NA
ATOM      9  C   UNL     1       0.280   9.282  19.851  0.00  0.00    +0.000 A 
ATOM     10  H   UNL     1      -2.043  11.322  20.533  0.00  0.00    +0.000 HD
ENDROOT
BRANCH   7  11
ATOM     11  C   UNL     1      -2.329  10.643  17.847  0.00  0.00    +0.000 A 
ATOM     12  C   UNL     1      -2.244  10.453  16.481  0.00  0.00    +0.000 A 
ATOM     13  C   UNL     1      -3.341  11.029  15.775  0.00  0.00    +0.000 A 
ATOM     14  C   UNL     1      -4.238  11.634  16.625  0.00  0.00    +0.000 A 
ATOM     15  S   UNL     1      -3.759  11.501  18.259  0.00  0.00    +0.000 S 
ENDBRANCH   7  11
BRANCH   1  17
ATOM     16  N   UNL     1       2.284   6.366  19.600  0.00  0.00    +0.000 N 
ATOM     17  C   UNL     1       2.173   7.698  19.271  0.00  0.00    +0.000 C 
ATOM     18  O   UNL     1       2.649   8.186  18.252  0.00  0.00    +0.000 OA
ATOM     19  H   UNL     1       1.765   6.047  20.418  0.00  0.00    +0.000 HD
BRANCH  16  23
ATOM     20  C   UNL     1       1.826   2.718  19.534  0.00  0.00    +0.000 C 
ATOM     21  C   UNL     1       2.866   3.443  20.396  0.00  0.00    +0.000 C 
ATOM     22  C   UNL     1       3.754   4.404  19.601  0.00  0.00    +0.000 C 
ATOM     23  C   UNL     1       2.946   5.387  18.749  0.00  0.00    +0.000 C 
ATOM     24  C   UNL     1       1.935   4.651  17.861  0.00  0.00    +0.000 C 
ATOM     25  C   UNL     1       1.036   3.709  18.668  0.00  0.00    +0.000 C 
BRANCH  20  26
ATOM     26  N   UNL     1       2.458   1.700  18.694  0.00  0.00    +0.000 NA
ATOM     27  H   UNL     1       1.768   1.301  18.058  0.00  0.00    +0.000 HD
ATOM     28  H   UNL     1       2.799   0.926  19.261  0.00  0.00    +0.000 HD
ENDBRANCH  20  26
ENDBRANCH  16  23
ENDBRANCH   1  17
BRANCH   4  29
ATOM     29  O   UNL     1      -0.568  11.022  22.977  0.00  0.00    +0.000 OA
ATOM     30  H   UNL     1      -0.870  10.490  23.736  0.00  0.00    +0.000 HD
ENDBRANCH   4  29
TORSDOF 5
ENDMDL
MODEL 8
REMARK VINA RESULT:      -6.6      3.250      6.932
REMARK  Name = 
REMARK  5 active torsions:
REMARK  status: ('A' for Active; 'I' for Inactive)
REMARK    1  A    between atoms: N_1  and  C_2
REMARK    2  A    between atoms: C_5  and  N_6
REMARK    3  A    between atoms: C_7  and  C_9
REMARK    4  A    between atoms: C_12  and  O_13
REMARK    5  A    between atoms: C_16  and  C_17
REMARK                            x       y       z     vdW  Elec       q    Type
REMARK                         _______ _______ _______ _____ _____    ______ ____
ROOT
ATOM      1  C   UNL     1       4.689   5.460  16.968  0.00  0.00    +0.000 A 
ATOM      2  C   UNL     1       4.683   4.398  16.038  0.00  0.00    +0.000 A 
ATOM      3  C   UNL     1       5.775   4.161  15.196  0.00  0.00    +0.000 A 
ATOM      4  C   UNL     1       6.902   4.978  15.257  0.00  0.00    +0.000 A 
ATOM      5  C   UNL     1       6.899   6.014  16.185  0.00  0.00    +0.000 A 
ATOM      6  N   UNL     1       7.830   6.971  16.480  0.00  0.00    +0.000 N 
ATOM      7  C   UNL     1       7.336   7.771  17.477  0.00  0.00    +0.000 A 
ATOM      8  N   UNL     1       6.132   7.373  17.842  0.00  0.00    +0.000 NA
ATOM      9  C   UNL     1       5.837   6.277  17.041  0.00  0.00    +0.000 A 
ATOM     10  H   UNL     1       8.725   7.079  16.025  0.00  0.00    +0.000 HD
ENDROOT
BRANCH   7  11
ATOM     11  C   UNL     1       8.040   8.898  18.019  0.00  0.00    +0.000 A 
ATOM     12  C   UNL     1       8.927   8.894  19.079  0.00  0.00    +0.000 A 
ATOM     13  C   UNL     1       9.429  10.193  19.383  0.00  0.00    +0.000 A 
ATOM     14  C   UNL     1       8.916  11.152  18.539  0.00  0.00    +0.000 A 
ATOM     15  S   UNL     1       7.846  10.484  17.388  0.00  0.00    +0.000 S 
ENDBRANCH   7  11
BRANCH   1  17
ATOM     16  N   UNL     1       2.815   4.566  18.231  0.00  0.00    +0.000 N 
ATOM     17  C   UNL     1       3.498   5.687  17.824  0.00  0.00    +0.000 C 
ATOM     18  O   UNL     1       3.172   6.829  18.131  0.00  0.00    +0.000 OA
ATOM     19  H   UNL     1       3.230   3.662  18.004  0.00  0.00    +0.000 HD
BRANCH  16  23
ATOM     20  C   UNL     1       2.151   2.583  21.257  0.00  0.00    +0.000 C 
ATOM     21  C   UNL     1       1.719   2.175  19.844  0.00  0.00    +0.000 C 
ATOM     22  C   UNL     1       0.932   3.262  19.109  0.00  0.00    +0.000 C 
ATOM     23  C   UNL     1       1.653   4.614  19.107  0.00  0.00    +0.000 C 
ATOM     24  C   UNL     1       2.046   5.034  20.529  0.00  0.00    +0.000 C 
ATOM     25  C   UNL     1       2.852   3.949  21.249  0.00  0.00    +0.000 C 
BRANCH  20  26
ATOM     26  N   UNL     1       1.007   2.604  22.170  0.00  0.00    +0.000 NA
ATOM     27  H   UNL     1       0.721   3.567  22.341  0.00  0.00    +0.000 HD
ATOM     28  H   UNL     1       1.264   2.220  23.078  0.00  0.00    +0.000 HD
ENDBRANCH  20  26
ENDBRANCH  16  23
ENDBRANCH   1  17
BRANCH   4  29
ATOM     29  O   UNL     1       7.982   4.799  14.446  0.00  0.00    +0.000 OA
ATOM     30  H   UNL     1       7.667   4.714  13.528  0.00  0.00    +0.000 HD
ENDBRANCH   4  29
TORSDOF 5
ENDMDL
MODEL 9
REMARK VINA RESULT:      -6.5      2.672      7.442
REMARK  Name = 
REMARK  5 active torsions:
REMARK  status: ('A' for Active; 'I' for Inactive)
REMARK    1  A    between atoms: N_1  and  C_2
REMARK    2  A    between atoms: C_5  and  N_6
REMARK    3  A    between atoms: C_7  and  C_9
REMARK    4  A    between atoms: C_12  and  O_13
REMARK    5  A    between atoms: C_16  and  C_17
REMARK                            x       y       z     vdW  Elec       q    Type
REMARK                         _______ _______ _______ _____ _____    ______ ____
ROOT
ATOM      1  C   UNL     1       2.741   5.678  19.570  0.00  0.00    +0.000 A 
ATOM      2  C   UNL     1       2.300   4.930  20.683  0.00  0.00    +0.000 A 
ATOM      3  C   UNL     1       2.687   3.598  20.866  0.00  0.00    +0.000 A 
ATOM      4  C   UNL     1       3.523   2.975  19.943  0.00  0.00    +0.000 A 
ATOM      5  C   UNL     1       3.959   3.726  18.856  0.00  0.00    +0.000 A 
ATOM      6  N   UNL     1       4.764   3.408  17.798  0.00  0.00    +0.000 N 
ATOM      7  C   UNL     1       4.879   4.509  16.989  0.00  0.00    +0.000 A 
ATOM      8  N   UNL     1       4.190   5.522  17.477  0.00  0.00    +0.000 NA
ATOM      9  C   UNL     1       3.601   5.051  18.644  0.00  0.00    +0.000 A 
ATOM     10  H   UNL     1       5.188   2.506  17.632  0.00  0.00    +0.000 HD
ENDROOT
BRANCH   7  11
ATOM     11  C   UNL     1       5.633   4.526  15.768  0.00  0.00    +0.000 A 
ATOM     12  C   UNL     1       5.258   3.991  14.550  0.00  0.00    +0.000 A 
ATOM     13  C   UNL     1       6.257   4.153  13.545  0.00  0.00    +0.000 A 
ATOM     14  C   UNL     1       7.363   4.816  14.024  0.00  0.00    +0.000 A 
ATOM     15  S   UNL     1       7.192   5.242  15.669  0.00  0.00    +0.000 S 
ENDBRANCH   7  11
BRANCH   1  17
ATOM     16  N   UNL     1       1.720   7.673  20.511  0.00  0.00    +0.000 N 
ATOM     17  C   UNL     1       2.285   7.080  19.406  0.00  0.00    +0.000 C 
ATOM     18  O   UNL     1       2.422   7.649  18.328  0.00  0.00    +0.000 OA
ATOM     19  H   UNL     1       1.747   7.147  21.384  0.00  0.00    +0.000 HD
BRANCH  16  23
ATOM     20  C   UNL     1      -0.115   9.439  23.165  0.00  0.00    +0.000 C 
ATOM     21  C   UNL     1      -0.781   8.685  22.008  0.00  0.00    +0.000 C 
ATOM     22  C   UNL     1      -0.266   9.107  20.629  0.00  0.00    +0.000 C 
ATOM     23  C   UNL     1       1.261   9.055  20.528  0.00  0.00    +0.000 C 
ATOM     24  C   UNL     1       1.919   9.845  21.667  0.00  0.00    +0.000 C 
ATOM     25  C   UNL     1       1.414   9.401  23.043  0.00  0.00    +0.000 C 
BRANCH  20  26
ATOM     26  N   UNL     1      -0.587  10.823  23.230  0.00  0.00    +0.000 NA
ATOM     27  H   UNL     1      -1.155  10.953  24.067  0.00  0.00    +0.000 HD
ATOM     28  H   UNL     1      -1.195  11.034  22.441  0.00  0.00    +0.000 HD
ENDBRANCH  20  26
ENDBRANCH  16  23
ENDBRANCH   1  17
BRANCH   4  29
ATOM     29  O   UNL     1       3.912   1.675  20.067  0.00  0.00    +0.000 OA
ATOM     30  H   UNL     1       3.168   1.164  20.433  0.00  0.00    +0.000 HD
ENDBRANCH   4  29
TORSDOF 5
ENDMDL
