MODEL 1
REMARK VINA RESULT:      -8.2      0.000      0.000
REMARK  Name = 
REMARK  2 active torsions:
REMARK  status: ('A' for Active; 'I' for Inactive)
REMARK    1  A    between atoms: C_4  and  C_5
REMARK    2  A    between atoms: C_11  and  C_12
REMARK                            x       y       z     vdW  Elec       q    Type
REMARK                         _______ _______ _______ _____ _____    ______ ____
ROOT
ATOM      1  O   UNL     1       0.752   2.845  19.182  0.00  0.00    +0.000 OA
ATOM      2  C   UNL     1       1.782   3.452  18.895  0.00  0.00    +0.000 C 
ATOM      3  C   UNL     1       1.855   4.400  17.737  0.00  0.00    +0.000 C 
ATOM      4  C   UNL     1       2.929   5.464  17.917  0.00  0.00    +0.000 C 
ATOM      5  C   UNL     1       4.182   4.876  18.563  0.00  0.00    +0.000 C 
ATOM      6  N   UNL     1       4.149   3.829  19.335  0.00  0.00    +0.000 NA
ATOM      7  N   UNL     1       2.959   3.210  19.549  0.00  0.00    +0.000 N 
ATOM      8  H   UNL     1       2.944   2.491  20.266  0.00  0.00    +0.000 HD
ENDROOT
BRANCH   4   9
ATOM      9  C   UNL     1       2.395   6.674  18.673  0.00  0.00    +0.000 A 
ATOM     10  C   UNL     1       2.065   6.619  20.036  0.00  0.00    +0.000 A 
ATOM     11  C   UNL     1       1.536   7.735  20.687  0.00  0.00    +0.000 A 
ATOM     12  C   UNL     1       1.321   8.917  19.985  0.00  0.00    +0.000 A 
ATOM     13  C   UNL     1       1.643   8.990  18.632  0.00  0.00    +0.000 A 
ATOM     14  C   UNL     1       2.177   7.877  17.980  0.00  0.00    +0.000 A 
ENDBRANCH   4   9
BRANCH   5  15
ATOM     15  C   UNL     1       5.491   5.593  18.392  0.00  0.00    +0.000 A 
ATOM     16  C   UNL     1       6.526   5.321  19.298  0.00  0.00    +0.000 A 
ATOM     17  C   UNL     1       7.751   5.984  19.194  0.00  0.00    +0.000 A 
ATOM     18  C   UNL     1       7.954   6.914  18.178  0.00  0.00    +0.000 A 
ATOM     19  C   UNL     1       6.934   7.184  17.268  0.00  0.00    +0.000 A 
ATOM     20  C   UNL     1       5.705   6.526  17.372  0.00  0.00    +0.000 A 
ENDBRANCH   5  15
TORSDOF 2
ENDMDL
MODEL 2
REMARK VINA RESULT:      -8.1      0.148      1.117
REMARK  Name = 
REMARK  2 active torsions:
REMARK  status: ('A' for Active; 'I' for Inactive)
REMARK    1  A    between atoms: C_4  and  C_5
REMARK    2  A    between atoms: C_11  and  C_12
REMARK                            x       y       z     vdW  Elec       q    Type
REMARK                         _______ _______ _______ _____ _____    ______ ____
ROOT
ATOM      1  O   UNL     1       0.762   2.789  18.884  0.00  0.00    +0.000 OA
ATOM      2  C   UNL     1       1.800   3.411  18.670  0.00  0.00    +0.000 C 
ATOM      3  C   UNL     1       1.908   4.440  17.587  0.00  0.00    +0.000 C 
ATOM      4  C   UNL     1       2.978   5.484  17.873  0.00  0.00    +0.000 C 
ATOM      5  C   UNL     1       4.211   4.846  18.509  0.00  0.00    +0.000 C 
ATOM      6  N   UNL     1       4.155   3.746  19.202  0.00  0.00    +0.000 NA
ATOM      7  N   UNL     1       2.958   3.118  19.337  0.00  0.00    +0.000 N 
ATOM      8  H   UNL     1       2.922   2.349  20.000  0.00  0.00    +0.000 HD
ENDROOT
BRANCH   4   9
ATOM      9  C   UNL     1       2.425   6.639  18.700  0.00  0.00    +0.000 A 
ATOM     10  C   UNL     1       2.118   6.503  20.062  0.00  0.00    +0.000 A 
ATOM     11  C   UNL     1       1.570   7.569  20.779  0.00  0.00    +0.000 A 
ATOM     12  C   UNL     1       1.315   8.780  20.144  0.00  0.00    +0.000 A 
ATOM     13  C   UNL     1       1.614   8.933  18.793  0.00  0.00    +0.000 A 
ATOM     14  C   UNL     1       2.166   7.870  18.074  0.00  0.00    +0.000 A 
ENDBRANCH   4   9
BRANCH   5  15
ATOM     15  C   UNL     1       5.526   5.569  18.427  0.00  0.00    +0.000 A 
ATOM     16  C   UNL     1       5.698   6.534  17.426  0.00  0.00    +0.000 A 
ATOM     17  C   UNL     1       6.912   7.212  17.295  0.00  0.00    +0.000 A 
ATOM     18  C   UNL     1       7.959   6.937  18.171  0.00  0.00    +0.000 A 
ATOM     19  C   UNL     1       7.794   5.986  19.176  0.00  0.00    +0.000 A 
ATOM     20  C   UNL     1       6.582   5.302  19.306  0.00  0.00    +0.000 A 
ENDBRANCH   5  15
TORSDOF 2
ENDMDL
MODEL 3
REMARK VINA RESULT:      -8.0      0.084      1.110
REMARK  Name = 
REMARK  2 active torsions:
REMARK  status: ('A' for Active; 'I' for Inactive)
REMARK    1  A    between atoms: C_4  and  C_5
REMARK    2  A    between atoms: C_11  and  C_12
REMARK                            x       y       z     vdW  Elec       q    Type
REMARK                         _______ _______ _______ _____ _____    ______ ____
ROOT
ATOM      1  O   UNL     1       0.823   2.752  19.166  0.00  0.00    +0.000 OA
ATOM      2  C   UNL     1       1.843   3.377  18.883  0.00  0.00    +0.000 C 
ATOM      3  C   UNL     1       1.915   4.299  17.705  0.00  0.00    +0.000 C 
ATOM      4  C   UNL     1       2.960   5.392  17.878  0.00  0.00    +0.000 C 
ATOM      5  C   UNL     1       4.215   4.850  18.560  0.00  0.00    +0.000 C 
ATOM      6  N   UNL     1       4.192   3.821  19.356  0.00  0.00    +0.000 NA
ATOM      7  N   UNL     1       3.013   3.179  19.564  0.00  0.00    +0.000 N 
ATOM      8  H   UNL     1       3.002   2.477  20.298  0.00  0.00    +0.000 HD
ENDROOT
BRANCH   4   9
ATOM      9  C   UNL     1       2.383   6.607  18.594  0.00  0.00    +0.000 A 
ATOM     10  C   UNL     1       2.153   7.825  17.935  0.00  0.00    +0.000 A 
ATOM     11  C   UNL     1       1.665   8.932  18.632  0.00  0.00    +0.000 A 
ATOM     12  C   UNL     1       1.409   8.840  19.997  0.00  0.00    +0.000 A 
ATOM     13  C   UNL     1       1.631   7.640  20.667  0.00  0.00    +0.000 A 
ATOM     14  C   UNL     1       2.115   6.530  19.971  0.00  0.00    +0.000 A 
ENDBRANCH   4   9
BRANCH   5  15
ATOM     15  C   UNL     1       5.509   5.594  18.396  0.00  0.00    +0.000 A 
ATOM     16  C   UNL     1       6.560   5.312  19.279  0.00  0.00    +0.000 A 
ATOM     17  C   UNL     1       7.773   5.998  19.181  0.00  0.00    +0.000 A 
ATOM     18  C   UNL     1       7.947   6.964  18.192  0.00  0.00    +0.000 A 
ATOM     19  C   UNL     1       6.911   7.244  17.304  0.00  0.00    +0.000 A 
ATOM     20  C   UNL     1       5.694   6.563  17.403  0.00  0.00    +0.000 A 
ENDBRANCH   5  15
TORSDOF 2
ENDMDL
MODEL 4
REMARK VINA RESULT:      -8.0      0.303      1.592
REMARK  Name = 
REMARK  2 active torsions:
REMARK  status: ('A' for Active; 'I' for Inactive)
REMARK    1  A    between atoms: C_4  and  C_5
REMARK    2  A    between atoms: C_11  and  C_12
REMARK                            x       y       z     vdW  Elec       q    Type
REMARK                         _______ _______ _______ _____ _____    ______ ____
ROOT
ATOM      1  O   UNL     1       0.926   2.527  18.844  0.00  0.00    +0.000 OA
ATOM      2  C   UNL     1       1.944   3.186  18.645  0.00  0.00    +0.000 C 
ATOM      3  C   UNL     1       2.034   4.208  17.553  0.00  0.00    +0.000 C 
ATOM      4  C   UNL     1       3.058   5.295  17.849  0.00  0.00    +0.000 C 
ATOM      5  C   UNL     1       4.302   4.710  18.517  0.00  0.00    +0.000 C 
ATOM      6  N   UNL     1       4.273   3.616  19.220  0.00  0.00    +0.000 NA
ATOM      7  N   UNL     1       3.098   2.944  19.338  0.00  0.00    +0.000 N 
ATOM      8  H   UNL     1       3.078   2.181  20.008  0.00  0.00    +0.000 HD
ENDROOT
BRANCH   4   9
ATOM      9  C   UNL     1       2.445   6.435  18.652  0.00  0.00    +0.000 A 
ATOM     10  C   UNL     1       2.254   7.715  18.108  0.00  0.00    +0.000 A 
ATOM     11  C   UNL     1       1.731   8.749  18.886  0.00  0.00    +0.000 A 
ATOM     12  C   UNL     1       1.399   8.523  20.218  0.00  0.00    +0.000 A 
ATOM     13  C   UNL     1       1.581   7.259  20.775  0.00  0.00    +0.000 A 
ATOM     14  C   UNL     1       2.100   6.222  19.997  0.00  0.00    +0.000 A 
ENDBRANCH   4   9
BRANCH   5  15
ATOM     15  C   UNL     1       5.589   5.482  18.453  0.00  0.00    +0.000 A 
ATOM     16  C   UNL     1       5.762   6.412  17.419  0.00  0.00    +0.000 A 
ATOM     17  C   UNL     1       6.953   7.133  17.306  0.00  0.00    +0.000 A 
ATOM     18  C   UNL     1       7.976   6.936  18.231  0.00  0.00    +0.000 A 
ATOM     19  C   UNL     1       7.809   6.020  19.267  0.00  0.00    +0.000 A 
ATOM     20  C   UNL     1       6.620   5.293  19.380  0.00  0.00    +0.000 A 
ENDBRANCH   5  15
TORSDOF 2
ENDMDL
MODEL 5
REMARK VINA RESULT:      -7.9      1.598      1.943
REMARK  Name = 
REMARK  2 active torsions:
REMARK  status: ('A' for Active; 'I' for Inactive)
REMARK    1  A    between atoms: C_4  and  C_5
REMARK    2  A    between atoms: C_11  and  C_12
REMARK                            x       y       z     vdW  Elec       q    Type
REMARK                         _______ _______ _______ _____ _____    ______ ____
ROOT
ATOM      1  O   UNL     1       1.280   2.465  21.722  0.00  0.00    +0.000 OA
ATOM      2  C   UNL     1       2.010   2.767  20.780  0.00  0.00    +0.000 C 
ATOM      3  C   UNL     1       1.467   3.206  19.455  0.00  0.00    +0.000 C 
ATOM      4  C   UNL     1       2.438   4.091  18.686  0.00  0.00    +0.000 C 
ATOM      5  C   UNL     1       3.876   3.601  18.850  0.00  0.00    +0.000 C 
ATOM      6  N   UNL     1       4.273   2.925  19.889  0.00  0.00    +0.000 NA
ATOM      7  N   UNL     1       3.368   2.610  20.851  0.00  0.00    +0.000 N 
ATOM      8  H   UNL     1       3.738   2.213  21.709  0.00  0.00    +0.000 HD
ENDROOT
BRANCH   4   9
ATOM      9  C   UNL     1       2.274   5.558  19.063  0.00  0.00    +0.000 A 
ATOM     10  C   UNL     1       1.870   5.960  20.346  0.00  0.00    +0.000 A 
ATOM     11  C   UNL     1       1.686   7.312  20.645  0.00  0.00    +0.000 A 
ATOM     12  C   UNL     1       1.895   8.278  19.665  0.00  0.00    +0.000 A 
ATOM     13  C   UNL     1       2.296   7.898  18.387  0.00  0.00    +0.000 A 
ATOM     14  C   UNL     1       2.485   6.547  18.088  0.00  0.00    +0.000 A 
ENDBRANCH   4   9
BRANCH   5  15
ATOM     15  C   UNL     1       4.901   4.005  17.829  0.00  0.00    +0.000 A 
ATOM     16  C   UNL     1       6.138   4.488  18.278  0.00  0.00    +0.000 A 
ATOM     17  C   UNL     1       7.112   4.900  17.365  0.00  0.00    +0.000 A 
ATOM     18  C   UNL     1       6.859   4.823  15.997  0.00  0.00    +0.000 A 
ATOM     19  C   UNL     1       5.635   4.337  15.542  0.00  0.00    +0.000 A 
ATOM     20  C   UNL     1       4.657   3.928  16.454  0.00  0.00    +0.000 A 
ENDBRANCH   5  15
TORSDOF 2
ENDMDL
MODEL 6
REMARK VINA RESULT:      -7.9      1.672      2.193
REMARK  Name = 
REMARK  2 active torsions:
REMARK  status: ('A' for Active; 'I' for Inactive)
REMARK    1  A    between atoms: C_4  and  C_5
REMARK    2  A    between atoms: C_11  and  C_12
REMARK                            x       y       z     vdW  Elec       q    Type
REMARK                         _______ _______ _______ _____ _____    ______ ____
ROOT
ATOM      1  O   UNL     1       1.652   2.327  21.639  0.00  0.00    +0.000 OA
ATOM      2  C   UNL     1       2.343   2.670  20.682  0.00  0.00    +0.000 C 
ATOM      3  C   UNL     1       1.746   3.085  19.373  0.00  0.00    +0.000 C 
ATOM      4  C   UNL     1       2.650   4.024  18.586  0.00  0.00    +0.000 C 
ATOM      5  C   UNL     1       4.115   3.609  18.714  0.00  0.00    +0.000 C 
ATOM      6  N   UNL     1       4.572   2.950  19.739  0.00  0.00    +0.000 NA
ATOM      7  N   UNL     1       3.708   2.584  20.720  0.00  0.00    +0.000 N 
ATOM      8  H   UNL     1       4.119   2.203  21.567  0.00  0.00    +0.000 HD
ENDROOT
BRANCH   4   9
ATOM      9  C   UNL     1       2.419   5.479  18.975  0.00  0.00    +0.000 A 
ATOM     10  C   UNL     1       2.000   5.851  20.262  0.00  0.00    +0.000 A 
ATOM     11  C   UNL     1       1.754   7.190  20.571  0.00  0.00    +0.000 A 
ATOM     12  C   UNL     1       1.914   8.173  19.599  0.00  0.00    +0.000 A 
ATOM     13  C   UNL     1       2.330   7.822  18.317  0.00  0.00    +0.000 A 
ATOM     14  C   UNL     1       2.581   6.484  18.007  0.00  0.00    +0.000 A 
ENDBRANCH   4   9
BRANCH   5  15
ATOM     15  C   UNL     1       5.093   4.071  17.671  0.00  0.00    +0.000 A 
ATOM     16  C   UNL     1       4.731   3.966  16.321  0.00  0.00    +0.000 A 
ATOM     17  C   UNL     1       5.619   4.358  15.316  0.00  0.00    +0.000 A 
ATOM     18  C   UNL     1       6.871   4.867  15.654  0.00  0.00    +0.000 A 
ATOM     19  C   UNL     1       7.235   4.984  16.994  0.00  0.00    +0.000 A 
ATOM     20  C   UNL     1       6.351   4.587  18.002  0.00  0.00    +0.000 A 
ENDBRANCH   5  15
TORSDOF 2
ENDMDL
MODEL 7
REMARK VINA RESULT:      -7.9      1.712      2.328
REMARK  Name = 
REMARK  2 active torsions:
REMARK  status: ('A' for Active; 'I' for Inactive)
REMARK    1  A    between atoms: C_4  and  C_5
REMARK    2  A    between atoms: C_11  and  C_12
REMARK                            x       y       z     vdW  Elec       q    Type
REMARK                         _______ _______ _______ _____ _____    ______ ____
ROOT
ATOM      1  O   UNL     1       1.851   2.284  21.834  0.00  0.00    +0.000 OA
ATOM      2  C   UNL     1       2.492   2.622  20.840  0.00  0.00    +0.000 C 
ATOM      3  C   UNL     1       1.831   2.960  19.539  0.00  0.00    +0.000 C 
ATOM      4  C   UNL     1       2.664   3.907  18.687  0.00  0.00    +0.000 C 
ATOM      5  C   UNL     1       4.149   3.564  18.776  0.00  0.00    +0.000 C 
ATOM      6  N   UNL     1       4.671   2.965  19.806  0.00  0.00    +0.000 NA
ATOM      7  N   UNL     1       3.859   2.598  20.831  0.00  0.00    +0.000 N 
ATOM      8  H   UNL     1       4.317   2.268  21.676  0.00  0.00    +0.000 HD
ENDROOT
BRANCH   4   9
ATOM      9  C   UNL     1       2.379   5.364  19.031  0.00  0.00    +0.000 A 
ATOM     10  C   UNL     1       2.600   6.405  18.116  0.00  0.00    +0.000 A 
ATOM     11  C   UNL     1       2.371   7.734  18.479  0.00  0.00    +0.000 A 
ATOM     12  C   UNL     1       1.926   8.041  19.762  0.00  0.00    +0.000 A 
ATOM     13  C   UNL     1       1.700   7.020  20.682  0.00  0.00    +0.000 A 
ATOM     14  C   UNL     1       1.925   5.690  20.320  0.00  0.00    +0.000 A 
ENDBRANCH   4   9
BRANCH   5  15
ATOM     15  C   UNL     1       5.068   4.029  17.682  0.00  0.00    +0.000 A 
ATOM     16  C   UNL     1       6.303   4.589  18.038  0.00  0.00    +0.000 A 
ATOM     17  C   UNL     1       7.178   5.059  17.056  0.00  0.00    +0.000 A 
ATOM     18  C   UNL     1       6.830   4.963  15.711  0.00  0.00    +0.000 A 
ATOM     19  C   UNL     1       5.608   4.400  15.347  0.00  0.00    +0.000 A 
ATOM     20  C   UNL     1       4.728   3.933  16.328  0.00  0.00    +0.000 A 
ENDBRANCH   5  15
TORSDOF 2
ENDMDL
MODEL 8
REMARK VINA RESULT:      -7.8      1.658      2.482
REMARK  Name = 
REMARK  2 active torsions:
REMARK  status: ('A' for Active; 'I' for Inactive)
REMARK    1  A    between atoms: C_4  and  C_5
REMARK    2  A    between atoms: C_11  and  C_12
REMARK                            x       y       z     vdW  Elec       q    Type
REMARK                         _______ _______ _______ _____ _____    ______ ____
ROOT
ATOM      1  O   UNL     1       1.372   2.470  21.879  0.00  0.00    +0.000 OA
ATOM      2  C   UNL     1       2.076   2.765  20.915  0.00  0.00    +0.000 C 
ATOM      3  C   UNL     1       1.496   3.143  19.586  0.00  0.00    +0.000 C 
ATOM      4  C   UNL     1       2.424   4.034  18.773  0.00  0.00    +0.000 C 
ATOM      5  C   UNL     1       3.880   3.596  18.927  0.00  0.00    +0.000 C 
ATOM      6  N   UNL     1       4.317   2.967  19.979  0.00  0.00    +0.000 NA
ATOM      7  N   UNL     1       3.438   2.654  20.966  0.00  0.00    +0.000 N 
ATOM      8  H   UNL     1       3.836   2.297  21.830  0.00  0.00    +0.000 HD
ENDROOT
BRANCH   4   9
ATOM      9  C   UNL     1       2.218   5.506  19.106  0.00  0.00    +0.000 A 
ATOM     10  C   UNL     1       2.475   6.526  18.176  0.00  0.00    +0.000 A 
ATOM     11  C   UNL     1       2.318   7.868  18.529  0.00  0.00    +0.000 A 
ATOM     12  C   UNL     1       1.911   8.209  19.815  0.00  0.00    +0.000 A 
ATOM     13  C   UNL     1       1.651   7.211  20.750  0.00  0.00    +0.000 A 
ATOM     14  C   UNL     1       1.803   5.868  20.398  0.00  0.00    +0.000 A 
ENDBRANCH   4   9
BRANCH   5  15
ATOM     15  C   UNL     1       4.874   4.000  17.875  0.00  0.00    +0.000 A 
ATOM     16  C   UNL     1       4.509   3.878  16.527  0.00  0.00    +0.000 A 
ATOM     17  C   UNL     1       5.411   4.216  15.515  0.00  0.00    +0.000 A 
ATOM     18  C   UNL     1       6.679   4.689  15.844  0.00  0.00    +0.000 A 
ATOM     19  C   UNL     1       7.047   4.823  17.181  0.00  0.00    +0.000 A 
ATOM     20  C   UNL     1       6.148   4.480  18.196  0.00  0.00    +0.000 A 
ENDBRANCH   5  15
TORSDOF 2
ENDMDL
MODEL 9
REMARK VINA RESULT:      -7.7      1.070      1.166
REMARK  Name = 
REMARK  2 active torsions:
REMARK  status: ('A' for Active; 'I' for Inactive)
REMARK    1  A    between atoms: C_4  and  C_5
REMARK    2  A    between atoms: C_11  and  C_12
REMARK                            x       y       z     vdW  Elec       q    Type
REMARK                         _______ _______ _______ _____ _____    ______ ____
ROOT
ATOM      1  O   UNL     1       2.313   1.711  18.808  0.00  0.00    +0.000 OA
ATOM      2  C   UNL     1       3.130   2.598  18.570  0.00  0.00    +0.000 C 
ATOM      3  C   UNL     1       2.866   3.683  17.572  0.00  0.00    +0.000 C 
ATOM      4  C   UNL     1       3.652   4.954  17.864  0.00  0.00    +0.000 C 
ATOM      5  C   UNL     1       5.063   4.627  18.351  0.00  0.00    +0.000 C 
ATOM      6  N   UNL     1       5.358   3.511  18.951  0.00  0.00    +0.000 NA
ATOM      7  N   UNL     1       4.382   2.582  19.122  0.00  0.00    +0.000 N 
ATOM      8  H   UNL     1       4.609   1.791  19.719  0.00  0.00    +0.000 HD
ENDROOT
BRANCH   4   9
ATOM      9  C   UNL     1       2.900   5.868  18.824  0.00  0.00    +0.000 A 
ATOM     10  C   UNL     1       2.368   5.403  20.036  0.00  0.00    +0.000 A 
ATOM     11  C   UNL     1       1.645   6.258  20.872  0.00  0.00    +0.000 A 
ATOM     12  C   UNL     1       1.438   7.584  20.503  0.00  0.00    +0.000 A 
ATOM     13  C   UNL     1       1.959   8.062  19.304  0.00  0.00    +0.000 A 
ATOM     14  C   UNL     1       2.686   7.210  18.469  0.00  0.00    +0.000 A 
ENDBRANCH   4   9
BRANCH   5  15
ATOM     15  C   UNL     1       6.132   5.675  18.232  0.00  0.00    +0.000 A 
ATOM     16  C   UNL     1       7.205   5.641  19.133  0.00  0.00    +0.000 A 
ATOM     17  C   UNL     1       8.209   6.611  19.077  0.00  0.00    +0.000 A 
ATOM     18  C   UNL     1       8.153   7.615  18.113  0.00  0.00    +0.000 A 
ATOM     19  C   UNL     1       7.094   7.651  17.207  0.00  0.00    +0.000 A 
ATOM     20  C   UNL     1       6.085   6.685  17.264  0.00  0.00    +0.000 A 
ENDBRANCH   5  15
TORSDOF 2
ENDMDL
