MODEL 1
REMARK VINA RESULT:      -7.7      0.000      0.000
REMARK  Name = 
REMARK  11 active torsions:
REMARK  status: ('A' for Active; 'I' for Inactive)
REMARK    1  A    between atoms: C_1  and  C_2
REMARK    2  A    between atoms: C_2  and  O_4
REMARK    3  A    between atoms: O_4  and  C_5
REMARK    4  A    between atoms: C_8  and  N_9
REMARK    5  A    between atoms: C_14  and  N_15
REMARK    6  A    between atoms: C_21  and  O_22
REMARK    7  A    between atoms: O_22  and  C_23
REMARK    8  A    between atoms: C_23  and  C_24
REMARK    9  A    between atoms: C_26  and  O_27
REMARK   10  A    between atoms: O_27  and  C_28
REMARK   11  A    between atoms: C_28  and  C_29
REMARK                            x       y       z     vdW  Elec       q    Type
REMARK                         _______ _______ _______ _____ _____    ______ ____
ROOT
ATOM      1  C   UNL     1       5.425   4.434  18.492  0.00  0.00    +0.000 C 
ATOM      2  C   UNL     1       5.010   5.265  19.709  0.00  0.00    +0.000 C 
ATOM      3  O   UNL     1       3.677   5.027  20.155  0.00  0.00    +0.000 OA
ATOM      4  C   UNL     1       2.659   5.194  19.148  0.00  0.00    +0.000 C 
ATOM      5  C   UNL     1       2.951   4.213  17.977  0.00  0.00    +0.000 C 
ATOM      6  C   UNL     1       4.352   4.451  17.392  0.00  0.00    +0.000 C 
ENDROOT
BRANCH   4   7
ATOM      7  N   UNL     1       2.457   6.616  18.806  0.00  0.00    +0.000 N 
ATOM      8  C   UNL     1       2.677   7.142  17.550  0.00  0.00    +0.000 A 
ATOM      9  C   UNL     1       2.382   8.481  17.567  0.00  0.00    +0.000 A 
ATOM     10  C   UNL     1       1.868   8.787  18.849  0.00  0.00    +0.000 A 
ATOM     11  C   UNL     1       1.361   9.976  19.409  0.00  0.00    +0.000 A 
ATOM     12  C   UNL     1       0.897   9.961  20.730  0.00  0.00    +0.000 A 
ATOM     13  C   UNL     1       0.929   8.789  21.490  0.00  0.00    +0.000 A 
ATOM     14  C   UNL     1       1.420   7.597  20.937  0.00  0.00    +0.000 A 
ATOM     15  C   UNL     1       1.900   7.611  19.611  0.00  0.00    +0.000 A 
BRANCH  12  16
ATOM     16  N   UNL     1       0.368  11.200  21.314  0.00  0.00    +0.000 N 
ATOM     17  O   UNL     1       1.113  12.192  21.336  0.00  0.00    +0.000 OA
ATOM     18  O   UNL     1      -0.789  11.185  21.756  0.00  0.00    +0.000 OA
ENDBRANCH  12  16
ENDBRANCH   4   7
BRANCH   1  19
ATOM     19  O   UNL     1       6.646   4.936  17.899  0.00  0.00    +0.000 OA
BRANCH  19  21
ATOM     20  C   UNL     1       7.723   6.991  18.151  0.00  0.00    +0.000 C 
ATOM     21  C   UNL     1       7.500   5.617  18.702  0.00  0.00    +0.000 C 
ATOM     22  O   UNL     1       8.020   5.174  19.714  0.00  0.00    +0.000 OA
ENDBRANCH  19  21
ENDBRANCH   1  19
BRANCH   5  23
ATOM     23  O   UNL     1       2.947   2.834  18.464  0.00  0.00    +0.000 OA
BRANCH  23  24
ATOM     24  C   UNL     1       1.773   2.379  18.972  0.00  0.00    +0.000 C 
ATOM     25  C   UNL     1       1.868   2.146  20.450  0.00  0.00    +0.000 C 
ATOM     26  O   UNL     1       0.755   2.214  18.314  0.00  0.00    +0.000 OA
ENDBRANCH  23  24
ENDBRANCH   5  23
BRANCH   6  27
ATOM     27  O   UNL     1       4.442   5.707  16.677  0.00  0.00    +0.000 OA
BRANCH  27  28
ATOM     28  C   UNL     1       5.198   5.703  15.546  0.00  0.00    +0.000 C 
ATOM     29  C   UNL     1       5.194   4.352  14.893  0.00  0.00    +0.000 C 
ATOM     30  O   UNL     1       5.817   6.668  15.120  0.00  0.00    +0.000 OA
ENDBRANCH  27  28
ENDBRANCH   6  27
TORSDOF 8
ENDMDL
MODEL 2
REMARK VINA RESULT:      -7.3      3.273      9.141
REMARK  Name = 
REMARK  11 active torsions:
REMARK  status: ('A' for Active; 'I' for Inactive)
REMARK    1  A    between atoms: C_1  and  C_2
REMARK    2  A    between atoms: C_2  and  O_4
REMARK    3  A    between atoms: O_4  and  C_5
REMARK    4  A    between atoms: C_8  and  N_9
REMARK    5  A    between atoms: C_14  and  N_15
REMARK    6  A    between atoms: C_21  and  O_22
REMARK    7  A    between atoms: O_22  and  C_23
REMARK    8  A    between atoms: C_23  and  C_24
REMARK    9  A    between atoms: C_26  and  O_27
REMARK   10  A    between atoms: O_27  and  C_28
REMARK   11  A    between atoms: C_28  and  C_29
REMARK                            x       y       z     vdW  Elec       q    Type
REMARK                         _______ _______ _______ _____ _____    ______ ____
ROOT
ATOM      1  C   UNL     1      -1.981  12.717  20.331  0.00  0.00    +0.000 C 
ATOM      2  C   UNL     1      -1.123  12.472  21.576  0.00  0.00    +0.000 C 
ATOM      3  O   UNL     1       0.268  12.722  21.387  0.00  0.00    +0.000 OA
ATOM      4  C   UNL     1       0.874  12.003  20.294  0.00  0.00    +0.000 C 
ATOM      5  C   UNL     1       0.139  12.386  18.978  0.00  0.00    +0.000 C 
ATOM      6  C   UNL     1      -1.364  12.082  19.074  0.00  0.00    +0.000 C 
ENDROOT
BRANCH   4   7
ATOM      7  N   UNL     1       1.014  10.565  20.598  0.00  0.00    +0.000 N 
ATOM      8  C   UNL     1       0.547   9.976  21.754  0.00  0.00    +0.000 A 
ATOM      9  C   UNL     1       0.823   8.633  21.715  0.00  0.00    +0.000 A 
ATOM     10  C   UNL     1       1.397   8.353  20.453  0.00  0.00    +0.000 A 
ATOM     11  C   UNL     1       1.822   7.153  19.850  0.00  0.00    +0.000 A 
ATOM     12  C   UNL     1       2.343   7.194  18.551  0.00  0.00    +0.000 A 
ATOM     13  C   UNL     1       2.441   8.400  17.852  0.00  0.00    +0.000 A 
ATOM     14  C   UNL     1       2.007   9.598  18.440  0.00  0.00    +0.000 A 
ATOM     15  C   UNL     1       1.494   9.563  19.752  0.00  0.00    +0.000 A 
BRANCH  12  16
ATOM     16  N   UNL     1       2.787   5.944  17.921  0.00  0.00    +0.000 N 
ATOM     17  O   UNL     1       1.971   5.012  17.849  0.00  0.00    +0.000 OA
ATOM     18  O   UNL     1       3.951   5.887  17.502  0.00  0.00    +0.000 OA
ENDBRANCH  12  16
ENDBRANCH   4   7
BRANCH   1  19
ATOM     19  O   UNL     1      -3.305  12.154  20.482  0.00  0.00    +0.000 OA
BRANCH  19  21
ATOM     20  C   UNL     1      -4.131  14.307  20.834  0.00  0.00    +0.000 C 
ATOM     21  C   UNL     1      -4.209  12.859  21.206  0.00  0.00    +0.000 C 
ATOM     22  O   UNL     1      -4.962  12.389  22.043  0.00  0.00    +0.000 OA
ENDBRANCH  19  21
ENDBRANCH   1  19
BRANCH   5  23
ATOM     23  O   UNL     1       0.245  13.826  18.745  0.00  0.00    +0.000 OA
BRANCH  23  24
ATOM     24  C   UNL     1       1.502  14.324  18.612  0.00  0.00    +0.000 C 
ATOM     25  C   UNL     1       1.701  15.544  19.460  0.00  0.00    +0.000 C 
ATOM     26  O   UNL     1       2.373  13.819  17.917  0.00  0.00    +0.000 OA
ENDBRANCH  23  24
ENDBRANCH   5  23
BRANCH   6  27
ATOM     27  O   UNL     1      -1.636  10.660  19.093  0.00  0.00    +0.000 OA
BRANCH  27  28
ATOM     28  C   UNL     1      -1.954  10.093  17.898  0.00  0.00    +0.000 C 
ATOM     29  C   UNL     1      -3.441  10.019  17.708  0.00  0.00    +0.000 C 
ATOM     30  O   UNL     1      -1.139   9.678  17.086  0.00  0.00    +0.000 OA
ENDBRANCH  27  28
ENDBRANCH   6  27
TORSDOF 8
ENDMDL
MODEL 3
REMARK VINA RESULT:      -7.3      2.630      8.153
REMARK  Name = 
REMARK  11 active torsions:
REMARK  status: ('A' for Active; 'I' for Inactive)
REMARK    1  A    between atoms: C_1  and  C_2
REMARK    2  A    between atoms: C_2  and  O_4
REMARK    3  A    between atoms: O_4  and  C_5
REMARK    4  A    between atoms: C_8  and  N_9
REMARK    5  A    between atoms: C_14  and  N_15
REMARK    6  A    between atoms: C_21  and  O_22
REMARK    7  A    between atoms: O_22  and  C_23
REMARK    8  A    between atoms: C_23  and  C_24
REMARK    9  A    between atoms: C_26  and  O_27
REMARK   10  A    between atoms: O_27  and  C_28
REMARK   11  A    between atoms: C_28  and  C_29
REMARK                            x       y       z     vdW  Elec       q    Type
REMARK                         _______ _______ _______ _____ _____    ______ ____
ROOT
ATOM      1  C   UNL     1       1.291  12.265  19.692  0.00  0.00    +0.000 C 
ATOM      2  C   UNL     1       2.277  11.455  18.846  0.00  0.00    +0.000 C 
ATOM      3  O   UNL     1       1.663  10.614  17.873  0.00  0.00    +0.000 OA
ATOM      4  C   UNL     1       0.682   9.696  18.394  0.00  0.00    +0.000 C 
ATOM      5  C   UNL     1      -0.442  10.511  19.095  0.00  0.00    +0.000 C 
ATOM      6  C   UNL     1       0.132  11.399  20.211  0.00  0.00    +0.000 C 
ENDROOT
BRANCH   4   7
ATOM      7  N   UNL     1       1.310   8.605  19.167  0.00  0.00    +0.000 N 
ATOM      8  C   UNL     1       0.859   8.180  20.398  0.00  0.00    +0.000 A 
ATOM      9  C   UNL     1       1.651   7.147  20.833  0.00  0.00    +0.000 A 
ATOM     10  C   UNL     1       2.570   6.852  19.799  0.00  0.00    +0.000 A 
ATOM     11  C   UNL     1       3.569   5.868  19.670  0.00  0.00    +0.000 A 
ATOM     12  C   UNL     1       4.322   5.813  18.491  0.00  0.00    +0.000 A 
ATOM     13  C   UNL     1       4.090   6.714  17.448  0.00  0.00    +0.000 A 
ATOM     14  C   UNL     1       3.087   7.688  17.561  0.00  0.00    +0.000 A 
ATOM     15  C   UNL     1       2.336   7.755  18.752  0.00  0.00    +0.000 A 
BRANCH  12  16
ATOM     16  N   UNL     1       5.364   4.788  18.357  0.00  0.00    +0.000 N 
ATOM     17  O   UNL     1       6.178   4.910  17.429  0.00  0.00    +0.000 OA
ATOM     18  O   UNL     1       5.369   3.855  19.172  0.00  0.00    +0.000 OA
ENDBRANCH  12  16
ENDBRANCH   4   7
BRANCH   1  19
ATOM     19  O   UNL     1       1.937  12.845  20.850  0.00  0.00    +0.000 OA
BRANCH  19  21
ATOM     20  C   UNL     1       1.646  15.036  20.102  0.00  0.00    +0.000 C 
ATOM     21  C   UNL     1       1.530  14.076  21.245  0.00  0.00    +0.000 C 
ATOM     22  O   UNL     1       1.139  14.363  22.366  0.00  0.00    +0.000 OA
ENDBRANCH  19  21
ENDBRANCH   1  19
BRANCH   5  23
ATOM     23  O   UNL     1      -1.072  11.422  18.140  0.00  0.00    +0.000 OA
BRANCH  23  24
ATOM     24  C   UNL     1      -2.390  11.212  17.887  0.00  0.00    +0.000 C 
ATOM     25  C   UNL     1      -2.584  10.216  16.784  0.00  0.00    +0.000 C 
ATOM     26  O   UNL     1      -3.303  11.741  18.506  0.00  0.00    +0.000 OA
ENDBRANCH  23  24
ENDBRANCH   5  23
BRANCH   6  27
ATOM     27  O   UNL     1       0.603  10.624  21.340  0.00  0.00    +0.000 OA
BRANCH  27  28
ATOM     28  C   UNL     1      -0.145  10.698  22.474  0.00  0.00    +0.000 C 
ATOM     29  C   UNL     1      -1.229  11.728  22.345  0.00  0.00    +0.000 C 
ATOM     30  O   UNL     1       0.047  10.028  23.479  0.00  0.00    +0.000 OA
ENDBRANCH  27  28
ENDBRANCH   6  27
TORSDOF 8
ENDMDL
MODEL 4
REMARK VINA RESULT:      -7.2      3.791      9.771
REMARK  Name = 
REMARK  11 active torsions:
REMARK  status: ('A' for Active; 'I' for Inactive)
REMARK    1  A    between atoms: C_1  and  C_2
REMARK    2  A    between atoms: C_2  and  O_4
REMARK    3  A    between atoms: O_4  and  C_5
REMARK    4  A    between atoms: C_8  and  N_9
REMARK    5  A    between atoms: C_14  and  N_15
REMARK    6  A    between atoms: C_21  and  O_22
REMARK    7  A    between atoms: O_22  and  C_23
REMARK    8  A    between atoms: C_23  and  C_24
REMARK    9  A    between atoms: C_26  and  O_27
REMARK   10  A    between atoms: O_27  and  C_28
REMARK   11  A    between atoms: C_28  and  C_29
REMARK                            x       y       z     vdW  Elec       q    Type
REMARK                         _______ _______ _______ _____ _____    ______ ____
ROOT
ATOM      1  C   UNL     1      -3.032  13.010  20.623  0.00  0.00    +0.000 C 
ATOM      2  C   UNL     1      -2.298  12.718  21.935  0.00  0.00    +0.000 C 
ATOM      3  O   UNL     1      -0.944  13.164  21.961  0.00  0.00    +0.000 OA
ATOM      4  C   UNL     1      -0.121  12.673  20.884  0.00  0.00    +0.000 C 
ATOM      5  C   UNL     1      -0.744  13.126  19.533  0.00  0.00    +0.000 C 
ATOM      6  C   UNL     1      -2.191  12.625  19.396  0.00  0.00    +0.000 C 
ENDROOT
BRANCH   4   7
ATOM      7  N   UNL     1       0.185  11.237  21.041  0.00  0.00    +0.000 N 
ATOM      8  C   UNL     1      -0.277  10.464  22.086  0.00  0.00    +0.000 A 
ATOM      9  C   UNL     1       0.174   9.179  21.925  0.00  0.00    +0.000 A 
ATOM     10  C   UNL     1       0.861   9.120  20.690  0.00  0.00    +0.000 A 
ATOM     11  C   UNL     1       1.478   8.060  19.997  0.00  0.00    +0.000 A 
ATOM     12  C   UNL     1       2.074   8.316  18.756  0.00  0.00    +0.000 A 
ATOM     13  C   UNL     1       2.060   9.598  18.202  0.00  0.00    +0.000 A 
ATOM     14  C   UNL     1       1.436  10.657  18.878  0.00  0.00    +0.000 A 
ATOM     15  C   UNL     1       0.846  10.407  20.134  0.00  0.00    +0.000 A 
BRANCH  12  16
ATOM     16  N   UNL     1       2.717   7.211  18.033  0.00  0.00    +0.000 N 
ATOM     17  O   UNL     1       3.757   7.460  17.406  0.00  0.00    +0.000 OA
ATOM     18  O   UNL     1       2.182   6.095  18.085  0.00  0.00    +0.000 OA
ENDBRANCH  12  16
ENDBRANCH   4   7
BRANCH   1  19
ATOM     19  O   UNL     1      -4.272  12.270  20.534  0.00  0.00    +0.000 OA
BRANCH  19  21
ATOM     20  C   UNL     1      -5.737  14.084  20.613  0.00  0.00    +0.000 C 
ATOM     21  C   UNL     1      -5.347  12.763  21.198  0.00  0.00    +0.000 C 
ATOM     22  O   UNL     1      -5.904  12.219  22.138  0.00  0.00    +0.000 OA
ENDBRANCH  19  21
ENDBRANCH   1  19
BRANCH   5  23
ATOM     23  O   UNL     1      -0.817  14.585  19.478  0.00  0.00    +0.000 OA
BRANCH  23  24
ATOM     24  C   UNL     1       0.201  15.215  18.835  0.00  0.00    +0.000 C 
ATOM     25  C   UNL     1      -0.177  16.612  18.447  0.00  0.00    +0.000 C 
ATOM     26  O   UNL     1       1.300  14.717  18.631  0.00  0.00    +0.000 OA
ENDBRANCH  23  24
ENDBRANCH   5  23
BRANCH   6  27
ATOM     27  O   UNL     1      -2.259  11.189  19.220  0.00  0.00    +0.000 OA
BRANCH  27  28
ATOM     28  C   UNL     1      -2.701  10.752  18.009  0.00  0.00    +0.000 C 
ATOM     29  C   UNL     1      -1.658   9.926  17.315  0.00  0.00    +0.000 C 
ATOM     30  O   UNL     1      -3.798  11.010  17.534  0.00  0.00    +0.000 OA
ENDBRANCH  27  28
ENDBRANCH   6  27
TORSDOF 8
ENDMDL
MODEL 5
REMARK VINA RESULT:      -7.1      6.918      9.553
REMARK  Name = 
REMARK  11 active torsions:
REMARK  status: ('A' for Active; 'I' for Inactive)
REMARK    1  A    between atoms: C_1  and  C_2
REMARK    2  A    between atoms: C_2  and  O_4
REMARK    3  A    between atoms: O_4  and  C_5
REMARK    4  A    between atoms: C_8  and  N_9
REMARK    5  A    between atoms: C_14  and  N_15
REMARK    6  A    between atoms: C_21  and  O_22
REMARK    7  A    between atoms: O_22  and  C_23
REMARK    8  A    between atoms: C_23  and  C_24
REMARK    9  A    between atoms: C_26  and  O_27
REMARK   10  A    between atoms: O_27  and  C_28
REMARK   11  A    between atoms: C_28  and  C_29
REMARK                            x       y       z     vdW  Elec       q    Type
REMARK                         _______ _______ _______ _____ _____    ______ ____
ROOT
ATOM      1  C   UNL     1       0.834  13.197  20.201  0.00  0.00    +0.000 C 
ATOM      2  C   UNL     1       0.851  14.281  21.281  0.00  0.00    +0.000 C 
ATOM      3  O   UNL     1       0.556  13.807  22.594  0.00  0.00    +0.000 OA
ATOM      4  C   UNL     1      -0.689  13.091  22.716  0.00  0.00    +0.000 C 
ATOM      5  C   UNL     1      -0.654  11.863  21.763  0.00  0.00    +0.000 C 
ATOM      6  C   UNL     1      -0.407  12.297  20.310  0.00  0.00    +0.000 C 
ENDROOT
BRANCH   4   7
ATOM      7  N   UNL     1      -1.852  13.996  22.613  0.00  0.00    +0.000 N 
ATOM      8  C   UNL     1      -1.827  15.204  21.949  0.00  0.00    +0.000 A 
ATOM      9  C   UNL     1      -3.067  15.785  22.029  0.00  0.00    +0.000 A 
ATOM     10  C   UNL     1      -3.924  14.868  22.681  0.00  0.00    +0.000 A 
ATOM     11  C   UNL     1      -5.299  14.907  22.985  0.00  0.00    +0.000 A 
ATOM     12  C   UNL     1      -5.882  13.814  23.637  0.00  0.00    +0.000 A 
ATOM     13  C   UNL     1      -5.122  12.693  23.981  0.00  0.00    +0.000 A 
ATOM     14  C   UNL     1      -3.755  12.639  23.669  0.00  0.00    +0.000 A 
ATOM     15  C   UNL     1      -3.161  13.744  23.025  0.00  0.00    +0.000 A 
BRANCH  12  16
ATOM     16  N   UNL     1      -7.315  13.854  23.955  0.00  0.00    +0.000 N 
ATOM     17  O   UNL     1      -7.859  12.795  24.303  0.00  0.00    +0.000 OA
ATOM     18  O   UNL     1      -7.902  14.940  23.852  0.00  0.00    +0.000 OA
ENDBRANCH  12  16
ENDBRANCH   4   7
BRANCH   1  19
ATOM     19  O   UNL     1       0.824  13.772  18.873  0.00  0.00    +0.000 OA
BRANCH  19  21
ATOM     20  C   UNL     1       3.087  13.737  18.309  0.00  0.00    +0.000 C 
ATOM     21  C   UNL     1       1.863  14.571  18.527  0.00  0.00    +0.000 C 
ATOM     22  O   UNL     1       1.813  15.786  18.421  0.00  0.00    +0.000 OA
ENDBRANCH  19  21
ENDBRANCH   1  19
BRANCH   5  23
ATOM     23  O   UNL     1       0.460  10.985  22.116  0.00  0.00    +0.000 OA
BRANCH  23  24
ATOM     24  C   UNL     1       0.135   9.811  22.717  0.00  0.00    +0.000 C 
ATOM     25  C   UNL     1      -0.315   8.789  21.717  0.00  0.00    +0.000 C 
ATOM     26  O   UNL     1       0.232   9.602  23.919  0.00  0.00    +0.000 OA
ENDBRANCH  23  24
ENDBRANCH   5  23
BRANCH   6  27
ATOM     27  O   UNL     1      -1.541  13.001  19.748  0.00  0.00    +0.000 OA
BRANCH  27  28
ATOM     28  C   UNL     1      -2.647  12.253  19.490  0.00  0.00    +0.000 C 
ATOM     29  C   UNL     1      -2.347  11.157  18.509  0.00  0.00    +0.000 C 
ATOM     30  O   UNL     1      -3.751  12.452  19.977  0.00  0.00    +0.000 OA
ENDBRANCH  27  28
ENDBRANCH   6  27
TORSDOF 8
ENDMDL
MODEL 6
REMARK VINA RESULT:      -7.1      3.637      9.408
REMARK  Name = 
REMARK  11 active torsions:
REMARK  status: ('A' for Active; 'I' for Inactive)
REMARK    1  A    between atoms: C_1  and  C_2
REMARK    2  A    between atoms: C_2  and  O_4
REMARK    3  A    between atoms: O_4  and  C_5
REMARK    4  A    between atoms: C_8  and  N_9
REMARK    5  A    between atoms: C_14  and  N_15
REMARK    6  A    between atoms: C_21  and  O_22
REMARK    7  A    between atoms: O_22  and  C_23
REMARK    8  A    between atoms: C_23  and  C_24
REMARK    9  A    between atoms: C_26  and  O_27
REMARK   10  A    between atoms: O_27  and  C_28
REMARK   11  A    between atoms: C_28  and  C_29
REMARK                            x       y       z     vdW  Elec       q    Type
REMARK                         _______ _______ _______ _____ _____    ______ ____
ROOT
ATOM      1  C   UNL     1      -2.690  12.631  19.756  0.00  0.00    +0.000 C 
ATOM      2  C   UNL     1      -2.042  12.488  21.136  0.00  0.00    +0.000 C 
ATOM      3  O   UNL     1      -0.688  12.932  21.198  0.00  0.00    +0.000 OA
ATOM      4  C   UNL     1       0.197  12.322  20.237  0.00  0.00    +0.000 C 
ATOM      5  C   UNL     1      -0.337  12.621  18.807  0.00  0.00    +0.000 C 
ATOM      6  C   UNL     1      -1.776  12.109  18.636  0.00  0.00    +0.000 C 
ENDROOT
BRANCH   4   7
ATOM      7  N   UNL     1       0.480  10.912  20.574  0.00  0.00    +0.000 N 
ATOM      8  C   UNL     1       0.018  10.288  21.713  0.00  0.00    +0.000 A 
ATOM      9  C   UNL     1       0.445   8.984  21.713  0.00  0.00    +0.000 A 
ATOM     10  C   UNL     1       1.117   8.757  20.490  0.00  0.00    +0.000 A 
ATOM     11  C   UNL     1       1.707   7.606  19.932  0.00  0.00    +0.000 A 
ATOM     12  C   UNL     1       2.292   7.690  18.662  0.00  0.00    +0.000 A 
ATOM     13  C   UNL     1       2.293   8.891  17.949  0.00  0.00    +0.000 A 
ATOM     14  C   UNL     1       1.695  10.039  18.491  0.00  0.00    +0.000 A 
ATOM     15  C   UNL     1       1.116   9.962  19.774  0.00  0.00    +0.000 A 
BRANCH  12  16
ATOM     16  N   UNL     1       2.908   6.491  18.080  0.00  0.00    +0.000 N 
ATOM     17  O   UNL     1       3.871   6.650  17.314  0.00  0.00    +0.000 OA
ATOM     18  O   UNL     1       2.429   5.388  18.381  0.00  0.00    +0.000 OA
ENDBRANCH  12  16
ENDBRANCH   4   7
BRANCH   1  19
ATOM     19  O   UNL     1      -3.928  11.886  19.672  0.00  0.00    +0.000 OA
BRANCH  19  21
ATOM     20  C   UNL     1      -5.654  12.126  18.121  0.00  0.00    +0.000 C 
ATOM     21  C   UNL     1      -5.063  12.583  19.418  0.00  0.00    +0.000 C 
ATOM     22  O   UNL     1      -5.527  13.459  20.131  0.00  0.00    +0.000 OA
ENDBRANCH  19  21
ENDBRANCH   1  19
BRANCH   5  23
ATOM     23  O   UNL     1      -0.394  14.065  18.584  0.00  0.00    +0.000 OA
BRANCH  23  24
ATOM     24  C   UNL     1       0.778  14.740  18.707  0.00  0.00    +0.000 C 
ATOM     25  C   UNL     1       0.606  15.999  19.500  0.00  0.00    +0.000 C 
ATOM     26  O   UNL     1       1.848  14.350  18.258  0.00  0.00    +0.000 OA
ENDBRANCH  23  24
ENDBRANCH   5  23
BRANCH   6  27
ATOM     27  O   UNL     1      -1.845  10.663  18.618  0.00  0.00    +0.000 OA
BRANCH  27  28
ATOM     28  C   UNL     1      -2.603  10.109  17.633  0.00  0.00    +0.000 C 
ATOM     29  C   UNL     1      -2.314  10.741  16.303  0.00  0.00    +0.000 C 
ATOM     30  O   UNL     1      -3.428   9.223  17.805  0.00  0.00    +0.000 OA
ENDBRANCH  27  28
ENDBRANCH   6  27
TORSDOF 8
ENDMDL
MODEL 7
REMARK VINA RESULT:      -7.1      3.211      9.190
REMARK  Name = 
REMARK  11 active torsions:
REMARK  status: ('A' for Active; 'I' for Inactive)
REMARK    1  A    between atoms: C_1  and  C_2
REMARK    2  A    between atoms: C_2  and  O_4
REMARK    3  A    between atoms: O_4  and  C_5
REMARK    4  A    between atoms: C_8  and  N_9
REMARK    5  A    between atoms: C_14  and  N_15
REMARK    6  A    between atoms: C_21  and  O_22
REMARK    7  A    between atoms: O_22  and  C_23
REMARK    8  A    between atoms: C_23  and  C_24
REMARK    9  A    between atoms: C_26  and  O_27
REMARK   10  A    between atoms: O_27  and  C_28
REMARK   11  A    between atoms: C_28  and  C_29
REMARK                            x       y       z     vdW  Elec       q    Type
REMARK                         _______ _______ _______ _____ _____    ______ ____
ROOT
ATOM      1  C   UNL     1      -1.874  12.838  20.519  0.00  0.00    +0.000 C 
ATOM      2  C   UNL     1      -1.022  12.548  21.758  0.00  0.00    +0.000 C 
ATOM      3  O   UNL     1       0.376  12.764  21.573  0.00  0.00    +0.000 OA
ATOM      4  C   UNL     1       0.961  12.050  20.466  0.00  0.00    +0.000 C 
ATOM      5  C   UNL     1       0.236  12.476  19.158  0.00  0.00    +0.000 C 
ATOM      6  C   UNL     1      -1.275  12.211  19.250  0.00  0.00    +0.000 C 
ENDROOT
BRANCH   4   7
ATOM      7  N   UNL     1       1.063  10.603  20.743  0.00  0.00    +0.000 N 
ATOM      8  C   UNL     1       0.582  10.005  21.889  0.00  0.00    +0.000 A 
ATOM      9  C   UNL     1       0.822   8.656  21.825  0.00  0.00    +0.000 A 
ATOM     10  C   UNL     1       1.386   8.384  20.557  0.00  0.00    +0.000 A 
ATOM     11  C   UNL     1       1.777   7.185  19.931  0.00  0.00    +0.000 A 
ATOM     12  C   UNL     1       2.297   7.235  18.631  0.00  0.00    +0.000 A 
ATOM     13  C   UNL     1       2.425   8.451  17.955  0.00  0.00    +0.000 A 
ATOM     14  C   UNL     1       2.026   9.649  18.565  0.00  0.00    +0.000 A 
ATOM     15  C   UNL     1       1.514   9.604  19.878  0.00  0.00    +0.000 A 
BRANCH  12  16
ATOM     16  N   UNL     1       2.705   5.985  17.978  0.00  0.00    +0.000 N 
ATOM     17  O   UNL     1       3.825   5.951  17.446  0.00  0.00    +0.000 OA
ATOM     18  O   UNL     1       1.908   5.037  17.989  0.00  0.00    +0.000 OA
ENDBRANCH  12  16
ENDBRANCH   4   7
BRANCH   1  19
ATOM     19  O   UNL     1      -3.213  12.308  20.661  0.00  0.00    +0.000 OA
BRANCH  19  21
ATOM     20  C   UNL     1      -5.531  12.466  20.867  0.00  0.00    +0.000 C 
ATOM     21  C   UNL     1      -4.224  13.195  20.827  0.00  0.00    +0.000 C 
ATOM     22  O   UNL     1      -4.093  14.405  20.918  0.00  0.00    +0.000 OA
ENDBRANCH  19  21
ENDBRANCH   1  19
BRANCH   5  23
ATOM     23  O   UNL     1       0.380  13.917  18.951  0.00  0.00    +0.000 OA
BRANCH  23  24
ATOM     24  C   UNL     1       1.649  14.402  18.959  0.00  0.00    +0.000 C 
ATOM     25  C   UNL     1       2.525  13.662  17.995  0.00  0.00    +0.000 C 
ATOM     26  O   UNL     1       2.020  15.349  19.639  0.00  0.00    +0.000 OA
ENDBRANCH  23  24
ENDBRANCH   5  23
BRANCH   6  27
ATOM     27  O   UNL     1      -1.584  10.796  19.243  0.00  0.00    +0.000 OA
BRANCH  27  28
ATOM     28  C   UNL     1      -1.937  10.264  18.041  0.00  0.00    +0.000 C 
ATOM     29  C   UNL     1      -3.419  10.354  17.820  0.00  0.00    +0.000 C 
ATOM     30  O   UNL     1      -1.156   9.759  17.247  0.00  0.00    +0.000 OA
ENDBRANCH  27  28
ENDBRANCH   6  27
TORSDOF 8
ENDMDL
MODEL 8
REMARK VINA RESULT:      -7.0      2.914      8.482
REMARK  Name = 
REMARK  11 active torsions:
REMARK  status: ('A' for Active; 'I' for Inactive)
REMARK    1  A    between atoms: C_1  and  C_2
REMARK    2  A    between atoms: C_2  and  O_4
REMARK    3  A    between atoms: O_4  and  C_5
REMARK    4  A    between atoms: C_8  and  N_9
REMARK    5  A    between atoms: C_14  and  N_15
REMARK    6  A    between atoms: C_21  and  O_22
REMARK    7  A    between atoms: O_22  and  C_23
REMARK    8  A    between atoms: C_23  and  C_24
REMARK    9  A    between atoms: C_26  and  O_27
REMARK   10  A    between atoms: O_27  and  C_28
REMARK   11  A    between atoms: C_28  and  C_29
REMARK                            x       y       z     vdW  Elec       q    Type
REMARK                         _______ _______ _______ _____ _____    ______ ____
ROOT
ATOM      1  C   UNL     1       0.905  12.856  20.066  0.00  0.00    +0.000 C 
ATOM      2  C   UNL     1       1.895  12.059  19.212  0.00  0.00    +0.000 C 
ATOM      3  O   UNL     1       1.285  11.258  18.201  0.00  0.00    +0.000 OA
ATOM      4  C   UNL     1       0.282  10.339  18.676  0.00  0.00    +0.000 C 
ATOM      5  C   UNL     1      -0.842  11.149  19.383  0.00  0.00    +0.000 C 
ATOM      6  C   UNL     1      -0.275  11.991  20.536  0.00  0.00    +0.000 C 
ENDROOT
BRANCH   4   7
ATOM      7  N   UNL     1       0.880   9.215  19.424  0.00  0.00    +0.000 N 
ATOM      8  C   UNL     1       0.449   8.806  20.668  0.00  0.00    +0.000 A 
ATOM      9  C   UNL     1       1.203   7.734  21.073  0.00  0.00    +0.000 A 
ATOM     10  C   UNL     1       2.071   7.398  20.008  0.00  0.00    +0.000 A 
ATOM     11  C   UNL     1       3.015   6.366  19.844  0.00  0.00    +0.000 A 
ATOM     12  C   UNL     1       3.725   6.280  18.640  0.00  0.00    +0.000 A 
ATOM     13  C   UNL     1       3.504   7.195  17.607  0.00  0.00    +0.000 A 
ATOM     14  C   UNL     1       2.556   8.218  17.757  0.00  0.00    +0.000 A 
ATOM     15  C   UNL     1       1.849   8.317  18.973  0.00  0.00    +0.000 A 
BRANCH  12  16
ATOM     16  N   UNL     1       4.710   5.204  18.468  0.00  0.00    +0.000 N 
ATOM     17  O   UNL     1       4.332   4.039  18.663  0.00  0.00    +0.000 OA
ATOM     18  O   UNL     1       5.863   5.520  18.144  0.00  0.00    +0.000 OA
ENDBRANCH  12  16
ENDBRANCH   4   7
BRANCH   1  19
ATOM     19  O   UNL     1       1.538  13.388  21.253  0.00  0.00    +0.000 OA
BRANCH  19  21
ATOM     20  C   UNL     1       0.952  15.390  22.300  0.00  0.00    +0.000 C 
ATOM     21  C   UNL     1       1.813  14.716  21.277  0.00  0.00    +0.000 C 
ATOM     22  O   UNL     1       2.629  15.279  20.565  0.00  0.00    +0.000 OA
ENDBRANCH  19  21
ENDBRANCH   1  19
BRANCH   5  23
ATOM     23  O   UNL     1      -1.441  12.099  18.447  0.00  0.00    +0.000 OA
BRANCH  23  24
ATOM     24  C   UNL     1      -2.480  11.637  17.703  0.00  0.00    +0.000 C 
ATOM     25  C   UNL     1      -3.758  11.636  18.487  0.00  0.00    +0.000 C 
ATOM     26  O   UNL     1      -2.391  11.300  16.530  0.00  0.00    +0.000 OA
ENDBRANCH  23  24
ENDBRANCH   5  23
BRANCH   6  27
ATOM     27  O   UNL     1       0.164  11.174  21.648  0.00  0.00    +0.000 OA
BRANCH  27  28
ATOM     28  C   UNL     1      -0.640  11.169  22.746  0.00  0.00    +0.000 C 
ATOM     29  C   UNL     1      -1.464  12.420  22.822  0.00  0.00    +0.000 C 
ATOM     30  O   UNL     1      -0.678  10.272  23.576  0.00  0.00    +0.000 OA
ENDBRANCH  27  28
ENDBRANCH   6  27
TORSDOF 8
ENDMDL
MODEL 9
REMARK VINA RESULT:      -6.9      4.364      8.638
REMARK  Name = 
REMARK  11 active torsions:
REMARK  status: ('A' for Active; 'I' for Inactive)
REMARK    1  A    between atoms: C_1  and  C_2
REMARK    2  A    between atoms: C_2  and  O_4
REMARK    3  A    between atoms: O_4  and  C_5
REMARK    4  A    between atoms: C_8  and  N_9
REMARK    5  A    between atoms: C_14  and  N_15
REMARK    6  A    between atoms: C_21  and  O_22
REMARK    7  A    between atoms: O_22  and  C_23
REMARK    8  A    between atoms: C_23  and  C_24
REMARK    9  A    between atoms: C_26  and  O_27
REMARK   10  A    between atoms: O_27  and  C_28
REMARK   11  A    between atoms: C_28  and  C_29
REMARK                            x       y       z     vdW  Elec       q    Type
REMARK                         _______ _______ _______ _____ _____    ______ ____
ROOT
ATOM      1  C   UNL     1       1.243  10.801  19.407  0.00  0.00    +0.000 C 
ATOM      2  C   UNL     1       0.441  11.573  18.356  0.00  0.00    +0.000 C 
ATOM      3  O   UNL     1       0.318  12.969  18.621  0.00  0.00    +0.000 OA
ATOM      4  C   UNL     1      -0.230  13.298  19.913  0.00  0.00    +0.000 C 
ATOM      5  C   UNL     1       0.682  12.683  21.013  0.00  0.00    +0.000 C 
ATOM      6  C   UNL     1       0.812  11.162  20.838  0.00  0.00    +0.000 C 
ENDROOT
BRANCH   4   7
ATOM      7  N   UNL     1      -1.674  12.998  19.986  0.00  0.00    +0.000 N 
ATOM      8  C   UNL     1      -2.385  12.397  18.968  0.00  0.00    +0.000 A 
ATOM      9  C   UNL     1      -3.691  12.249  19.361  0.00  0.00    +0.000 A 
ATOM     10  C   UNL     1      -3.783  12.683  20.704  0.00  0.00    +0.000 A 
ATOM     11  C   UNL     1      -4.851  12.708  21.621  0.00  0.00    +0.000 A 
ATOM     12  C   UNL     1      -4.623  13.190  22.916  0.00  0.00    +0.000 A 
ATOM     13  C   UNL     1      -3.358  13.637  23.305  0.00  0.00    +0.000 A 
ATOM     14  C   UNL     1      -2.284  13.602  22.402  0.00  0.00    +0.000 A 
ATOM     15  C   UNL     1      -2.513  13.131  21.094  0.00  0.00    +0.000 A 
BRANCH  12  16
ATOM     16  N   UNL     1      -5.736  13.217  23.873  0.00  0.00    +0.000 N 
ATOM     17  O   UNL     1      -6.018  12.162  24.461  0.00  0.00    +0.000 OA
ATOM     18  O   UNL     1      -6.336  14.289  24.036  0.00  0.00    +0.000 OA
ENDBRANCH  12  16
ENDBRANCH   4   7
BRANCH   1  19
ATOM     19  O   UNL     1       1.068   9.371  19.262  0.00  0.00    +0.000 OA
BRANCH  19  21
ATOM     20  C   UNL     1       2.396   7.458  19.124  0.00  0.00    +0.000 C 
ATOM     21  C   UNL     1       1.933   8.713  18.452  0.00  0.00    +0.000 C 
ATOM     22  O   UNL     1       2.292   9.090  17.348  0.00  0.00    +0.000 OA
ENDBRANCH  19  21
ENDBRANCH   1  19
BRANCH   5  23
ATOM     23  O   UNL     1       2.038  13.219  20.897  0.00  0.00    +0.000 OA
BRANCH  23  24
ATOM     24  C   UNL     1       2.229  14.478  21.369  0.00  0.00    +0.000 C 
ATOM     25  C   UNL     1       2.907  15.347  20.353  0.00  0.00    +0.000 C 
ATOM     26  O   UNL     1       1.862  14.865  22.470  0.00  0.00    +0.000 OA
ENDBRANCH  23  24
ENDBRANCH   5  23
BRANCH   6  27
ATOM     27  O   UNL     1      -0.423  10.468  21.139  0.00  0.00    +0.000 OA
BRANCH  27  28
ATOM     28  C   UNL     1      -0.524   9.933  22.386  0.00  0.00    +0.000 C 
ATOM     29  C   UNL     1      -0.386   8.439  22.350  0.00  0.00    +0.000 C 
ATOM     30  O   UNL     1      -0.720  10.578  23.406  0.00  0.00    +0.000 OA
ENDBRANCH  27  28
ENDBRANCH   6  27
TORSDOF 8
ENDMDL
