MODEL 1
REMARK VINA RESULT:      -8.6      0.000      0.000
REMARK  Name = 
REMARK  3 active torsions:
REMARK  status: ('A' for Active; 'I' for Inactive)
REMARK    1  A    between atoms: O_1  and  C_2
REMARK    2  A    between atoms: C_5  and  C_6
REMARK    3  A    between atoms: C_10  and  C_11
REMARK                            x       y       z     vdW  Elec       q    Type
REMARK                         _______ _______ _______ _____ _____    ______ ____
ROOT
ATOM      1  C   UNL     1       1.075   8.726  20.322  0.00  0.00    +0.000 A 
ATOM      2  C   UNL     1       1.457   8.984  19.000  0.00  0.00    +0.000 A 
ATOM      3  C   UNL     1       2.246   8.071  18.301  0.00  0.00    +0.000 A 
ATOM      4  C   UNL     1       2.634   6.907  18.975  0.00  0.00    +0.000 A 
ATOM      5  C   UNL     1       3.416   5.741  18.703  0.00  0.00    +0.000 A 
ATOM      6  N   UNL     1       3.396   4.893  19.750  0.00  0.00    +0.000 NA
ATOM      7  N   UNL     1       2.657   5.535  20.679  0.00  0.00    +0.000 N 
ATOM      8  C   UNL     1       2.177   6.743  20.269  0.00  0.00    +0.000 A 
ATOM      9  N   UNL     1       1.411   7.587  20.988  0.00  0.00    +0.000 NA
ATOM     10  H   UNL     1       2.506   5.099  21.579  0.00  0.00    +0.000 HD
ENDROOT
BRANCH   5  11
ATOM     11  C   UNL     1       4.149   5.430  17.475  0.00  0.00    +0.000 A 
ATOM     12  C   UNL     1       4.373   4.097  17.093  0.00  0.00    +0.000 A 
ATOM     13  C   UNL     1       5.128   3.794  15.956  0.00  0.00    +0.000 A 
ATOM     14  C   UNL     1       5.643   4.824  15.177  0.00  0.00    +0.000 A 
ATOM     15 CL   UNL     1       6.574   4.449  13.780  0.00  0.00    +0.000 Cl
ATOM     16  C   UNL     1       5.405   6.153  15.520  0.00  0.00    +0.000 A 
ATOM     17  C   UNL     1       4.659   6.455  16.666  0.00  0.00    +0.000 A 
ENDBRANCH   5  11
BRANCH   1  21
ATOM     18  C   UNL     1      -1.324  11.523  22.537  0.00  0.00    +0.000 A 
ATOM     19  C   UNL     1      -0.850  10.377  23.160  0.00  0.00    +0.000 A 
ATOM     20  C   UNL     1      -0.067   9.471  22.435  0.00  0.00    +0.000 A 
ATOM     21  C   UNL     1       0.255   9.696  21.084  0.00  0.00    +0.000 A 
ATOM     22  C   UNL     1      -0.234  10.877  20.490  0.00  0.00    +0.000 A 
ATOM     23  C   UNL     1      -1.023  11.781  21.208  0.00  0.00    +0.000 A 
BRANCH  18  24
ATOM     24  O   UNL     1      -2.092  12.434  23.200  0.00  0.00    +0.000 OA
ATOM     25  H   UNL     1      -3.015  12.310  22.930  0.00  0.00    +0.000 HD
ENDBRANCH  18  24
ENDBRANCH   1  21
TORSDOF 3
ENDMDL
MODEL 2
REMARK VINA RESULT:      -8.6      0.099      1.008
REMARK  Name = 
REMARK  3 active torsions:
REMARK  status: ('A' for Active; 'I' for Inactive)
REMARK    1  A    between atoms: O_1  and  C_2
REMARK    2  A    between atoms: C_5  and  C_6
REMARK    3  A    between atoms: C_10  and  C_11
REMARK                            x       y       z     vdW  Elec       q    Type
REMARK                         _______ _______ _______ _____ _____    ______ ____
ROOT
ATOM      1  C   UNL     1       1.053   8.790  20.358  0.00  0.00    +0.000 A 
ATOM      2  C   UNL     1       1.468   9.062  19.048  0.00  0.00    +0.000 A 
ATOM      3  C   UNL     1       2.261   8.150  18.354  0.00  0.00    +0.000 A 
ATOM      4  C   UNL     1       2.622   6.972  19.019  0.00  0.00    +0.000 A 
ATOM      5  C   UNL     1       3.396   5.801  18.748  0.00  0.00    +0.000 A 
ATOM      6  N   UNL     1       3.345   4.939  19.782  0.00  0.00    +0.000 NA
ATOM      7  N   UNL     1       2.592   5.577  20.704  0.00  0.00    +0.000 N 
ATOM      8  C   UNL     1       2.134   6.795  20.301  0.00  0.00    +0.000 A 
ATOM      9  N   UNL     1       1.362   7.638  21.015  0.00  0.00    +0.000 NA
ATOM     10  H   UNL     1       2.417   5.130  21.594  0.00  0.00    +0.000 HD
ENDROOT
BRANCH   5  11
ATOM     11  C   UNL     1       4.153   5.499  17.531  0.00  0.00    +0.000 A 
ATOM     12  C   UNL     1       4.393   4.169  17.150  0.00  0.00    +0.000 A 
ATOM     13  C   UNL     1       5.169   3.875  16.026  0.00  0.00    +0.000 A 
ATOM     14  C   UNL     1       5.690   4.911  15.258  0.00  0.00    +0.000 A 
ATOM     15 CL   UNL     1       6.647   4.547  13.876  0.00  0.00    +0.000 Cl
ATOM     16  C   UNL     1       5.436   6.237  15.601  0.00  0.00    +0.000 A 
ATOM     17  C   UNL     1       4.669   6.531  16.734  0.00  0.00    +0.000 A 
ENDBRANCH   5  11
BRANCH   1  21
ATOM     18  C   UNL     1      -1.320  11.621  22.557  0.00  0.00    +0.000 A 
ATOM     19  C   UNL     1      -0.972  11.889  21.239  0.00  0.00    +0.000 A 
ATOM     20  C   UNL     1      -0.203  10.962  20.527  0.00  0.00    +0.000 A 
ATOM     21  C   UNL     1       0.229   9.759  21.116  0.00  0.00    +0.000 A 
ATOM     22  C   UNL     1      -0.155   9.518  22.451  0.00  0.00    +0.000 A 
ATOM     23  C   UNL     1      -0.916  10.444  23.169  0.00  0.00    +0.000 A 
BRANCH  18  24
ATOM     24  O   UNL     1      -2.066  12.494  23.292  0.00  0.00    +0.000 OA
ATOM     25  H   UNL     1      -1.676  12.560  24.177  0.00  0.00    +0.000 HD
ENDBRANCH  18  24
ENDBRANCH   1  21
TORSDOF 3
ENDMDL
MODEL 3
REMARK VINA RESULT:      -8.5      0.416      1.089
REMARK  Name = 
REMARK  3 active torsions:
REMARK  status: ('A' for Active; 'I' for Inactive)
REMARK    1  A    between atoms: O_1  and  C_2
REMARK    2  A    between atoms: C_5  and  C_6
REMARK    3  A    between atoms: C_10  and  C_11
REMARK                            x       y       z     vdW  Elec       q    Type
REMARK                         _______ _______ _______ _____ _____    ______ ____
ROOT
ATOM      1  C   UNL     1       1.301   8.379  20.238  0.00  0.00    +0.000 A 
ATOM      2  C   UNL     1       1.704   8.674  18.930  0.00  0.00    +0.000 A 
ATOM      3  C   UNL     1       2.492   7.775  18.212  0.00  0.00    +0.000 A 
ATOM      4  C   UNL     1       2.859   6.586  18.854  0.00  0.00    +0.000 A 
ATOM      5  C   UNL     1       3.631   5.420  18.556  0.00  0.00    +0.000 A 
ATOM      6  N   UNL     1       3.588   4.540  19.576  0.00  0.00    +0.000 NA
ATOM      7  N   UNL     1       2.843   5.161  20.515  0.00  0.00    +0.000 N 
ATOM      8  C   UNL     1       2.382   6.386  20.137  0.00  0.00    +0.000 A 
ATOM      9  N   UNL     1       1.615   7.216  20.872  0.00  0.00    +0.000 NA
ATOM     10  H   UNL     1       2.675   4.699  21.399  0.00  0.00    +0.000 HD
ENDROOT
BRANCH   5  11
ATOM     11  C   UNL     1       4.377   5.140  17.328  0.00  0.00    +0.000 A 
ATOM     12  C   UNL     1       4.873   6.188  16.537  0.00  0.00    +0.000 A 
ATOM     13  C   UNL     1       5.529   5.928  15.330  0.00  0.00    +0.000 A 
ATOM     14  C   UNL     1       5.718   4.612  14.920  0.00  0.00    +0.000 A 
ATOM     15 CL   UNL     1       6.524   4.294  13.434  0.00  0.00    +0.000 Cl
ATOM     16  C   UNL     1       5.263   3.557  15.707  0.00  0.00    +0.000 A 
ATOM     17  C   UNL     1       4.595   3.819  16.908  0.00  0.00    +0.000 A 
ENDBRANCH   5  11
BRANCH   1  21
ATOM     18  C   UNL     1      -1.096  11.132  22.511  0.00  0.00    +0.000 A 
ATOM     19  C   UNL     1      -0.552  10.015  23.132  0.00  0.00    +0.000 A 
ATOM     20  C   UNL     1       0.231   9.125  22.388  0.00  0.00    +0.000 A 
ATOM     21  C   UNL     1       0.482   9.334  21.019  0.00  0.00    +0.000 A 
ATOM     22  C   UNL     1      -0.077  10.485  20.428  0.00  0.00    +0.000 A 
ATOM     23  C   UNL     1      -0.866  11.373  21.165  0.00  0.00    +0.000 A 
BRANCH  18  24
ATOM     24  O   UNL     1      -1.866  12.027  23.192  0.00  0.00    +0.000 OA
ATOM     25  H   UNL     1      -2.795  11.858  22.975  0.00  0.00    +0.000 HD
ENDBRANCH  18  24
ENDBRANCH   1  21
TORSDOF 3
ENDMDL
MODEL 4
REMARK VINA RESULT:      -8.5      0.324      1.457
REMARK  Name = 
REMARK  3 active torsions:
REMARK  status: ('A' for Active; 'I' for Inactive)
REMARK    1  A    between atoms: O_1  and  C_2
REMARK    2  A    between atoms: C_5  and  C_6
REMARK    3  A    between atoms: C_10  and  C_11
REMARK                            x       y       z     vdW  Elec       q    Type
REMARK                         _______ _______ _______ _____ _____    ______ ____
ROOT
ATOM      1  C   UNL     1       0.942   8.974  20.306  0.00  0.00    +0.000 A 
ATOM      2  C   UNL     1       1.401   9.193  19.001  0.00  0.00    +0.000 A 
ATOM      3  C   UNL     1       2.209   8.250  18.367  0.00  0.00    +0.000 A 
ATOM      4  C   UNL     1       2.539   7.096  19.089  0.00  0.00    +0.000 A 
ATOM      5  C   UNL     1       3.312   5.911  18.887  0.00  0.00    +0.000 A 
ATOM      6  N   UNL     1       3.221   5.089  19.951  0.00  0.00    +0.000 NA
ATOM      7  N   UNL     1       2.444   5.766  20.823  0.00  0.00    +0.000 N 
ATOM      8  C   UNL     1       2.009   6.971  20.360  0.00  0.00    +0.000 A 
ATOM      9  N   UNL     1       1.221   7.846  21.015  0.00  0.00    +0.000 NA
ATOM     10  H   UNL     1       2.236   5.355  21.724  0.00  0.00    +0.000 HD
ENDROOT
BRANCH   5  11
ATOM     11  C   UNL     1       4.105   5.557  17.708  0.00  0.00    +0.000 A 
ATOM     12  C   UNL     1       4.611   6.556  16.860  0.00  0.00    +0.000 A 
ATOM     13  C   UNL     1       5.313   6.222  15.699  0.00  0.00    +0.000 A 
ATOM     14  C   UNL     1       5.538   4.884  15.390  0.00  0.00    +0.000 A 
ATOM     15 CL   UNL     1       6.399   4.476  13.959  0.00  0.00    +0.000 Cl
ATOM     16  C   UNL     1       5.073   3.880  16.235  0.00  0.00    +0.000 A 
ATOM     17  C   UNL     1       4.359   4.215  17.392  0.00  0.00    +0.000 A 
ENDBRANCH   5  11
BRANCH   1  21
ATOM     18  C   UNL     1      -1.480  11.904  22.314  0.00  0.00    +0.000 A 
ATOM     19  C   UNL     1      -1.188  12.058  20.966  0.00  0.00    +0.000 A 
ATOM     20  C   UNL     1      -0.402  11.099  20.316  0.00  0.00    +0.000 A 
ATOM     21  C   UNL     1       0.101   9.977  20.999  0.00  0.00    +0.000 A 
ATOM     22  C   UNL     1      -0.227   9.849  22.364  0.00  0.00    +0.000 A 
ATOM     23  C   UNL     1      -1.004  10.808  23.019  0.00  0.00    +0.000 A 
BRANCH  18  24
ATOM     24  O   UNL     1      -2.239  12.812  22.992  0.00  0.00    +0.000 OA
ATOM     25  H   UNL     1      -2.317  13.611  22.449  0.00  0.00    +0.000 HD
ENDBRANCH  18  24
ENDBRANCH   1  21
TORSDOF 3
ENDMDL
MODEL 5
REMARK VINA RESULT:      -8.3      1.118      1.800
REMARK  Name = 
REMARK  3 active torsions:
REMARK  status: ('A' for Active; 'I' for Inactive)
REMARK    1  A    between atoms: O_1  and  C_2
REMARK    2  A    between atoms: C_5  and  C_6
REMARK    3  A    between atoms: C_10  and  C_11
REMARK                            x       y       z     vdW  Elec       q    Type
REMARK                         _______ _______ _______ _____ _____    ______ ____
ROOT
ATOM      1  C   UNL     1       0.883   9.575  19.539  0.00  0.00    +0.000 A 
ATOM      2  C   UNL     1       1.335   9.562  18.214  0.00  0.00    +0.000 A 
ATOM      3  C   UNL     1       2.139   8.521  17.751  0.00  0.00    +0.000 A 
ATOM      4  C   UNL     1       2.471   7.511  18.662  0.00  0.00    +0.000 A 
ATOM      5  C   UNL     1       3.242   6.307  18.668  0.00  0.00    +0.000 A 
ATOM      6  N   UNL     1       3.156   5.684  19.859  0.00  0.00    +0.000 NA
ATOM      7  N   UNL     1       2.384   6.505  20.603  0.00  0.00    +0.000 N 
ATOM      8  C   UNL     1       1.948   7.611  19.938  0.00  0.00    +0.000 A 
ATOM      9  N   UNL     1       1.164   8.588  20.434  0.00  0.00    +0.000 NA
ATOM     10  H   UNL     1       2.181   6.258  21.563  0.00  0.00    +0.000 HD
ENDROOT
BRANCH   5  11
ATOM     11  C   UNL     1       4.029   5.751  17.565  0.00  0.00    +0.000 A 
ATOM     12  C   UNL     1       4.744   6.594  16.699  0.00  0.00    +0.000 A 
ATOM     13  C   UNL     1       5.444   6.074  15.607  0.00  0.00    +0.000 A 
ATOM     14  C   UNL     1       5.455   4.700  15.387  0.00  0.00    +0.000 A 
ATOM     15 CL   UNL     1       6.314   4.063  14.040  0.00  0.00    +0.000 Cl
ATOM     16  C   UNL     1       4.779   3.844  16.253  0.00  0.00    +0.000 A 
ATOM     17  C   UNL     1       4.068   4.367  17.339  0.00  0.00    +0.000 A 
ENDBRANCH   5  11
BRANCH   1  21
ATOM     18  C   UNL     1      -1.537  12.814  21.002  0.00  0.00    +0.000 A 
ATOM     19  C   UNL     1      -1.803  12.263  19.756  0.00  0.00    +0.000 A 
ATOM     20  C   UNL     1      -1.015  11.206  19.286  0.00  0.00    +0.000 A 
ATOM     21  C   UNL     1       0.046  10.685  20.050  0.00  0.00    +0.000 A 
ATOM     22  C   UNL     1       0.277  11.263  21.315  0.00  0.00    +0.000 A 
ATOM     23  C   UNL     1      -0.502  12.324  21.785  0.00  0.00    +0.000 A 
BRANCH  18  24
ATOM     24  O   UNL     1      -2.275  13.846  21.502  0.00  0.00    +0.000 OA
ATOM     25  H   UNL     1      -2.540  14.417  20.766  0.00  0.00    +0.000 HD
ENDBRANCH  18  24
ENDBRANCH   1  21
TORSDOF 3
ENDMDL
MODEL 6
REMARK VINA RESULT:      -8.2      1.386      1.447
REMARK  Name = 
REMARK  3 active torsions:
REMARK  status: ('A' for Active; 'I' for Inactive)
REMARK    1  A    between atoms: O_1  and  C_2
REMARK    2  A    between atoms: C_5  and  C_6
REMARK    3  A    between atoms: C_10  and  C_11
REMARK                            x       y       z     vdW  Elec       q    Type
REMARK                         _______ _______ _______ _____ _____    ______ ____
ROOT
ATOM      1  C   UNL     1       0.912   9.765  19.518  0.00  0.00    +0.000 A 
ATOM      2  C   UNL     1       1.365   9.720  18.194  0.00  0.00    +0.000 A 
ATOM      3  C   UNL     1       2.121   8.640  17.741  0.00  0.00    +0.000 A 
ATOM      4  C   UNL     1       2.406   7.623  18.661  0.00  0.00    +0.000 A 
ATOM      5  C   UNL     1       3.122   6.386  18.678  0.00  0.00    +0.000 A 
ATOM      6  N   UNL     1       3.005   5.778  19.874  0.00  0.00    +0.000 NA
ATOM      7  N   UNL     1       2.270   6.639  20.610  0.00  0.00    +0.000 N 
ATOM      8  C   UNL     1       1.886   7.758  19.935  0.00  0.00    +0.000 A 
ATOM      9  N   UNL     1       1.146   8.774  20.421  0.00  0.00    +0.000 NA
ATOM     10  H   UNL     1       2.054   6.409  21.571  0.00  0.00    +0.000 HD
ENDROOT
BRANCH   5  11
ATOM     11  C   UNL     1       3.884   5.786  17.581  0.00  0.00    +0.000 A 
ATOM     12  C   UNL     1       3.829   4.403  17.343  0.00  0.00    +0.000 A 
ATOM     13  C   UNL     1       4.604   3.816  16.340  0.00  0.00    +0.000 A 
ATOM     14  C   UNL     1       5.423   4.614  15.546  0.00  0.00    +0.000 A 
ATOM     15 CL   UNL     1       6.378   3.889  14.314  0.00  0.00    +0.000 Cl
ATOM     16  C   UNL     1       5.467   5.992  15.744  0.00  0.00    +0.000 A 
ATOM     17  C   UNL     1       4.699   6.577  16.758  0.00  0.00    +0.000 A 
ENDBRANCH   5  11
BRANCH   1  21
ATOM     18  C   UNL     1      -1.370  13.095  20.997  0.00  0.00    +0.000 A 
ATOM     19  C   UNL     1      -0.060  12.914  21.422  0.00  0.00    +0.000 A 
ATOM     20  C   UNL     1       0.679  11.830  20.934  0.00  0.00    +0.000 A 
ATOM     21  C   UNL     1       0.125  10.916  20.019  0.00  0.00    +0.000 A 
ATOM     22  C   UNL     1      -1.202  11.141  19.603  0.00  0.00    +0.000 A 
ATOM     23  C   UNL     1      -1.947  12.217  20.093  0.00  0.00    +0.000 A 
BRANCH  18  24
ATOM     24  O   UNL     1      -2.131  14.134  21.446  0.00  0.00    +0.000 OA
ATOM     25  H   UNL     1      -3.036  13.815  21.581  0.00  0.00    +0.000 HD
ENDBRANCH  18  24
ENDBRANCH   1  21
TORSDOF 3
ENDMDL
MODEL 7
REMARK VINA RESULT:      -7.9      4.527      8.494
REMARK  Name = 
REMARK  3 active torsions:
REMARK  status: ('A' for Active; 'I' for Inactive)
REMARK    1  A    between atoms: O_1  and  C_2
REMARK    2  A    between atoms: C_5  and  C_6
REMARK    3  A    between atoms: C_10  and  C_11
REMARK                            x       y       z     vdW  Elec       q    Type
REMARK                         _______ _______ _______ _____ _____    ______ ____
ROOT
ATOM      1  C   UNL     1       3.011   7.038  18.177  0.00  0.00    +0.000 A 
ATOM      2  C   UNL     1       2.566   8.210  17.553  0.00  0.00    +0.000 A 
ATOM      3  C   UNL     1       1.772   9.122  18.247  0.00  0.00    +0.000 A 
ATOM      4  C   UNL     1       1.442   8.812  19.571  0.00  0.00    +0.000 A 
ATOM      5  C   UNL     1       0.679   9.393  20.633  0.00  0.00    +0.000 A 
ATOM      6  N   UNL     1       0.765   8.647  21.751  0.00  0.00    +0.000 NA
ATOM      7  N   UNL     1       1.527   7.594  21.387  0.00  0.00    +0.000 N 
ATOM      8  C   UNL     1       1.958   7.642  20.095  0.00  0.00    +0.000 A 
ATOM      9  N   UNL     1       2.733   6.730  19.474  0.00  0.00    +0.000 NA
ATOM     10  H   UNL     1       1.728   6.870  22.064  0.00  0.00    +0.000 HD
ENDROOT
BRANCH   5  11
ATOM     11  C   UNL     1      -0.098  10.633  20.592  0.00  0.00    +0.000 A 
ATOM     12  C   UNL     1       0.073  11.617  21.580  0.00  0.00    +0.000 A 
ATOM     13  C   UNL     1      -0.712  12.773  21.583  0.00  0.00    +0.000 A 
ATOM     14  C   UNL     1      -1.658  12.966  20.581  0.00  0.00    +0.000 A 
ATOM     15 CL   UNL     1      -2.625  14.389  20.588  0.00  0.00    +0.000 Cl
ATOM     16  C   UNL     1      -1.820  12.018  19.574  0.00  0.00    +0.000 A 
ATOM     17  C   UNL     1      -1.042  10.854  19.579  0.00  0.00    +0.000 A 
ENDBRANCH   5  11
BRANCH   1  21
ATOM     18  C   UNL     1       5.421   4.160  16.082  0.00  0.00    +0.000 A 
ATOM     19  C   UNL     1       4.440   3.726  16.963  0.00  0.00    +0.000 A 
ATOM     20  C   UNL     1       3.655   4.667  17.639  0.00  0.00    +0.000 A 
ATOM     21  C   UNL     1       3.838   6.049  17.447  0.00  0.00    +0.000 A 
ATOM     22  C   UNL     1       4.836   6.449  16.536  0.00  0.00    +0.000 A 
ATOM     23  C   UNL     1       5.626   5.513  15.864  0.00  0.00    +0.000 A 
BRANCH  18  24
ATOM     24  O   UNL     1       6.212   3.281  15.401  0.00  0.00    +0.000 OA
ATOM     25  H   UNL     1       6.653   3.760  14.683  0.00  0.00    +0.000 HD
ENDBRANCH  18  24
ENDBRANCH   1  21
TORSDOF 3
ENDMDL
MODEL 8
REMARK VINA RESULT:      -7.9      1.172      1.995
REMARK  Name = 
REMARK  3 active torsions:
REMARK  status: ('A' for Active; 'I' for Inactive)
REMARK    1  A    between atoms: O_1  and  C_2
REMARK    2  A    between atoms: C_5  and  C_6
REMARK    3  A    between atoms: C_10  and  C_11
REMARK                            x       y       z     vdW  Elec       q    Type
REMARK                         _______ _______ _______ _____ _____    ______ ____
ROOT
ATOM      1  C   UNL     1       2.027   7.893  19.619  0.00  0.00    +0.000 A 
ATOM      2  C   UNL     1       2.417   8.275  18.330  0.00  0.00    +0.000 A 
ATOM      3  C   UNL     1       3.255   7.457  17.573  0.00  0.00    +0.000 A 
ATOM      4  C   UNL     1       3.686   6.260  18.157  0.00  0.00    +0.000 A 
ATOM      5  C   UNL     1       4.522   5.155  17.805  0.00  0.00    +0.000 A 
ATOM      6  N   UNL     1       4.526   4.224  18.779  0.00  0.00    +0.000 NA
ATOM      7  N   UNL     1       3.745   4.755  19.744  0.00  0.00    +0.000 N 
ATOM      8  C   UNL     1       3.217   5.970  19.425  0.00  0.00    +0.000 A 
ATOM      9  N   UNL     1       2.404   6.719  20.196  0.00  0.00    +0.000 NA
ATOM     10  H   UNL     1       3.601   4.241  20.603  0.00  0.00    +0.000 HD
ENDROOT
BRANCH   5  11
ATOM     11  C   UNL     1       5.286   4.978  16.569  0.00  0.00    +0.000 A 
ATOM     12  C   UNL     1       6.592   5.483  16.456  0.00  0.00    +0.000 A 
ATOM     13  C   UNL     1       7.301   5.374  15.257  0.00  0.00    +0.000 A 
ATOM     14  C   UNL     1       6.719   4.733  14.168  0.00  0.00    +0.000 A 
ATOM     15 CL   UNL     1       7.593   4.603  12.692  0.00  0.00    +0.000 Cl
ATOM     16  C   UNL     1       5.438   4.197  14.269  0.00  0.00    +0.000 A 
ATOM     17  C   UNL     1       4.723   4.318  15.467  0.00  0.00    +0.000 A 
ENDBRANCH   5  11
BRANCH   1  21
ATOM     18  C   UNL     1      -0.490  10.436  22.003  0.00  0.00    +0.000 A 
ATOM     19  C   UNL     1      -0.451  10.601  20.625  0.00  0.00    +0.000 A 
ATOM     20  C   UNL     1       0.367   9.768  19.853  0.00  0.00    +0.000 A 
ATOM     21  C   UNL     1       1.155   8.761  20.443  0.00  0.00    +0.000 A 
ATOM     22  C   UNL     1       1.079   8.618  21.843  0.00  0.00    +0.000 A 
ATOM     23  C   UNL     1       0.269   9.452  22.618  0.00  0.00    +0.000 A 
BRANCH  18  24
ATOM     24  O   UNL     1      -1.270  11.224  22.797  0.00  0.00    +0.000 OA
ATOM     25  H   UNL     1      -1.173  10.925  23.714  0.00  0.00    +0.000 HD
ENDBRANCH  18  24
ENDBRANCH   1  21
TORSDOF 3
ENDMDL
MODEL 9
REMARK VINA RESULT:      -7.9      4.532      8.540
REMARK  Name = 
REMARK  3 active torsions:
REMARK  status: ('A' for Active; 'I' for Inactive)
REMARK    1  A    between atoms: O_1  and  C_2
REMARK    2  A    between atoms: C_5  and  C_6
REMARK    3  A    between atoms: C_10  and  C_11
REMARK                            x       y       z     vdW  Elec       q    Type
REMARK                         _______ _______ _______ _____ _____    ______ ____
ROOT
ATOM      1  C   UNL     1       3.027   7.052  18.177  0.00  0.00    +0.000 A 
ATOM      2  C   UNL     1       2.605   8.233  17.554  0.00  0.00    +0.000 A 
ATOM      3  C   UNL     1       1.808   9.148  18.239  0.00  0.00    +0.000 A 
ATOM      4  C   UNL     1       1.450   8.832  19.555  0.00  0.00    +0.000 A 
ATOM      5  C   UNL     1       0.673   9.412  20.606  0.00  0.00    +0.000 A 
ATOM      6  N   UNL     1       0.729   8.657  21.720  0.00  0.00    +0.000 NA
ATOM      7  N   UNL     1       1.488   7.599  21.362  0.00  0.00    +0.000 N 
ATOM      8  C   UNL     1       1.944   7.652  20.079  0.00  0.00    +0.000 A 
ATOM      9  N   UNL     1       2.720   6.737  19.466  0.00  0.00    +0.000 NA
ATOM     10  H   UNL     1       1.667   6.868  22.037  0.00  0.00    +0.000 HD
ENDROOT
BRANCH   5  11
ATOM     11  C   UNL     1      -0.090  10.661  20.561  0.00  0.00    +0.000 A 
ATOM     12  C   UNL     1       0.157  11.685  21.490  0.00  0.00    +0.000 A 
ATOM     13  C   UNL     1      -0.612  12.851  21.493  0.00  0.00    +0.000 A 
ATOM     14  C   UNL     1      -1.619  13.015  20.546  0.00  0.00    +0.000 A 
ATOM     15 CL   UNL     1      -2.565  14.451  20.553  0.00  0.00    +0.000 Cl
ATOM     16  C   UNL     1      -1.857  12.026  19.595  0.00  0.00    +0.000 A 
ATOM     17  C   UNL     1      -1.095  10.852  19.601  0.00  0.00    +0.000 A 
ENDBRANCH   5  11
BRANCH   1  21
ATOM     18  C   UNL     1       5.424   4.181  16.056  0.00  0.00    +0.000 A 
ATOM     19  C   UNL     1       5.640   5.539  15.861  0.00  0.00    +0.000 A 
ATOM     20  C   UNL     1       4.859   6.469  16.556  0.00  0.00    +0.000 A 
ATOM     21  C   UNL     1       3.856   6.060  17.455  0.00  0.00    +0.000 A 
ATOM     22  C   UNL     1       3.675   4.674  17.634  0.00  0.00    +0.000 A 
ATOM     23  C   UNL     1       4.447   3.741  16.936  0.00  0.00    +0.000 A 
BRANCH  18  24
ATOM     24  O   UNL     1       6.157   3.237  15.399  0.00  0.00    +0.000 OA
ATOM     25  H   UNL     1       6.992   3.640  15.117  0.00  0.00    +0.000 HD
ENDBRANCH  18  24
ENDBRANCH   1  21
TORSDOF 3
ENDMDL
