MODEL 1
REMARK VINA RESULT:      -8.6      0.000      0.000
REMARK  Name = 
REMARK  11 active torsions:
REMARK  status: ('A' for Active; 'I' for Inactive)
REMARK    1  A    between atoms: C_1  and  O_2
REMARK    2  A    between atoms: O_2  and  C_3
REMARK    3  A    between atoms: C_6  and  C_7
REMARK    4  A    between atoms: C_11  and  C_12
REMARK    5  A    between atoms: C_12  and  N_13
REMARK    6  A    between atoms: C_17  and  C_18
REMARK    7  A    between atoms: C_18  and  C_20
REMARK    8  A    between atoms: C_23  and  O_24
REMARK    9  A    between atoms: O_24  and  C_25
REMARK   10  A    between atoms: C_27  and  O_28
REMARK   11  A    between atoms: O_28  and  C_29
REMARK                            x       y       z     vdW  Elec       q    Type
REMARK                         _______ _______ _______ _____ _____    ______ ____
ROOT
ATOM      1  N   UNL     1       2.406   6.603  19.841  0.00  0.00    +0.000 NA
ATOM      2  C   UNL     1       1.362   5.920  20.594  0.00  0.00    +0.000 C 
ATOM      3  C   UNL     1       1.840   4.586  21.150  0.00  0.00    +0.000 C 
ATOM      4  C   UNL     1       2.407   3.668  20.060  0.00  0.00    +0.000 C 
ATOM      5  C   UNL     1       3.569   4.338  19.323  0.00  0.00    +0.000 C 
ATOM      6  C   UNL     1       3.103   5.760  18.846  0.00  0.00    +0.000 C 
ENDROOT
BRANCH   5   7
ATOM      7  C   UNL     1       4.184   3.595  18.091  0.00  0.00    +0.000 C 
ATOM      8  O   UNL     1       3.797   2.447  17.843  0.00  0.00    +0.000 OA
BRANCH   7   9
ATOM      9  C   UNL     1       5.150   4.206  17.098  0.00  0.00    +0.000 A 
ATOM     10  C   UNL     1       4.852   4.225  15.729  0.00  0.00    +0.000 A 
ATOM     11  C   UNL     1       5.794   4.685  14.783  0.00  0.00    +0.000 A 
ATOM     12  C   UNL     1       7.052   5.134  15.175  0.00  0.00    +0.000 A 
ATOM     13  C   UNL     1       7.394   5.065  16.518  0.00  0.00    +0.000 A 
ATOM     14  C   UNL     1       6.457   4.617  17.471  0.00  0.00    +0.000 A 
BRANCH  12  15
ATOM     15  O   UNL     1       7.893   5.545  14.170  0.00  0.00    +0.000 OA
ATOM     16  C   UNL     1       7.650   4.983  12.880  0.00  0.00    +0.000 C 
ENDBRANCH  12  15
BRANCH  14  17
ATOM     17  O   UNL     1       6.993   4.524  18.733  0.00  0.00    +0.000 OA
ATOM     18  C   UNL     1       7.611   5.719  19.193  0.00  0.00    +0.000 C 
ENDBRANCH  14  17
ENDBRANCH   7   9
ENDBRANCH   5   7
BRANCH   1  19
ATOM     19  C   UNL     1       1.926   7.909  19.323  0.00  0.00    +0.000 C 
BRANCH  19  24
ATOM     20  C   UNL     1       0.222   9.720  20.292  0.00  0.00    +0.000 A 
ATOM     21  N   UNL     1       0.111  10.190  21.589  0.00  0.00    +0.000 N 
ATOM     22  N   UNL     1       0.979   9.671  22.459  0.00  0.00    +0.000 NA
ATOM     23  C   UNL     1       1.672   8.811  21.720  0.00  0.00    +0.000 A 
ATOM     24  C   UNL     1       1.278   8.800  20.351  0.00  0.00    +0.000 A 
ATOM     25  H   UNL     1      -0.551  10.876  21.931  0.00  0.00    +0.000 HD
BRANCH  20  29
ATOM     26  C   UNL     1      -2.679  11.165  17.441  0.00  0.00    +0.000 A 
ATOM     27  C   UNL     1      -2.546  11.751  18.695  0.00  0.00    +0.000 A 
ATOM     28  C   UNL     1      -1.564  11.303  19.584  0.00  0.00    +0.000 A 
ATOM     29  C   UNL     1      -0.707  10.233  19.265  0.00  0.00    +0.000 A 
ATOM     30  C   UNL     1      -0.862   9.639  18.005  0.00  0.00    +0.000 A 
ATOM     31  C   UNL     1      -1.845  10.099  17.101  0.00  0.00    +0.000 A 
BRANCH  26  33
ATOM     32  C   UNL     1      -5.011  11.463  17.108  0.00  0.00    +0.000 C 
ATOM     33  O   UNL     1      -3.679  11.692  16.672  0.00  0.00    +0.000 OA
ENDBRANCH  26  33
ENDBRANCH  20  29
ENDBRANCH  19  24
ENDBRANCH   1  19
TORSDOF 8
ENDMDL
MODEL 2
REMARK VINA RESULT:      -8.5      2.918      9.151
REMARK  Name = 
REMARK  11 active torsions:
REMARK  status: ('A' for Active; 'I' for Inactive)
REMARK    1  A    between atoms: C_1  and  O_2
REMARK    2  A    between atoms: O_2  and  C_3
REMARK    3  A    between atoms: C_6  and  C_7
REMARK    4  A    between atoms: C_11  and  C_12
REMARK    5  A    between atoms: C_12  and  N_13
REMARK    6  A    between atoms: C_17  and  C_18
REMARK    7  A    between atoms: C_18  and  C_20
REMARK    8  A    between atoms: C_23  and  O_24
REMARK    9  A    between atoms: O_24  and  C_25
REMARK   10  A    between atoms: C_27  and  O_28
REMARK   11  A    between atoms: O_28  and  C_29
REMARK                            x       y       z     vdW  Elec       q    Type
REMARK                         _______ _______ _______ _____ _____    ______ ____
ROOT
ATOM      1  N   UNL     1       3.797   6.877  17.670  0.00  0.00    +0.000 NA
ATOM      2  C   UNL     1       3.932   6.358  19.025  0.00  0.00    +0.000 C 
ATOM      3  C   UNL     1       2.615   6.404  19.787  0.00  0.00    +0.000 C 
ATOM      4  C   UNL     1       1.999   7.808  19.807  0.00  0.00    +0.000 C 
ATOM      5  C   UNL     1       1.763   8.328  18.387  0.00  0.00    +0.000 C 
ATOM      6  C   UNL     1       3.097   8.176  17.573  0.00  0.00    +0.000 C 
ENDROOT
BRANCH   5   7
ATOM      7  C   UNL     1       1.259   9.799  18.217  0.00  0.00    +0.000 C 
ATOM      8  O   UNL     1       2.073  10.665  17.877  0.00  0.00    +0.000 OA
BRANCH   7   9
ATOM      9  C   UNL     1      -0.185  10.243  18.329  0.00  0.00    +0.000 A 
ATOM     10  C   UNL     1      -1.135   9.834  17.383  0.00  0.00    +0.000 A 
ATOM     11  C   UNL     1      -2.455  10.335  17.410  0.00  0.00    +0.000 A 
ATOM     12  C   UNL     1      -2.859  11.255  18.375  0.00  0.00    +0.000 A 
ATOM     13  C   UNL     1      -1.920  11.723  19.282  0.00  0.00    +0.000 A 
ATOM     14  C   UNL     1      -0.602  11.220  19.270  0.00  0.00    +0.000 A 
BRANCH  12  15
ATOM     15  O   UNL     1      -4.160  11.686  18.298  0.00  0.00    +0.000 OA
ATOM     16  C   UNL     1      -4.785  11.570  17.018  0.00  0.00    +0.000 C 
ENDBRANCH  12  15
BRANCH  14  17
ATOM     17  O   UNL     1       0.214  11.862  20.170  0.00  0.00    +0.000 OA
ATOM     18  C   UNL     1      -0.461  12.791  21.009  0.00  0.00    +0.000 C 
ENDBRANCH  14  17
ENDBRANCH   7   9
ENDBRANCH   5   7
BRANCH   1  19
ATOM     19  C   UNL     1       5.086   6.808  16.938  0.00  0.00    +0.000 C 
BRANCH  19  24
ATOM     20  C   UNL     1       5.008   4.153  16.673  0.00  0.00    +0.000 A 
ATOM     21  N   UNL     1       5.656   3.361  15.742  0.00  0.00    +0.000 N 
ATOM     22  N   UNL     1       6.426   4.019  14.873  0.00  0.00    +0.000 NA
ATOM     23  C   UNL     1       6.263   5.290  15.225  0.00  0.00    +0.000 A 
ATOM     24  C   UNL     1       5.413   5.457  16.355  0.00  0.00    +0.000 A 
ATOM     25  H   UNL     1       5.603   2.353  15.661  0.00  0.00    +0.000 HD
BRANCH  20  29
ATOM     26  C   UNL     1       2.304   2.483  19.594  0.00  0.00    +0.000 A 
ATOM     27  C   UNL     1       1.843   2.943  18.365  0.00  0.00    +0.000 A 
ATOM     28  C   UNL     1       2.742   3.431  17.411  0.00  0.00    +0.000 A 
ATOM     29  C   UNL     1       4.125   3.509  17.667  0.00  0.00    +0.000 A 
ATOM     30  C   UNL     1       4.574   3.060  18.916  0.00  0.00    +0.000 A 
ATOM     31  C   UNL     1       3.669   2.553  19.875  0.00  0.00    +0.000 A 
BRANCH  26  33
ATOM     32  C   UNL     1       1.339   2.541  21.763  0.00  0.00    +0.000 C 
ATOM     33  O   UNL     1       1.322   2.037  20.436  0.00  0.00    +0.000 OA
ENDBRANCH  26  33
ENDBRANCH  20  29
ENDBRANCH  19  24
ENDBRANCH   1  19
TORSDOF 8
ENDMDL
MODEL 3
REMARK VINA RESULT:      -8.4      2.495      9.373
REMARK  Name = 
REMARK  11 active torsions:
REMARK  status: ('A' for Active; 'I' for Inactive)
REMARK    1  A    between atoms: C_1  and  O_2
REMARK    2  A    between atoms: O_2  and  C_3
REMARK    3  A    between atoms: C_6  and  C_7
REMARK    4  A    between atoms: C_11  and  C_12
REMARK    5  A    between atoms: C_12  and  N_13
REMARK    6  A    between atoms: C_17  and  C_18
REMARK    7  A    between atoms: C_18  and  C_20
REMARK    8  A    between atoms: C_23  and  O_24
REMARK    9  A    between atoms: O_24  and  C_25
REMARK   10  A    between atoms: C_27  and  O_28
REMARK   11  A    between atoms: O_28  and  C_29
REMARK                            x       y       z     vdW  Elec       q    Type
REMARK                         _______ _______ _______ _____ _____    ______ ____
ROOT
ATOM      1  N   UNL     1       2.426   5.924  19.344  0.00  0.00    +0.000 NA
ATOM      2  C   UNL     1       2.684   6.232  17.943  0.00  0.00    +0.000 C 
ATOM      3  C   UNL     1       3.069   7.691  17.743  0.00  0.00    +0.000 C 
ATOM      4  C   UNL     1       2.028   8.656  18.324  0.00  0.00    +0.000 C 
ATOM      5  C   UNL     1       1.816   8.405  19.819  0.00  0.00    +0.000 C 
ATOM      6  C   UNL     1       1.527   6.876  20.031  0.00  0.00    +0.000 C 
ENDROOT
BRANCH   5   7
ATOM      7  C   UNL     1       0.693   9.214  20.548  0.00  0.00    +0.000 C 
ATOM      8  O   UNL     1       0.104   8.680  21.494  0.00  0.00    +0.000 OA
BRANCH   7   9
ATOM      9  C   UNL     1       0.333  10.656  20.261  0.00  0.00    +0.000 A 
ATOM     10  C   UNL     1       0.786  11.687  21.095  0.00  0.00    +0.000 A 
ATOM     11  C   UNL     1       0.361  13.020  20.906  0.00  0.00    +0.000 A 
ATOM     12  C   UNL     1      -0.525  13.358  19.886  0.00  0.00    +0.000 A 
ATOM     13  C   UNL     1      -1.038  12.347  19.088  0.00  0.00    +0.000 A 
ATOM     14  C   UNL     1      -0.611  11.014  19.262  0.00  0.00    +0.000 A 
BRANCH  12  15
ATOM     15  O   UNL     1      -0.882  14.681  19.804  0.00  0.00    +0.000 OA
ATOM     16  C   UNL     1      -0.190  15.459  18.826  0.00  0.00    +0.000 C 
ENDBRANCH  12  15
BRANCH  14  17
ATOM     17  O   UNL     1      -1.289  10.134  18.453  0.00  0.00    +0.000 OA
ATOM     18  C   UNL     1      -2.177  10.756  17.533  0.00  0.00    +0.000 C 
ENDBRANCH  14  17
ENDBRANCH   7   9
ENDBRANCH   5   7
BRANCH   1  19
ATOM     19  C   UNL     1       2.069   4.494  19.521  0.00  0.00    +0.000 C 
BRANCH  19  24
ATOM     20  C   UNL     1       4.508   3.436  19.277  0.00  0.00    +0.000 A 
ATOM     21  N   UNL     1       5.094   2.439  20.036  0.00  0.00    +0.000 N 
ATOM     22  N   UNL     1       4.329   1.941  21.009  0.00  0.00    +0.000 NA
ATOM     23  C   UNL     1       3.208   2.648  20.907  0.00  0.00    +0.000 A 
ATOM     24  C   UNL     1       3.230   3.585  19.834  0.00  0.00    +0.000 A 
ATOM     25  H   UNL     1       6.027   2.060  19.925  0.00  0.00    +0.000 HD
BRANCH  20  29
ATOM     26  C   UNL     1       6.854   5.014  16.015  0.00  0.00    +0.000 A 
ATOM     27  C   UNL     1       5.778   4.163  15.784  0.00  0.00    +0.000 A 
ATOM     28  C   UNL     1       4.998   3.705  16.850  0.00  0.00    +0.000 A 
ATOM     29  C   UNL     1       5.287   4.053  18.184  0.00  0.00    +0.000 A 
ATOM     30  C   UNL     1       6.383   4.897  18.405  0.00  0.00    +0.000 A 
ATOM     31  C   UNL     1       7.164   5.372  17.327  0.00  0.00    +0.000 A 
BRANCH  26  33
ATOM     32  C   UNL     1       7.106   4.809  13.662  0.00  0.00    +0.000 C 
ATOM     33  O   UNL     1       7.535   5.384  14.888  0.00  0.00    +0.000 OA
ENDBRANCH  26  33
ENDBRANCH  20  29
ENDBRANCH  19  24
ENDBRANCH   1  19
TORSDOF 8
ENDMDL
MODEL 4
REMARK VINA RESULT:      -8.2      1.885      9.327
REMARK  Name = 
REMARK  11 active torsions:
REMARK  status: ('A' for Active; 'I' for Inactive)
REMARK    1  A    between atoms: C_1  and  O_2
REMARK    2  A    between atoms: O_2  and  C_3
REMARK    3  A    between atoms: C_6  and  C_7
REMARK    4  A    between atoms: C_11  and  C_12
REMARK    5  A    between atoms: C_12  and  N_13
REMARK    6  A    between atoms: C_17  and  C_18
REMARK    7  A    between atoms: C_18  and  C_20
REMARK    8  A    between atoms: C_23  and  O_24
REMARK    9  A    between atoms: O_24  and  C_25
REMARK   10  A    between atoms: C_27  and  O_28
REMARK   11  A    between atoms: O_28  and  C_29
REMARK                            x       y       z     vdW  Elec       q    Type
REMARK                         _______ _______ _______ _____ _____    ______ ____
ROOT
ATOM      1  N   UNL     1       1.132   8.392  20.719  0.00  0.00    +0.000 NA
ATOM      2  C   UNL     1       1.553   8.809  22.051  0.00  0.00    +0.000 C 
ATOM      3  C   UNL     1       0.420   9.463  22.828  0.00  0.00    +0.000 C 
ATOM      4  C   UNL     1      -0.207  10.639  22.068  0.00  0.00    +0.000 C 
ATOM      5  C   UNL     1      -0.739  10.195  20.704  0.00  0.00    +0.000 C 
ATOM      6  C   UNL     1       0.402   9.423  19.951  0.00  0.00    +0.000 C 
ENDROOT
BRANCH   5   7
ATOM      7  C   UNL     1      -1.297  11.293  19.739  0.00  0.00    +0.000 C 
ATOM      8  O   UNL     1      -0.954  12.466  19.923  0.00  0.00    +0.000 OA
BRANCH   7   9
ATOM      9  C   UNL     1      -2.147  11.026  18.515  0.00  0.00    +0.000 A 
ATOM     10  C   UNL     1      -1.596  10.417  17.379  0.00  0.00    +0.000 A 
ATOM     11  C   UNL     1      -2.347  10.270  16.192  0.00  0.00    +0.000 A 
ATOM     12  C   UNL     1      -3.659  10.728  16.107  0.00  0.00    +0.000 A 
ATOM     13  C   UNL     1      -4.205  11.391  17.195  0.00  0.00    +0.000 A 
ATOM     14  C   UNL     1      -3.467  11.533  18.389  0.00  0.00    +0.000 A 
BRANCH  12  15
ATOM     15  O   UNL     1      -4.289  10.546  14.900  0.00  0.00    +0.000 OA
ATOM     16  C   UNL     1      -3.492   9.992  13.853  0.00  0.00    +0.000 C 
ENDBRANCH  12  15
BRANCH  14  17
ATOM     17  O   UNL     1      -4.123  12.295  19.325  0.00  0.00    +0.000 OA
ATOM     18  C   UNL     1      -5.539  12.291  19.192  0.00  0.00    +0.000 C 
ENDBRANCH  14  17
ENDBRANCH   7   9
ENDBRANCH   5   7
BRANCH   1  19
ATOM     19  C   UNL     1       2.245   7.740  19.985  0.00  0.00    +0.000 C 
BRANCH  19  24
ATOM     20  C   UNL     1       2.786   5.282  19.096  0.00  0.00    +0.000 A 
ATOM     21  N   UNL     1       2.290   4.073  19.553  0.00  0.00    +0.000 N 
ATOM     22  N   UNL     1       1.423   4.159  20.563  0.00  0.00    +0.000 NA
ATOM     23  C   UNL     1       1.360   5.465  20.800  0.00  0.00    +0.000 A 
ATOM     24  C   UNL     1       2.162   6.237  19.911  0.00  0.00    +0.000 A 
ATOM     25  H   UNL     1       2.518   3.152  19.199  0.00  0.00    +0.000 HD
BRANCH  20  29
ATOM     26  C   UNL     1       5.494   5.443  15.739  0.00  0.00    +0.000 A 
ATOM     27  C   UNL     1       5.226   6.573  16.505  0.00  0.00    +0.000 A 
ATOM     28  C   UNL     1       4.388   6.488  17.621  0.00  0.00    +0.000 A 
ATOM     29  C   UNL     1       3.761   5.281  17.987  0.00  0.00    +0.000 A 
ATOM     30  C   UNL     1       4.025   4.154  17.198  0.00  0.00    +0.000 A 
ATOM     31  C   UNL     1       4.883   4.236  16.078  0.00  0.00    +0.000 A 
BRANCH  26  33
ATOM     32  C   UNL     1       6.865   4.517  14.036  0.00  0.00    +0.000 C 
ATOM     33  O   UNL     1       6.325   5.664  14.675  0.00  0.00    +0.000 OA
ENDBRANCH  26  33
ENDBRANCH  20  29
ENDBRANCH  19  24
ENDBRANCH   1  19
TORSDOF 8
ENDMDL
MODEL 5
REMARK VINA RESULT:      -8.2      2.442      9.446
REMARK  Name = 
REMARK  11 active torsions:
REMARK  status: ('A' for Active; 'I' for Inactive)
REMARK    1  A    between atoms: C_1  and  O_2
REMARK    2  A    between atoms: O_2  and  C_3
REMARK    3  A    between atoms: C_6  and  C_7
REMARK    4  A    between atoms: C_11  and  C_12
REMARK    5  A    between atoms: C_12  and  N_13
REMARK    6  A    between atoms: C_17  and  C_18
REMARK    7  A    between atoms: C_18  and  C_20
REMARK    8  A    between atoms: C_23  and  O_24
REMARK    9  A    between atoms: O_24  and  C_25
REMARK   10  A    between atoms: C_27  and  O_28
REMARK   11  A    between atoms: O_28  and  C_29
REMARK                            x       y       z     vdW  Elec       q    Type
REMARK                         _______ _______ _______ _____ _____    ______ ____
ROOT
ATOM      1  N   UNL     1       2.406   5.944  19.282  0.00  0.00    +0.000 NA
ATOM      2  C   UNL     1       2.655   6.341  17.902  0.00  0.00    +0.000 C 
ATOM      3  C   UNL     1       3.032   7.811  17.792  0.00  0.00    +0.000 C 
ATOM      4  C   UNL     1       1.989   8.732  18.438  0.00  0.00    +0.000 C 
ATOM      5  C   UNL     1       1.786   8.386  19.915  0.00  0.00    +0.000 C 
ATOM      6  C   UNL     1       1.506   6.846  20.032  0.00  0.00    +0.000 C 
ENDROOT
BRANCH   5   7
ATOM      7  C   UNL     1       0.663   9.142  20.699  0.00  0.00    +0.000 C 
ATOM      8  O   UNL     1       0.148   8.584  21.674  0.00  0.00    +0.000 OA
BRANCH   7   9
ATOM      9  C   UNL     1       0.218  10.564  20.428  0.00  0.00    +0.000 A 
ATOM     10  C   UNL     1       0.736  11.631  21.176  0.00  0.00    +0.000 A 
ATOM     11  C   UNL     1       0.243  12.944  21.014  0.00  0.00    +0.000 A 
ATOM     12  C   UNL     1      -0.776  13.226  20.107  0.00  0.00    +0.000 A 
ATOM     13  C   UNL     1      -1.349  12.178  19.403  0.00  0.00    +0.000 A 
ATOM     14  C   UNL     1      -0.856  10.865  19.550  0.00  0.00    +0.000 A 
BRANCH  12  15
ATOM     15  O   UNL     1      -1.187  14.534  20.043  0.00  0.00    +0.000 OA
ATOM     16  C   UNL     1      -2.365  14.860  20.783  0.00  0.00    +0.000 C 
ENDBRANCH  12  15
BRANCH  14  17
ATOM     17  O   UNL     1      -1.600   9.943  18.853  0.00  0.00    +0.000 OA
ATOM     18  C   UNL     1      -1.629  10.161  17.448  0.00  0.00    +0.000 C 
ENDBRANCH  14  17
ENDBRANCH   7   9
ENDBRANCH   5   7
BRANCH   1  19
ATOM     19  C   UNL     1       2.057   4.503  19.370  0.00  0.00    +0.000 C 
BRANCH  19  24
ATOM     20  C   UNL     1       4.458   3.357  19.151  0.00  0.00    +0.000 A 
ATOM     21  N   UNL     1       5.043   2.419  19.983  0.00  0.00    +0.000 N 
ATOM     22  N   UNL     1       4.300   2.037  21.022  0.00  0.00    +0.000 NA
ATOM     23  C   UNL     1       3.195   2.764  20.889  0.00  0.00    +0.000 A 
ATOM     24  C   UNL     1       3.205   3.595  19.732  0.00  0.00    +0.000 A 
ATOM     25  H   UNL     1       5.962   2.004  19.878  0.00  0.00    +0.000 HD
BRANCH  20  29
ATOM     26  C   UNL     1       6.640   5.013  15.815  0.00  0.00    +0.000 A 
ATOM     27  C   UNL     1       7.085   5.179  17.122  0.00  0.00    +0.000 A 
ATOM     28  C   UNL     1       6.393   4.590  18.185  0.00  0.00    +0.000 A 
ATOM     29  C   UNL     1       5.215   3.846  17.980  0.00  0.00    +0.000 A 
ATOM     30  C   UNL     1       4.767   3.700  16.661  0.00  0.00    +0.000 A 
ATOM     31  C   UNL     1       5.473   4.284  15.585  0.00  0.00    +0.000 A 
BRANCH  26  33
ATOM     32  C   UNL     1       7.493   5.022  13.599  0.00  0.00    +0.000 C 
ATOM     33  O   UNL     1       7.404   5.644  14.872  0.00  0.00    +0.000 OA
ENDBRANCH  26  33
ENDBRANCH  20  29
ENDBRANCH  19  24
ENDBRANCH   1  19
TORSDOF 8
ENDMDL
MODEL 6
REMARK VINA RESULT:      -8.2      0.861      1.229
REMARK  Name = 
REMARK  11 active torsions:
REMARK  status: ('A' for Active; 'I' for Inactive)
REMARK    1  A    between atoms: C_1  and  O_2
REMARK    2  A    between atoms: O_2  and  C_3
REMARK    3  A    between atoms: C_6  and  C_7
REMARK    4  A    between atoms: C_11  and  C_12
REMARK    5  A    between atoms: C_12  and  N_13
REMARK    6  A    between atoms: C_17  and  C_18
REMARK    7  A    between atoms: C_18  and  C_20
REMARK    8  A    between atoms: C_23  and  O_24
REMARK    9  A    between atoms: O_24  and  C_25
REMARK   10  A    between atoms: C_27  and  O_28
REMARK   11  A    between atoms: O_28  and  C_29
REMARK                            x       y       z     vdW  Elec       q    Type
REMARK                         _______ _______ _______ _____ _____    ______ ____
ROOT
ATOM      1  N   UNL     1       2.064   6.338  20.246  0.00  0.00    +0.000 NA
ATOM      2  C   UNL     1       0.789   5.641  20.144  0.00  0.00    +0.000 C 
ATOM      3  C   UNL     1       0.882   4.206  20.644  0.00  0.00    +0.000 C 
ATOM      4  C   UNL     1       1.989   3.412  19.938  0.00  0.00    +0.000 C 
ATOM      5  C   UNL     1       3.351   4.085  20.118  0.00  0.00    +0.000 C 
ATOM      6  C   UNL     1       3.221   5.594  19.704  0.00  0.00    +0.000 C 
ENDROOT
BRANCH   5   7
ATOM      7  C   UNL     1       4.576   3.479  19.355  0.00  0.00    +0.000 C 
ATOM      8  O   UNL     1       4.981   2.359  19.686  0.00  0.00    +0.000 OA
BRANCH   7   9
ATOM      9  C   UNL     1       5.252   4.109  18.155  0.00  0.00    +0.000 A 
ATOM     10  C   UNL     1       4.822   3.815  16.854  0.00  0.00    +0.000 A 
ATOM     11  C   UNL     1       5.518   4.302  15.727  0.00  0.00    +0.000 A 
ATOM     12  C   UNL     1       6.658   5.091  15.867  0.00  0.00    +0.000 A 
ATOM     13  C   UNL     1       7.140   5.342  17.142  0.00  0.00    +0.000 A 
ATOM     14  C   UNL     1       6.445   4.869  18.275  0.00  0.00    +0.000 A 
BRANCH  12  15
ATOM     15  O   UNL     1       7.263   5.497  14.703  0.00  0.00    +0.000 OA
ATOM     16  C   UNL     1       7.028   4.681  13.555  0.00  0.00    +0.000 C 
ENDBRANCH  12  15
BRANCH  14  17
ATOM     17  O   UNL     1       7.113   5.128  19.447  0.00  0.00    +0.000 OA
ATOM     18  C   UNL     1       8.174   6.066  19.319  0.00  0.00    +0.000 C 
ENDBRANCH  14  17
ENDBRANCH   7   9
ENDBRANCH   5   7
BRANCH   1  19
ATOM     19  C   UNL     1       1.948   7.740  19.772  0.00  0.00    +0.000 C 
BRANCH  19  24
ATOM     20  C   UNL     1       0.261   9.631  20.607  0.00  0.00    +0.000 A 
ATOM     21  N   UNL     1       0.112  10.151  21.882  0.00  0.00    +0.000 N 
ATOM     22  N   UNL     1       0.929   9.639  22.803  0.00  0.00    +0.000 NA
ATOM     23  C   UNL     1       1.626   8.735  22.124  0.00  0.00    +0.000 A 
ATOM     24  C   UNL     1       1.286   8.685  20.741  0.00  0.00    +0.000 A 
ATOM     25  H   UNL     1      -0.544  10.866  22.172  0.00  0.00    +0.000 HD
BRANCH  20  29
ATOM     26  C   UNL     1      -2.090  11.120  17.307  0.00  0.00    +0.000 A 
ATOM     27  C   UNL     1      -1.339   9.954  17.190  0.00  0.00    +0.000 A 
ATOM     28  C   UNL     1      -0.627   9.460  18.288  0.00  0.00    +0.000 A 
ATOM     29  C   UNL     1      -0.612  10.131  19.525  0.00  0.00    +0.000 A 
ATOM     30  C   UNL     1      -1.358  11.313  19.625  0.00  0.00    +0.000 A 
ATOM     31  C   UNL     1      -2.089  11.807  18.521  0.00  0.00    +0.000 A 
BRANCH  26  33
ATOM     32  C   UNL     1      -3.951  10.830  15.861  0.00  0.00    +0.000 C 
ATOM     33  O   UNL     1      -2.733  11.496  16.160  0.00  0.00    +0.000 OA
ENDBRANCH  26  33
ENDBRANCH  20  29
ENDBRANCH  19  24
ENDBRANCH   1  19
TORSDOF 8
ENDMDL
MODEL 7
REMARK VINA RESULT:      -8.1      2.275      9.082
REMARK  Name = 
REMARK  11 active torsions:
REMARK  status: ('A' for Active; 'I' for Inactive)
REMARK    1  A    between atoms: C_1  and  O_2
REMARK    2  A    between atoms: O_2  and  C_3
REMARK    3  A    between atoms: C_6  and  C_7
REMARK    4  A    between atoms: C_11  and  C_12
REMARK    5  A    between atoms: C_12  and  N_13
REMARK    6  A    between atoms: C_17  and  C_18
REMARK    7  A    between atoms: C_18  and  C_20
REMARK    8  A    between atoms: C_23  and  O_24
REMARK    9  A    between atoms: O_24  and  C_25
REMARK   10  A    between atoms: C_27  and  O_28
REMARK   11  A    between atoms: O_28  and  C_29
REMARK                            x       y       z     vdW  Elec       q    Type
REMARK                         _______ _______ _______ _____ _____    ______ ____
ROOT
ATOM      1  N   UNL     1       2.371   6.165  19.428  0.00  0.00    +0.000 NA
ATOM      2  C   UNL     1       2.694   6.293  18.013  0.00  0.00    +0.000 C 
ATOM      3  C   UNL     1       3.192   7.689  17.667  0.00  0.00    +0.000 C 
ATOM      4  C   UNL     1       2.207   8.784  18.096  0.00  0.00    +0.000 C 
ATOM      5  C   UNL     1       1.932   8.720  19.600  0.00  0.00    +0.000 C 
ATOM      6  C   UNL     1       1.525   7.250  19.970  0.00  0.00    +0.000 C 
ENDROOT
BRANCH   5   7
ATOM      7  C   UNL     1       0.850   9.684  20.190  0.00  0.00    +0.000 C 
ATOM      8  O   UNL     1       0.983  10.076  21.355  0.00  0.00    +0.000 OA
BRANCH   7   9
ATOM      9  C   UNL     1      -0.309  10.272  19.413  0.00  0.00    +0.000 A 
ATOM     10  C   UNL     1      -1.248   9.441  18.787  0.00  0.00    +0.000 A 
ATOM     11  C   UNL     1      -2.263   9.975  17.964  0.00  0.00    +0.000 A 
ATOM     12  C   UNL     1      -2.366  11.346  17.741  0.00  0.00    +0.000 A 
ATOM     13  C   UNL     1      -1.410  12.184  18.297  0.00  0.00    +0.000 A 
ATOM     14  C   UNL     1      -0.399  11.661  19.130  0.00  0.00    +0.000 A 
BRANCH  12  15
ATOM     15  O   UNL     1      -3.381  11.753  16.912  0.00  0.00    +0.000 OA
ATOM     16  C   UNL     1      -3.540  11.009  15.703  0.00  0.00    +0.000 C 
ENDBRANCH  12  15
BRANCH  14  17
ATOM     17  O   UNL     1       0.512  12.615  19.513  0.00  0.00    +0.000 OA
ATOM     18  C   UNL     1       1.105  13.322  18.432  0.00  0.00    +0.000 C 
ENDBRANCH  14  17
ENDBRANCH   7   9
ENDBRANCH   5   7
BRANCH   1  19
ATOM     19  C   UNL     1       1.905   4.793  19.750  0.00  0.00    +0.000 C 
BRANCH  19  24
ATOM     20  C   UNL     1       4.269   3.583  19.489  0.00  0.00    +0.000 A 
ATOM     21  N   UNL     1       4.786   2.533  20.229  0.00  0.00    +0.000 N 
ATOM     22  N   UNL     1       3.987   2.066  21.189  0.00  0.00    +0.000 NA
ATOM     23  C   UNL     1       2.915   2.847  21.099  0.00  0.00    +0.000 A 
ATOM     24  C   UNL     1       3.003   3.803  20.047  0.00  0.00    +0.000 A 
ATOM     25  H   UNL     1       5.692   2.097  20.111  0.00  0.00    +0.000 HD
BRANCH  20  29
ATOM     26  C   UNL     1       6.746   5.074  16.283  0.00  0.00    +0.000 A 
ATOM     27  C   UNL     1       5.691   4.202  16.034  0.00  0.00    +0.000 A 
ATOM     28  C   UNL     1       4.868   3.772  17.080  0.00  0.00    +0.000 A 
ATOM     29  C   UNL     1       5.092   4.171  18.412  0.00  0.00    +0.000 A 
ATOM     30  C   UNL     1       6.168   5.035  18.652  0.00  0.00    +0.000 A 
ATOM     31  C   UNL     1       6.992   5.481  17.595  0.00  0.00    +0.000 A 
BRANCH  26  33
ATOM     32  C   UNL     1       7.088   4.813  13.948  0.00  0.00    +0.000 C 
ATOM     33  O   UNL     1       7.475   5.411  15.176  0.00  0.00    +0.000 OA
ENDBRANCH  26  33
ENDBRANCH  20  29
ENDBRANCH  19  24
ENDBRANCH   1  19
TORSDOF 8
ENDMDL
MODEL 8
REMARK VINA RESULT:      -8.0      1.790      9.983
REMARK  Name = 
REMARK  11 active torsions:
REMARK  status: ('A' for Active; 'I' for Inactive)
REMARK    1  A    between atoms: C_1  and  O_2
REMARK    2  A    between atoms: O_2  and  C_3
REMARK    3  A    between atoms: C_6  and  C_7
REMARK    4  A    between atoms: C_11  and  C_12
REMARK    5  A    between atoms: C_12  and  N_13
REMARK    6  A    between atoms: C_17  and  C_18
REMARK    7  A    between atoms: C_18  and  C_20
REMARK    8  A    between atoms: C_23  and  O_24
REMARK    9  A    between atoms: O_24  and  C_25
REMARK   10  A    between atoms: C_27  and  O_28
REMARK   11  A    between atoms: O_28  and  C_29
REMARK                            x       y       z     vdW  Elec       q    Type
REMARK                         _______ _______ _______ _____ _____    ______ ____
ROOT
ATOM      1  N   UNL     1       1.136   8.441  20.016  0.00  0.00    +0.000 NA
ATOM      2  C   UNL     1       1.484   8.770  21.392  0.00  0.00    +0.000 C 
ATOM      3  C   UNL     1       0.327   9.426  22.131  0.00  0.00    +0.000 C 
ATOM      4  C   UNL     1      -0.208  10.663  21.400  0.00  0.00    +0.000 C 
ATOM      5  C   UNL     1      -0.666  10.312  19.982  0.00  0.00    +0.000 C 
ATOM      6  C   UNL     1       0.494   9.538  19.261  0.00  0.00    +0.000 C 
ENDROOT
BRANCH   5   7
ATOM      7  C   UNL     1      -1.122  11.480  19.047  0.00  0.00    +0.000 C 
ATOM      8  O   UNL     1      -0.255  12.210  18.552  0.00  0.00    +0.000 OA
BRANCH   7   9
ATOM      9  C   UNL     1      -2.546  11.734  18.601  0.00  0.00    +0.000 A 
ATOM     10  C   UNL     1      -3.520  12.153  19.518  0.00  0.00    +0.000 A 
ATOM     11  C   UNL     1      -4.874  12.279  19.140  0.00  0.00    +0.000 A 
ATOM     12  C   UNL     1      -5.292  11.990  17.844  0.00  0.00    +0.000 A 
ATOM     13  C   UNL     1      -4.359  11.512  16.935  0.00  0.00    +0.000 A 
ATOM     14  C   UNL     1      -3.002  11.393  17.301  0.00  0.00    +0.000 A 
BRANCH  12  15
ATOM     15  O   UNL     1      -6.634  12.133  17.591  0.00  0.00    +0.000 OA
ATOM     16  C   UNL     1      -7.030  13.359  16.975  0.00  0.00    +0.000 C 
ENDBRANCH  12  15
BRANCH  14  17
ATOM     17  O   UNL     1      -2.240  10.817  16.313  0.00  0.00    +0.000 OA
ATOM     18  C   UNL     1      -2.915   9.811  15.569  0.00  0.00    +0.000 C 
ENDBRANCH  14  17
ENDBRANCH   7   9
ENDBRANCH   5   7
BRANCH   1  19
ATOM     19  C   UNL     1       2.271   7.786  19.317  0.00  0.00    +0.000 C 
BRANCH  19  24
ATOM     20  C   UNL     1       3.311   5.335  19.136  0.00  0.00    +0.000 A 
ATOM     21  N   UNL     1       2.983   4.204  19.862  0.00  0.00    +0.000 N 
ATOM     22  N   UNL     1       2.012   4.368  20.762  0.00  0.00    +0.000 NA
ATOM     23  C   UNL     1       1.703   5.655  20.645  0.00  0.00    +0.000 A 
ATOM     24  C   UNL     1       2.452   6.324  19.635  0.00  0.00    +0.000 A 
ATOM     25  H   UNL     1       3.400   3.285  19.776  0.00  0.00    +0.000 HD
BRANCH  20  29
ATOM     26  C   UNL     1       6.354   5.280  16.074  0.00  0.00    +0.000 A 
ATOM     27  C   UNL     1       6.225   6.358  16.944  0.00  0.00    +0.000 A 
ATOM     28  C   UNL     1       5.268   6.333  17.963  0.00  0.00    +0.000 A 
ATOM     29  C   UNL     1       4.385   5.248  18.125  0.00  0.00    +0.000 A 
ATOM     30  C   UNL     1       4.513   4.176  17.232  0.00  0.00    +0.000 A 
ATOM     31  C   UNL     1       5.489   4.193  16.211  0.00  0.00    +0.000 A 
BRANCH  26  33
ATOM     32  C   UNL     1       7.100   4.798  13.872  0.00  0.00    +0.000 C 
ATOM     33  O   UNL     1       7.324   5.433  15.122  0.00  0.00    +0.000 OA
ENDBRANCH  26  33
ENDBRANCH  20  29
ENDBRANCH  19  24
ENDBRANCH   1  19
TORSDOF 8
ENDMDL
MODEL 9
REMARK VINA RESULT:      -8.0      2.970      9.331
REMARK  Name = 
REMARK  11 active torsions:
REMARK  status: ('A' for Active; 'I' for Inactive)
REMARK    1  A    between atoms: C_1  and  O_2
REMARK    2  A    between atoms: O_2  and  C_3
REMARK    3  A    between atoms: C_6  and  C_7
REMARK    4  A    between atoms: C_11  and  C_12
REMARK    5  A    between atoms: C_12  and  N_13
REMARK    6  A    between atoms: C_17  and  C_18
REMARK    7  A    between atoms: C_18  and  C_20
REMARK    8  A    between atoms: C_23  and  O_24
REMARK    9  A    between atoms: O_24  and  C_25
REMARK   10  A    between atoms: C_27  and  O_28
REMARK   11  A    between atoms: O_28  and  C_29
REMARK                            x       y       z     vdW  Elec       q    Type
REMARK                         _______ _______ _______ _____ _____    ______ ____
ROOT
ATOM      1  N   UNL     1       2.431   5.911  19.397  0.00  0.00    +0.000 NA
ATOM      2  C   UNL     1       2.667   6.181  17.984  0.00  0.00    +0.000 C 
ATOM      3  C   UNL     1       3.057   7.632  17.739  0.00  0.00    +0.000 C 
ATOM      4  C   UNL     1       2.031   8.618  18.312  0.00  0.00    +0.000 C 
ATOM      5  C   UNL     1       1.844   8.407  19.817  0.00  0.00    +0.000 C 
ATOM      6  C   UNL     1       1.550   6.886  20.074  0.00  0.00    +0.000 C 
ENDROOT
BRANCH   5   7
ATOM      7  C   UNL     1       0.738   9.242  20.543  0.00  0.00    +0.000 C 
ATOM      8  O   UNL     1      -0.034   8.655  21.310  0.00  0.00    +0.000 OA
BRANCH   7   9
ATOM      9  C   UNL     1       0.596  10.748  20.472  0.00  0.00    +0.000 A 
ATOM     10  C   UNL     1       1.084  11.461  19.369  0.00  0.00    +0.000 A 
ATOM     11  C   UNL     1       1.063  12.873  19.345  0.00  0.00    +0.000 A 
ATOM     12  C   UNL     1       0.559  13.606  20.416  0.00  0.00    +0.000 A 
ATOM     13  C   UNL     1       0.129  12.925  21.545  0.00  0.00    +0.000 A 
ATOM     14  C   UNL     1       0.136  11.515  21.574  0.00  0.00    +0.000 A 
BRANCH  12  15
ATOM     15  O   UNL     1       0.601  14.973  20.291  0.00  0.00    +0.000 OA
ATOM     16  C   UNL     1      -0.399  15.558  19.456  0.00  0.00    +0.000 C 
ENDBRANCH  12  15
BRANCH  14  17
ATOM     17  O   UNL     1      -0.232  11.013  22.799  0.00  0.00    +0.000 OA
ATOM     18  C   UNL     1      -1.562  11.334  23.185  0.00  0.00    +0.000 C 
ENDBRANCH  14  17
ENDBRANCH   7   9
ENDBRANCH   5   7
BRANCH   1  19
ATOM     19  C   UNL     1       2.069   4.488  19.617  0.00  0.00    +0.000 C 
BRANCH  19  24
ATOM     20  C   UNL     1       4.501   3.431  19.307  0.00  0.00    +0.000 A 
ATOM     21  N   UNL     1       5.100   2.421  20.039  0.00  0.00    +0.000 N 
ATOM     22  N   UNL     1       4.355   1.910  21.020  0.00  0.00    +0.000 NA
ATOM     23  C   UNL     1       3.234   2.620  20.951  0.00  0.00    +0.000 A 
ATOM     24  C   UNL     1       3.235   3.573  19.893  0.00  0.00    +0.000 A 
ATOM     25  H   UNL     1       6.030   2.043  19.902  0.00  0.00    +0.000 HD
BRANCH  20  29
ATOM     26  C   UNL     1       6.780   5.056  16.021  0.00  0.00    +0.000 A 
ATOM     27  C   UNL     1       5.693   4.217  15.800  0.00  0.00    +0.000 A 
ATOM     28  C   UNL     1       4.935   3.744  16.875  0.00  0.00    +0.000 A 
ATOM     29  C   UNL     1       5.258   4.064  18.208  0.00  0.00    +0.000 A 
ATOM     30  C   UNL     1       6.365   4.896  18.419  0.00  0.00    +0.000 A 
ATOM     31  C   UNL     1       7.124   5.386  17.332  0.00  0.00    +0.000 A 
BRANCH  26  33
ATOM     32  C   UNL     1       7.092   4.768  13.684  0.00  0.00    +0.000 C 
ATOM     33  O   UNL     1       7.437   5.443  14.885  0.00  0.00    +0.000 OA
ENDBRANCH  26  33
ENDBRANCH  20  29
ENDBRANCH  19  24
ENDBRANCH   1  19
TORSDOF 8
ENDMDL
