MODEL 1
REMARK VINA RESULT:      -8.6      0.000      0.000
REMARK  Name = 
REMARK  7 active torsions:
REMARK  status: ('A' for Active; 'I' for Inactive)
REMARK    1  A    between atoms: C_2  and  O_3
REMARK    2  A    between atoms: C_2  and  C_4
REMARK    3  A    between atoms: C_8  and  N_9
REMARK    4  A    between atoms: C_12  and  O_13
REMARK    5  A    between atoms: C_12  and  C_14
REMARK    6  A    between atoms: C_22  and  C_23
REMARK    7  A    between atoms: C_23  and  O_25
REMARK                            x       y       z     vdW  Elec       q    Type
REMARK                         _______ _______ _______ _____ _____    ______ ____
ROOT
ATOM      1  C   UNL     1       1.913   3.619  19.236  0.00  0.00    +0.000 A 
ATOM      2  C   UNL     1       1.251   4.383  20.208  0.00  0.00    +0.000 A 
ATOM      3  C   UNL     1       1.803   5.574  20.655  0.00  0.00    +0.000 A 
ATOM      4  C   UNL     1       3.007   6.030  20.115  0.00  0.00    +0.000 A 
ATOM      5  C   UNL     1       3.705   5.330  19.107  0.00  0.00    +0.000 A 
ATOM      6  C   UNL     1       3.127   4.093  18.688  0.00  0.00    +0.000 A 
ENDROOT
BRANCH   5   7
ATOM      7  N   UNL     1       4.848   5.893  18.523  0.00  0.00    +0.000 N 
ATOM      8  C   UNL     1       6.131   5.164  18.493  0.00  0.00    +0.000 C 
ATOM      9  C   UNL     1       6.396   4.546  17.121  0.00  0.00    +0.000 C 
ATOM     10  C   UNL     1       6.332   5.596  15.992  0.00  0.00    +0.000 C 
ATOM     11  C   UNL     1       5.009   6.372  16.101  0.00  0.00    +0.000 C 
ATOM     12  C   UNL     1       4.758   6.941  17.488  0.00  0.00    +0.000 C 
BRANCH  10  13
ATOM     13  C   UNL     1       6.523   4.927  14.620  0.00  0.00    +0.000 A 
ATOM     14  C   UNL     1       7.572   5.286  13.748  0.00  0.00    +0.000 A 
ATOM     15  C   UNL     1       7.689   4.738  12.467  0.00  0.00    +0.000 A 
ATOM     16  C   UNL     1       6.759   3.795  12.037  0.00  0.00    +0.000 A 
ATOM     17  C   UNL     1       5.736   3.388  12.890  0.00  0.00    +0.000 A 
ATOM     18  C   UNL     1       5.618   3.946  14.164  0.00  0.00    +0.000 A 
ENDBRANCH  10  13
BRANCH  10  19
ATOM     19  O   UNL     1       7.393   6.539  16.209  0.00  0.00    +0.000 OA
ATOM     20  H   UNL     1       7.468   7.110  15.426  0.00  0.00    +0.000 HD
ENDBRANCH  10  19
ENDBRANCH   5   7
BRANCH   1  22
ATOM     21  O   UNL     1      -0.016   2.520  18.443  0.00  0.00    +0.000 OA
ATOM     22  C   UNL     1       1.156   2.420  18.785  0.00  0.00    +0.000 C 
BRANCH  22  23
ATOM     23  O   UNL     1       1.751   1.225  18.937  0.00  0.00    +0.000 OA
ATOM     24  H   UNL     1       2.643   1.121  18.525  0.00  0.00    +0.000 HD
ENDBRANCH  22  23
ENDBRANCH   1  22
BRANCH   6  25
ATOM     25  C   UNL     1       3.753   3.279  17.628  0.00  0.00    +0.000 C 
ATOM     26  O   UNL     1       3.579   3.538  16.447  0.00  0.00    +0.000 OA
BRANCH  25  27
ATOM     27  O   UNL     1       4.510   2.266  18.078  0.00  0.00    +0.000 OA
ATOM     28  H   UNL     1       4.894   1.736  17.345  0.00  0.00    +0.000 HD
ENDBRANCH  25  27
ENDBRANCH   6  25
TORSDOF 7
ENDMDL
MODEL 2
REMARK VINA RESULT:      -8.2      4.282      6.883
REMARK  Name = 
REMARK  7 active torsions:
REMARK  status: ('A' for Active; 'I' for Inactive)
REMARK    1  A    between atoms: C_2  and  O_3
REMARK    2  A    between atoms: C_2  and  C_4
REMARK    3  A    between atoms: C_8  and  N_9
REMARK    4  A    between atoms: C_12  and  O_13
REMARK    5  A    between atoms: C_12  and  C_14
REMARK    6  A    between atoms: C_22  and  C_23
REMARK    7  A    between atoms: C_23  and  O_25
REMARK                            x       y       z     vdW  Elec       q    Type
REMARK                         _______ _______ _______ _____ _____    ______ ____
ROOT
ATOM      1  C   UNL     1       3.037   3.656  19.479  0.00  0.00    +0.000 A 
ATOM      2  C   UNL     1       1.813   3.194  19.986  0.00  0.00    +0.000 A 
ATOM      3  C   UNL     1       0.854   4.096  20.422  0.00  0.00    +0.000 A 
ATOM      4  C   UNL     1       1.094   5.467  20.330  0.00  0.00    +0.000 A 
ATOM      5  C   UNL     1       2.287   6.000  19.795  0.00  0.00    +0.000 A 
ATOM      6  C   UNL     1       3.267   5.047  19.380  0.00  0.00    +0.000 A 
ENDROOT
BRANCH   5   7
ATOM      7  N   UNL     1       2.425   7.384  19.623  0.00  0.00    +0.000 N 
ATOM      8  C   UNL     1       2.497   7.985  18.277  0.00  0.00    +0.000 C 
ATOM      9  C   UNL     1       1.164   8.613  17.868  0.00  0.00    +0.000 C 
ATOM     10  C   UNL     1       0.667   9.641  18.906  0.00  0.00    +0.000 C 
ATOM     11  C   UNL     1       0.669   8.991  20.300  0.00  0.00    +0.000 C 
ATOM     12  C   UNL     1       1.996   8.343  20.659  0.00  0.00    +0.000 C 
BRANCH  10  13
ATOM     13  C   UNL     1      -0.712  10.192  18.504  0.00  0.00    +0.000 A 
ATOM     14  C   UNL     1      -1.378   9.767  17.335  0.00  0.00    +0.000 A 
ATOM     15  C   UNL     1      -2.590  10.335  16.928  0.00  0.00    +0.000 A 
ATOM     16  C   UNL     1      -3.173  11.335  17.702  0.00  0.00    +0.000 A 
ATOM     17  C   UNL     1      -2.560  11.747  18.883  0.00  0.00    +0.000 A 
ATOM     18  C   UNL     1      -1.346  11.183  19.280  0.00  0.00    +0.000 A 
ENDBRANCH  10  13
BRANCH  10  19
ATOM     19  O   UNL     1       1.614  10.720  18.943  0.00  0.00    +0.000 OA
ATOM     20  H   UNL     1       1.707  11.085  18.048  0.00  0.00    +0.000 HD
ENDBRANCH  10  19
ENDBRANCH   5   7
BRANCH   1  22
ATOM     21  O   UNL     1       3.539   1.836  18.067  0.00  0.00    +0.000 OA
ATOM     22  C   UNL     1       3.925   2.580  18.959  0.00  0.00    +0.000 C 
BRANCH  22  23
ATOM     23  O   UNL     1       5.072   2.358  19.624  0.00  0.00    +0.000 OA
ATOM     24  H   UNL     1       5.867   2.851  19.307  0.00  0.00    +0.000 HD
ENDBRANCH  22  23
ENDBRANCH   1  22
BRANCH   6  25
ATOM     25  C   UNL     1       4.548   5.480  18.788  0.00  0.00    +0.000 C 
ATOM     26  O   UNL     1       4.628   5.776  17.605  0.00  0.00    +0.000 OA
BRANCH  25  27
ATOM     27  O   UNL     1       5.576   5.518  19.650  0.00  0.00    +0.000 OA
ATOM     28  H   UNL     1       6.445   5.505  19.191  0.00  0.00    +0.000 HD
ENDBRANCH  25  27
ENDBRANCH   6  25
TORSDOF 7
ENDMDL
MODEL 3
REMARK VINA RESULT:      -8.0      2.720      4.262
REMARK  Name = 
REMARK  7 active torsions:
REMARK  status: ('A' for Active; 'I' for Inactive)
REMARK    1  A    between atoms: C_2  and  O_3
REMARK    2  A    between atoms: C_2  and  C_4
REMARK    3  A    between atoms: C_8  and  N_9
REMARK    4  A    between atoms: C_12  and  O_13
REMARK    5  A    between atoms: C_12  and  C_14
REMARK    6  A    between atoms: C_22  and  C_23
REMARK    7  A    between atoms: C_23  and  O_25
REMARK                            x       y       z     vdW  Elec       q    Type
REMARK                         _______ _______ _______ _____ _____    ______ ____
ROOT
ATOM      1  C   UNL     1       2.295   3.883  20.137  0.00  0.00    +0.000 A 
ATOM      2  C   UNL     1       1.627   5.057  20.513  0.00  0.00    +0.000 A 
ATOM      3  C   UNL     1       2.122   6.294  20.130  0.00  0.00    +0.000 A 
ATOM      4  C   UNL     1       3.271   6.372  19.343  0.00  0.00    +0.000 A 
ATOM      5  C   UNL     1       3.969   5.228  18.896  0.00  0.00    +0.000 A 
ATOM      6  C   UNL     1       3.452   3.970  19.330  0.00  0.00    +0.000 A 
ENDROOT
BRANCH   5   7
ATOM      7  N   UNL     1       5.050   5.364  18.014  0.00  0.00    +0.000 N 
ATOM      8  C   UNL     1       4.993   6.296  16.871  0.00  0.00    +0.000 C 
ATOM      9  C   UNL     1       5.764   7.585  17.156  0.00  0.00    +0.000 C 
ATOM     10  C   UNL     1       7.224   7.306  17.569  0.00  0.00    +0.000 C 
ATOM     11  C   UNL     1       7.237   6.284  18.717  0.00  0.00    +0.000 C 
ATOM     12  C   UNL     1       6.430   5.031  18.417  0.00  0.00    +0.000 C 
BRANCH  10  13
ATOM     13  C   UNL     1       7.945   8.617  17.926  0.00  0.00    +0.000 A 
ATOM     14  C   UNL     1       8.898   8.692  18.963  0.00  0.00    +0.000 A 
ATOM     15  C   UNL     1       9.485   9.903  19.342  0.00  0.00    +0.000 A 
ATOM     16  C   UNL     1       9.140  11.072  18.668  0.00  0.00    +0.000 A 
ATOM     17  C   UNL     1       8.233  11.025  17.613  0.00  0.00    +0.000 A 
ATOM     18  C   UNL     1       7.643   9.814  17.246  0.00  0.00    +0.000 A 
ENDBRANCH  10  13
BRANCH  10  19
ATOM     19  O   UNL     1       7.887   6.692  16.452  0.00  0.00    +0.000 OA
ATOM     20  H   UNL     1       8.817   6.972  16.449  0.00  0.00    +0.000 HD
ENDBRANCH  10  19
ENDBRANCH   5   7
BRANCH   1  22
ATOM     21  O   UNL     1       1.625   2.248  21.698  0.00  0.00    +0.000 OA
ATOM     22  C   UNL     1       1.595   2.630  20.535  0.00  0.00    +0.000 C 
BRANCH  22  23
ATOM     23  O   UNL     1       1.096   1.866  19.548  0.00  0.00    +0.000 OA
ATOM     24  H   UNL     1       0.316   1.305  19.777  0.00  0.00    +0.000 HD
ENDBRANCH  22  23
ENDBRANCH   1  22
BRANCH   6  25
ATOM     25  C   UNL     1       4.084   2.703  18.915  0.00  0.00    +0.000 C 
ATOM     26  O   UNL     1       3.762   2.147  17.874  0.00  0.00    +0.000 OA
BRANCH  25  27
ATOM     27  O   UNL     1       5.017   2.241  19.762  0.00  0.00    +0.000 OA
ATOM     28  H   UNL     1       4.996   2.706  20.626  0.00  0.00    +0.000 HD
ENDBRANCH  25  27
ENDBRANCH   6  25
TORSDOF 7
ENDMDL
MODEL 4
REMARK VINA RESULT:      -8.0      5.812      7.972
REMARK  Name = 
REMARK  7 active torsions:
REMARK  status: ('A' for Active; 'I' for Inactive)
REMARK    1  A    between atoms: C_2  and  O_3
REMARK    2  A    between atoms: C_2  and  C_4
REMARK    3  A    between atoms: C_8  and  N_9
REMARK    4  A    between atoms: C_12  and  O_13
REMARK    5  A    between atoms: C_12  and  C_14
REMARK    6  A    between atoms: C_22  and  C_23
REMARK    7  A    between atoms: C_23  and  O_25
REMARK                            x       y       z     vdW  Elec       q    Type
REMARK                         _______ _______ _______ _____ _____    ______ ____
ROOT
ATOM      1  C   UNL     1      -1.433  11.693  19.665  0.00  0.00    +0.000 A 
ATOM      2  C   UNL     1      -2.196  11.269  18.567  0.00  0.00    +0.000 A 
ATOM      3  C   UNL     1      -1.730  10.255  17.744  0.00  0.00    +0.000 A 
ATOM      4  C   UNL     1      -0.513   9.634  18.024  0.00  0.00    +0.000 A 
ATOM      5  C   UNL     1       0.285   9.984  19.135  0.00  0.00    +0.000 A 
ATOM      6  C   UNL     1      -0.206  11.051  19.948  0.00  0.00    +0.000 A 
ENDROOT
BRANCH   5   7
ATOM      7  N   UNL     1       1.441   9.248  19.431  0.00  0.00    +0.000 N 
ATOM      8  C   UNL     1       1.585   8.530  20.712  0.00  0.00    +0.000 C 
ATOM      9  C   UNL     1       1.327   7.032  20.551  0.00  0.00    +0.000 C 
ATOM     10  C   UNL     1       2.223   6.405  19.463  0.00  0.00    +0.000 C 
ATOM     11  C   UNL     1       2.090   7.222  18.167  0.00  0.00    +0.000 C 
ATOM     12  C   UNL     1       2.315   8.711  18.369  0.00  0.00    +0.000 C 
BRANCH  10  13
ATOM     13  C   UNL     1       1.880   4.918  19.271  0.00  0.00    +0.000 A 
ATOM     14  C   UNL     1       1.346   4.130  20.312  0.00  0.00    +0.000 A 
ATOM     15  C   UNL     1       1.119   2.759  20.160  0.00  0.00    +0.000 A 
ATOM     16  C   UNL     1       1.407   2.147  18.942  0.00  0.00    +0.000 A 
ATOM     17  C   UNL     1       1.897   2.906  17.881  0.00  0.00    +0.000 A 
ATOM     18  C   UNL     1       2.131   4.273  18.043  0.00  0.00    +0.000 A 
ENDBRANCH  10  13
BRANCH  10  19
ATOM     19  O   UNL     1       3.587   6.523  19.896  0.00  0.00    +0.000 OA
ATOM     20  H   UNL     1       4.100   5.789  19.519  0.00  0.00    +0.000 HD
ENDBRANCH  10  19
ENDBRANCH   5   7
BRANCH   1  22
ATOM     21  O   UNL     1      -2.613  12.401  21.579  0.00  0.00    +0.000 OA
ATOM     22  C   UNL     1      -2.103  12.718  20.512  0.00  0.00    +0.000 C 
BRANCH  22  23
ATOM     23  O   UNL     1      -2.273  13.939  19.978  0.00  0.00    +0.000 OA
ATOM     24  H   UNL     1      -3.176  14.149  19.637  0.00  0.00    +0.000 HD
ENDBRANCH  22  23
ENDBRANCH   1  22
BRANCH   6  25
ATOM     25  C   UNL     1       0.529  11.496  21.147  0.00  0.00    +0.000 C 
ATOM     26  O   UNL     1       1.496  12.239  21.056  0.00  0.00    +0.000 OA
BRANCH  25  27
ATOM     27  O   UNL     1       0.045  11.022  22.306  0.00  0.00    +0.000 OA
ATOM     28  H   UNL     1      -0.014  10.042  22.310  0.00  0.00    +0.000 HD
ENDBRANCH  25  27
ENDBRANCH   6  25
TORSDOF 7
ENDMDL
MODEL 5
REMARK VINA RESULT:      -7.9      2.773      4.275
REMARK  Name = 
REMARK  7 active torsions:
REMARK  status: ('A' for Active; 'I' for Inactive)
REMARK    1  A    between atoms: C_2  and  O_3
REMARK    2  A    between atoms: C_2  and  C_4
REMARK    3  A    between atoms: C_8  and  N_9
REMARK    4  A    between atoms: C_12  and  O_13
REMARK    5  A    between atoms: C_12  and  C_14
REMARK    6  A    between atoms: C_22  and  C_23
REMARK    7  A    between atoms: C_23  and  O_25
REMARK                            x       y       z     vdW  Elec       q    Type
REMARK                         _______ _______ _______ _____ _____    ______ ____
ROOT
ATOM      1  C   UNL     1       2.327   3.889  20.201  0.00  0.00    +0.000 A 
ATOM      2  C   UNL     1       1.635   5.054  20.559  0.00  0.00    +0.000 A 
ATOM      3  C   UNL     1       2.108   6.296  20.164  0.00  0.00    +0.000 A 
ATOM      4  C   UNL     1       3.261   6.387  19.383  0.00  0.00    +0.000 A 
ATOM      5  C   UNL     1       3.983   5.252  18.954  0.00  0.00    +0.000 A 
ATOM      6  C   UNL     1       3.488   3.988  19.401  0.00  0.00    +0.000 A 
ENDROOT
BRANCH   5   7
ATOM      7  N   UNL     1       5.067   5.398  18.077  0.00  0.00    +0.000 N 
ATOM      8  C   UNL     1       4.999   6.312  16.921  0.00  0.00    +0.000 C 
ATOM      9  C   UNL     1       5.739   7.621  17.193  0.00  0.00    +0.000 C 
ATOM     10  C   UNL     1       7.203   7.379  17.619  0.00  0.00    +0.000 C 
ATOM     11  C   UNL     1       7.229   6.374  18.782  0.00  0.00    +0.000 C 
ATOM     12  C   UNL     1       6.451   5.100  18.495  0.00  0.00    +0.000 C 
BRANCH  10  13
ATOM     13  C   UNL     1       7.893   8.711  17.962  0.00  0.00    +0.000 A 
ATOM     14  C   UNL     1       7.606   9.906  17.270  0.00  0.00    +0.000 A 
ATOM     15  C   UNL     1       8.299  11.093  17.525  0.00  0.00    +0.000 A 
ATOM     16  C   UNL     1       9.290  11.111  18.504  0.00  0.00    +0.000 A 
ATOM     17  C   UNL     1       9.568   9.958  19.234  0.00  0.00    +0.000 A 
ATOM     18  C   UNL     1       8.879   8.773  18.967  0.00  0.00    +0.000 A 
ENDBRANCH  10  13
BRANCH  10  19
ATOM     19  O   UNL     1       7.886   6.764  16.516  0.00  0.00    +0.000 OA
ATOM     20  H   UNL     1       8.477   7.419  16.110  0.00  0.00    +0.000 HD
ENDBRANCH  10  19
ENDBRANCH   5   7
BRANCH   1  22
ATOM     21  O   UNL     1       0.901   2.048  19.834  0.00  0.00    +0.000 OA
ATOM     22  C   UNL     1       1.649   2.628  20.610  0.00  0.00    +0.000 C 
BRANCH  22  23
ATOM     23  O   UNL     1       1.756   2.265  21.900  0.00  0.00    +0.000 OA
ATOM     24  H   UNL     1       2.144   1.374  22.075  0.00  0.00    +0.000 HD
ENDBRANCH  22  23
ENDBRANCH   1  22
BRANCH   6  25
ATOM     25  C   UNL     1       4.147   2.729  19.005  0.00  0.00    +0.000 C 
ATOM     26  O   UNL     1       3.851   2.161  17.963  0.00  0.00    +0.000 OA
BRANCH  25  27
ATOM     27  O   UNL     1       5.073   2.288  19.870  0.00  0.00    +0.000 OA
ATOM     28  H   UNL     1       5.744   1.716  19.436  0.00  0.00    +0.000 HD
ENDBRANCH  25  27
ENDBRANCH   6  25
TORSDOF 7
ENDMDL
MODEL 6
REMARK VINA RESULT:      -7.9      5.849      7.948
REMARK  Name = 
REMARK  7 active torsions:
REMARK  status: ('A' for Active; 'I' for Inactive)
REMARK    1  A    between atoms: C_2  and  O_3
REMARK    2  A    between atoms: C_2  and  C_4
REMARK    3  A    between atoms: C_8  and  N_9
REMARK    4  A    between atoms: C_12  and  O_13
REMARK    5  A    between atoms: C_12  and  C_14
REMARK    6  A    between atoms: C_22  and  C_23
REMARK    7  A    between atoms: C_23  and  O_25
REMARK                            x       y       z     vdW  Elec       q    Type
REMARK                         _______ _______ _______ _____ _____    ______ ____
ROOT
ATOM      1  C   UNL     1      -1.299  11.808  19.348  0.00  0.00    +0.000 A 
ATOM      2  C   UNL     1      -2.111  11.281  18.332  0.00  0.00    +0.000 A 
ATOM      3  C   UNL     1      -1.702  10.163  17.622  0.00  0.00    +0.000 A 
ATOM      4  C   UNL     1      -0.494   9.540  17.937  0.00  0.00    +0.000 A 
ATOM      5  C   UNL     1       0.352   9.994  18.973  0.00  0.00    +0.000 A 
ATOM      6  C   UNL     1      -0.082  11.165  19.667  0.00  0.00    +0.000 A 
ENDROOT
BRANCH   5   7
ATOM      7  N   UNL     1       1.496   9.262  19.318  0.00  0.00    +0.000 N 
ATOM      8  C   UNL     1       1.593   8.557  20.610  0.00  0.00    +0.000 C 
ATOM      9  C   UNL     1       1.341   7.057  20.454  0.00  0.00    +0.000 C 
ATOM     10  C   UNL     1       2.278   6.420  19.406  0.00  0.00    +0.000 C 
ATOM     11  C   UNL     1       2.192   7.225  18.099  0.00  0.00    +0.000 C 
ATOM     12  C   UNL     1       2.409   8.716  18.294  0.00  0.00    +0.000 C 
BRANCH  10  13
ATOM     13  C   UNL     1       1.943   4.931  19.216  0.00  0.00    +0.000 A 
ATOM     14  C   UNL     1       2.308   4.221  18.053  0.00  0.00    +0.000 A 
ATOM     15  C   UNL     1       1.925   2.892  17.847  0.00  0.00    +0.000 A 
ATOM     16  C   UNL     1       1.179   2.235  18.822  0.00  0.00    +0.000 A 
ATOM     17  C   UNL     1       0.838   2.895  20.000  0.00  0.00    +0.000 A 
ATOM     18  C   UNL     1       1.215   4.225  20.196  0.00  0.00    +0.000 A 
ENDBRANCH  10  13
BRANCH  10  19
ATOM     19  O   UNL     1       3.625   6.544  19.888  0.00  0.00    +0.000 OA
ATOM     20  H   UNL     1       3.972   7.413  19.627  0.00  0.00    +0.000 HD
ENDBRANCH  10  19
ENDBRANCH   5   7
BRANCH   1  22
ATOM     21  O   UNL     1      -2.744  12.741  20.960  0.00  0.00    +0.000 OA
ATOM     22  C   UNL     1      -1.910  12.946  20.087  0.00  0.00    +0.000 C 
BRANCH  22  23
ATOM     23  O   UNL     1      -1.642  14.184  19.638  0.00  0.00    +0.000 OA
ATOM     24  H   UNL     1      -2.113  14.466  18.817  0.00  0.00    +0.000 HD
ENDBRANCH  22  23
ENDBRANCH   1  22
BRANCH   6  25
ATOM     25  C   UNL     1       0.708  11.725  20.781  0.00  0.00    +0.000 C 
ATOM     26  O   UNL     1       1.658  12.465  20.572  0.00  0.00    +0.000 OA
BRANCH  25  27
ATOM     27  O   UNL     1       0.289  11.356  22.002  0.00  0.00    +0.000 OA
ATOM     28  H   UNL     1       0.102  12.128  22.579  0.00  0.00    +0.000 HD
ENDBRANCH  25  27
ENDBRANCH   6  25
TORSDOF 7
ENDMDL
MODEL 7
REMARK VINA RESULT:      -7.9      5.847      7.997
REMARK  Name = 
REMARK  7 active torsions:
REMARK  status: ('A' for Active; 'I' for Inactive)
REMARK    1  A    between atoms: C_2  and  O_3
REMARK    2  A    between atoms: C_2  and  C_4
REMARK    3  A    between atoms: C_8  and  N_9
REMARK    4  A    between atoms: C_12  and  O_13
REMARK    5  A    between atoms: C_12  and  C_14
REMARK    6  A    between atoms: C_22  and  C_23
REMARK    7  A    between atoms: C_23  and  O_25
REMARK                            x       y       z     vdW  Elec       q    Type
REMARK                         _______ _______ _______ _____ _____    ______ ____
ROOT
ATOM      1  C   UNL     1      -0.848  12.058  18.857  0.00  0.00    +0.000 A 
ATOM      2  C   UNL     1      -1.818  11.429  18.063  0.00  0.00    +0.000 A 
ATOM      3  C   UNL     1      -1.605  10.146  17.585  0.00  0.00    +0.000 A 
ATOM      4  C   UNL     1      -0.434   9.464  17.918  0.00  0.00    +0.000 A 
ATOM      5  C   UNL     1       0.566  10.022  18.745  0.00  0.00    +0.000 A 
ATOM      6  C   UNL     1       0.331  11.356  19.198  0.00  0.00    +0.000 A 
ENDROOT
BRANCH   5   7
ATOM      7  N   UNL     1       1.666   9.248  19.138  0.00  0.00    +0.000 N 
ATOM      8  C   UNL     1       1.701   8.577  20.452  0.00  0.00    +0.000 C 
ATOM      9  C   UNL     1       1.382   7.087  20.333  0.00  0.00    +0.000 C 
ATOM     10  C   UNL     1       2.310   6.376  19.326  0.00  0.00    +0.000 C 
ATOM     11  C   UNL     1       2.292   7.144  17.994  0.00  0.00    +0.000 C 
ATOM     12  C   UNL     1       2.574   8.629  18.152  0.00  0.00    +0.000 C 
BRANCH  10  13
ATOM     13  C   UNL     1       1.910   4.899  19.171  0.00  0.00    +0.000 A 
ATOM     14  C   UNL     1       1.219   4.198  20.181  0.00  0.00    +0.000 A 
ATOM     15  C   UNL     1       0.935   2.834  20.073  0.00  0.00    +0.000 A 
ATOM     16  C   UNL     1       1.325   2.141  18.929  0.00  0.00    +0.000 A 
ATOM     17  C   UNL     1       1.973   2.814  17.896  0.00  0.00    +0.000 A 
ATOM     18  C   UNL     1       2.261   4.174  18.014  0.00  0.00    +0.000 A 
ENDBRANCH  10  13
BRANCH  10  19
ATOM     19  O   UNL     1       3.651   6.451  19.836  0.00  0.00    +0.000 OA
ATOM     20  H   UNL     1       4.219   5.864  19.309  0.00  0.00    +0.000 HD
ENDBRANCH  10  19
ENDBRANCH   5   7
BRANCH   1  22
ATOM     21  O   UNL     1      -2.112  13.480  20.248  0.00  0.00    +0.000 OA
ATOM     22  C   UNL     1      -1.256  13.391  19.377  0.00  0.00    +0.000 C 
BRANCH  22  23
ATOM     23  O   UNL     1      -0.782  14.472  18.733  0.00  0.00    +0.000 OA
ATOM     24  H   UNL     1      -1.272  15.318  18.875  0.00  0.00    +0.000 HD
ENDBRANCH  22  23
ENDBRANCH   1  22
BRANCH   6  25
ATOM     25  C   UNL     1       1.294  12.041  20.081  0.00  0.00    +0.000 C 
ATOM     26  O   UNL     1       1.213  11.947  21.297  0.00  0.00    +0.000 OA
BRANCH  25  27
ATOM     27  O   UNL     1       2.237  12.747  19.438  0.00  0.00    +0.000 OA
ATOM     28  H   UNL     1       2.992  12.977  20.022  0.00  0.00    +0.000 HD
ENDBRANCH  25  27
ENDBRANCH   6  25
TORSDOF 7
ENDMDL
MODEL 8
REMARK VINA RESULT:      -7.8      0.946      1.563
REMARK  Name = 
REMARK  7 active torsions:
REMARK  status: ('A' for Active; 'I' for Inactive)
REMARK    1  A    between atoms: C_2  and  O_3
REMARK    2  A    between atoms: C_2  and  C_4
REMARK    3  A    between atoms: C_8  and  N_9
REMARK    4  A    between atoms: C_12  and  O_13
REMARK    5  A    between atoms: C_12  and  C_14
REMARK    6  A    between atoms: C_22  and  C_23
REMARK    7  A    between atoms: C_23  and  O_25
REMARK                            x       y       z     vdW  Elec       q    Type
REMARK                         _______ _______ _______ _____ _____    ______ ____
ROOT
ATOM      1  C   UNL     1       2.248   3.903  19.935  0.00  0.00    +0.000 A 
ATOM      2  C   UNL     1       1.357   4.959  20.175  0.00  0.00    +0.000 A 
ATOM      3  C   UNL     1       1.736   6.265  19.908  0.00  0.00    +0.000 A 
ATOM      4  C   UNL     1       2.996   6.530  19.372  0.00  0.00    +0.000 A 
ATOM      5  C   UNL     1       3.927   5.512  19.070  0.00  0.00    +0.000 A 
ATOM      6  C   UNL     1       3.519   4.179  19.382  0.00  0.00    +0.000 A 
ENDROOT
BRANCH   5   7
ATOM      7  N   UNL     1       5.132   5.828  18.427  0.00  0.00    +0.000 N 
ATOM      8  C   UNL     1       6.203   4.826  18.273  0.00  0.00    +0.000 C 
ATOM      9  C   UNL     1       6.230   4.243  16.860  0.00  0.00    +0.000 C 
ATOM     10  C   UNL     1       6.344   5.343  15.783  0.00  0.00    +0.000 C 
ATOM     11  C   UNL     1       5.250   6.396  16.022  0.00  0.00    +0.000 C 
ATOM     12  C   UNL     1       5.225   6.927  17.446  0.00  0.00    +0.000 C 
BRANCH  10  13
ATOM     13  C   UNL     1       6.287   4.728  14.374  0.00  0.00    +0.000 A 
ATOM     14  C   UNL     1       5.202   3.937  13.943  0.00  0.00    +0.000 A 
ATOM     15  C   UNL     1       5.195   3.309  12.694  0.00  0.00    +0.000 A 
ATOM     16  C   UNL     1       6.279   3.479  11.836  0.00  0.00    +0.000 A 
ATOM     17  C   UNL     1       7.347   4.287  12.216  0.00  0.00    +0.000 A 
ATOM     18  C   UNL     1       7.352   4.905  13.468  0.00  0.00    +0.000 A 
ENDBRANCH  10  13
BRANCH  10  19
ATOM     19  O   UNL     1       7.608   6.002  15.960  0.00  0.00    +0.000 OA
ATOM     20  H   UNL     1       7.684   6.713  15.303  0.00  0.00    +0.000 HD
ENDBRANCH  10  19
ENDBRANCH   5   7
BRANCH   1  22
ATOM     21  O   UNL     1       1.533   2.131  21.317  0.00  0.00    +0.000 OA
ATOM     22  C   UNL     1       1.671   2.552  20.175  0.00  0.00    +0.000 C 
BRANCH  22  23
ATOM     23  O   UNL     1       1.480   1.767  19.101  0.00  0.00    +0.000 OA
ATOM     24  H   UNL     1       0.807   1.050  19.193  0.00  0.00    +0.000 HD
ENDBRANCH  22  23
ENDBRANCH   1  22
BRANCH   6  25
ATOM     25  C   UNL     1       4.397   3.028  19.096  0.00  0.00    +0.000 C 
ATOM     26  O   UNL     1       5.240   2.660  19.902  0.00  0.00    +0.000 OA
BRANCH  25  27
ATOM     27  O   UNL     1       4.182   2.444  17.907  0.00  0.00    +0.000 OA
ATOM     28  H   UNL     1       5.017   2.284  17.415  0.00  0.00    +0.000 HD
ENDBRANCH  25  27
ENDBRANCH   6  25
TORSDOF 7
ENDMDL
MODEL 9
REMARK VINA RESULT:      -7.8      5.804      7.971
REMARK  Name = 
REMARK  7 active torsions:
REMARK  status: ('A' for Active; 'I' for Inactive)
REMARK    1  A    between atoms: C_2  and  O_3
REMARK    2  A    between atoms: C_2  and  C_4
REMARK    3  A    between atoms: C_8  and  N_9
REMARK    4  A    between atoms: C_12  and  O_13
REMARK    5  A    between atoms: C_12  and  C_14
REMARK    6  A    between atoms: C_22  and  C_23
REMARK    7  A    between atoms: C_23  and  O_25
REMARK                            x       y       z     vdW  Elec       q    Type
REMARK                         _______ _______ _______ _____ _____    ______ ____
ROOT
ATOM      1  C   UNL     1      -0.717  12.091  18.617  0.00  0.00    +0.000 A 
ATOM      2  C   UNL     1      -1.726  11.426  17.906  0.00  0.00    +0.000 A 
ATOM      3  C   UNL     1      -1.565  10.098  17.542  0.00  0.00    +0.000 A 
ATOM      4  C   UNL     1      -0.408   9.411  17.909  0.00  0.00    +0.000 A 
ATOM      5  C   UNL     1       0.630  10.007  18.658  0.00  0.00    +0.000 A 
ATOM      6  C   UNL     1       0.448  11.384  18.994  0.00  0.00    +0.000 A 
ENDROOT
BRANCH   5   7
ATOM      7  N   UNL     1       1.715   9.236  19.095  0.00  0.00    +0.000 N 
ATOM      8  C   UNL     1       1.708   8.584  20.419  0.00  0.00    +0.000 C 
ATOM      9  C   UNL     1       1.388   7.093  20.311  0.00  0.00    +0.000 C 
ATOM     10  C   UNL     1       2.344   6.365  19.343  0.00  0.00    +0.000 C 
ATOM     11  C   UNL     1       2.368   7.115  18.001  0.00  0.00    +0.000 C 
ATOM     12  C   UNL     1       2.650   8.600  18.146  0.00  0.00    +0.000 C 
BRANCH  10  13
ATOM     13  C   UNL     1       1.943   4.887  19.197  0.00  0.00    +0.000 A 
ATOM     14  C   UNL     1       2.318   4.114  18.078  0.00  0.00    +0.000 A 
ATOM     15  C   UNL     1       1.878   2.798  17.908  0.00  0.00    +0.000 A 
ATOM     16  C   UNL     1       1.061   2.218  18.876  0.00  0.00    +0.000 A 
ATOM     17  C   UNL     1       0.707   2.941  20.012  0.00  0.00    +0.000 A 
ATOM     18  C   UNL     1       1.142   4.258  20.172  0.00  0.00    +0.000 A 
ENDBRANCH  10  13
BRANCH  10  19
ATOM     19  O   UNL     1       3.669   6.443  19.892  0.00  0.00    +0.000 OA
ATOM     20  H   UNL     1       3.800   5.696  20.499  0.00  0.00    +0.000 HD
ENDBRANCH  10  19
ENDBRANCH   5   7
BRANCH   1  22
ATOM     21  O   UNL     1      -0.381  14.424  18.661  0.00  0.00    +0.000 OA
ATOM     22  C   UNL     1      -1.070  13.479  19.024  0.00  0.00    +0.000 C 
BRANCH  22  23
ATOM     23  O   UNL     1      -2.051  13.621  19.931  0.00  0.00    +0.000 OA
ATOM     24  H   UNL     1      -1.851  13.313  20.848  0.00  0.00    +0.000 HD
ENDBRANCH  22  23
ENDBRANCH   1  22
BRANCH   6  25
ATOM     25  C   UNL     1       1.454  12.113  19.790  0.00  0.00    +0.000 C 
ATOM     26  O   UNL     1       1.451  12.062  21.011  0.00  0.00    +0.000 OA
BRANCH  25  27
ATOM     27  O   UNL     1       2.342  12.809  19.063  0.00  0.00    +0.000 OA
ATOM     28  H   UNL     1       2.295  13.773  19.243  0.00  0.00    +0.000 HD
ENDBRANCH  25  27
ENDBRANCH   6  25
TORSDOF 7
ENDMDL
