MODEL 1
REMARK VINA RESULT:      -9.0      0.000      0.000
REMARK  Name = 
REMARK  2 active torsions:
REMARK  status: ('A' for Active; 'I' for Inactive)
REMARK    1  A    between atoms: C_2  and  C_16
REMARK    2  A    between atoms: N_3  and  C_4
REMARK                            x       y       z     vdW  Elec       q    Type
REMARK                         _______ _______ _______ _____ _____    ______ ____
ROOT
ATOM      1  O   UNL     1       1.148   8.775  17.392  0.00  0.00    +0.000 OA
ATOM      2  C   UNL     1       1.585   8.938  18.520  0.00  0.00    +0.000 C 
ATOM      3  N   UNL     1       2.441   8.074  19.192  0.00  0.00    +0.000 N 
ATOM      4  H   UNL     1       2.604   8.249  20.172  0.00  0.00    +0.000 HD
ENDROOT
BRANCH   3   5
ATOM      5  C   UNL     1       2.922   6.838  18.689  0.00  0.00    +0.000 A 
ATOM      6  C   UNL     1       3.862   6.791  17.636  0.00  0.00    +0.000 A 
ATOM      7  C   UNL     1       4.326   5.589  17.082  0.00  0.00    +0.000 A 
ATOM      8  C   UNL     1       3.803   4.426  17.617  0.00  0.00    +0.000 A 
ATOM      9  C   UNL     1       2.889   4.464  18.651  0.00  0.00    +0.000 A 
ATOM     10  C   UNL     1       2.470   3.192  18.992  0.00  0.00    +0.000 A 
ATOM     11  C   UNL     1       1.529   2.984  19.988  0.00  0.00    +0.000 A 
ATOM     12  C   UNL     1       1.036   4.132  20.626  0.00  0.00    +0.000 A 
ATOM     13  C   UNL     1       1.466   5.425  20.263  0.00  0.00    +0.000 A 
ATOM     14  C   UNL     1       2.422   5.618  19.233  0.00  0.00    +0.000 A 
ATOM     15  C   UNL     1       3.136   2.176  18.127  0.00  0.00    +0.000 C 
ATOM     16  C   UNL     1       4.073   3.020  17.208  0.00  0.00    +0.000 C 
ENDBRANCH   3   5
BRANCH   2  17
ATOM     17  C   UNL     1       1.153  10.137  19.299  0.00  0.00    +0.000 A 
ATOM     18  C   UNL     1       1.437  11.401  18.752  0.00  0.00    +0.000 A 
ATOM     19  C   UNL     1       1.118  12.554  19.447  0.00  0.00    +0.000 A 
ATOM     20  C   UNL     1       0.495  12.469  20.682  0.00  0.00    +0.000 A 
ATOM     21  C   UNL     1       0.165  11.221  21.244  0.00  0.00    +0.000 A 
ATOM     22  C   UNL     1      -0.465  11.172  22.499  0.00  0.00    +0.000 A 
ATOM     23  C   UNL     1      -0.784   9.955  23.096  0.00  0.00    +0.000 A 
ATOM     24  C   UNL     1      -0.463   8.770  22.452  0.00  0.00    +0.000 A 
ATOM     25  C   UNL     1       0.175   8.803  21.210  0.00  0.00    +0.000 A 
ATOM     26  C   UNL     1       0.493  10.023  20.561  0.00  0.00    +0.000 A 
ENDBRANCH   2  17
TORSDOF 2
ENDMDL
MODEL 2
REMARK VINA RESULT:      -8.9      1.223      2.266
REMARK  Name = 
REMARK  2 active torsions:
REMARK  status: ('A' for Active; 'I' for Inactive)
REMARK    1  A    between atoms: C_2  and  C_16
REMARK    2  A    between atoms: N_3  and  C_4
REMARK                            x       y       z     vdW  Elec       q    Type
REMARK                         _______ _______ _______ _____ _____    ______ ____
ROOT
ATOM      1  O   UNL     1       1.586   9.137  18.841  0.00  0.00    +0.000 OA
ATOM      2  C   UNL     1       1.388   8.650  19.942  0.00  0.00    +0.000 C 
ATOM      3  N   UNL     1       1.792   7.387  20.357  0.00  0.00    +0.000 N 
ATOM      4  H   UNL     1       1.433   7.048  21.236  0.00  0.00    +0.000 HD
ENDROOT
BRANCH   3   5
ATOM      5  C   UNL     1       2.475   6.439  19.553  0.00  0.00    +0.000 A 
ATOM      6  C   UNL     1       3.414   6.844  18.579  0.00  0.00    +0.000 A 
ATOM      7  C   UNL     1       4.075   5.939  17.735  0.00  0.00    +0.000 A 
ATOM      8  C   UNL     1       3.752   4.603  17.895  0.00  0.00    +0.000 A 
ATOM      9  C   UNL     1       2.841   4.200  18.850  0.00  0.00    +0.000 A 
ATOM     10  C   UNL     1       2.639   2.833  18.800  0.00  0.00    +0.000 A 
ATOM     11  C   UNL     1       1.742   2.203  19.648  0.00  0.00    +0.000 A 
ATOM     12  C   UNL     1       1.062   3.029  20.556  0.00  0.00    +0.000 A 
ATOM     13  C   UNL     1       1.271   4.423  20.592  0.00  0.00    +0.000 A 
ATOM     14  C   UNL     1       2.185   5.051  19.708  0.00  0.00    +0.000 A 
ATOM     15  C   UNL     1       3.469   2.226  17.721  0.00  0.00    +0.000 C 
ATOM     16  C   UNL     1       4.255   3.434  17.124  0.00  0.00    +0.000 C 
ENDBRANCH   3   5
BRANCH   2  17
ATOM     17  C   UNL     1       0.607   9.429  20.949  0.00  0.00    +0.000 A 
ATOM     18  C   UNL     1       0.722   9.042  22.297  0.00  0.00    +0.000 A 
ATOM     19  C   UNL     1      -0.018   9.681  23.275  0.00  0.00    +0.000 A 
ATOM     20  C   UNL     1      -0.864  10.725  22.934  0.00  0.00    +0.000 A 
ATOM     21  C   UNL     1      -0.977  11.162  21.600  0.00  0.00    +0.000 A 
ATOM     22  C   UNL     1      -1.845  12.222  21.290  0.00  0.00    +0.000 A 
ATOM     23  C   UNL     1      -2.000  12.663  19.978  0.00  0.00    +0.000 A 
ATOM     24  C   UNL     1      -1.300  12.040  18.957  0.00  0.00    +0.000 A 
ATOM     25  C   UNL     1      -0.443  10.976  19.249  0.00  0.00    +0.000 A 
ATOM     26  C   UNL     1      -0.241  10.515  20.575  0.00  0.00    +0.000 A 
ENDBRANCH   2  17
TORSDOF 2
ENDMDL
MODEL 3
REMARK VINA RESULT:      -8.8      1.755      2.265
REMARK  Name = 
REMARK  2 active torsions:
REMARK  status: ('A' for Active; 'I' for Inactive)
REMARK    1  A    between atoms: C_2  and  C_16
REMARK    2  A    between atoms: N_3  and  C_4
REMARK                            x       y       z     vdW  Elec       q    Type
REMARK                         _______ _______ _______ _____ _____    ______ ____
ROOT
ATOM      1  O   UNL     1       1.961   9.407  17.448  0.00  0.00    +0.000 OA
ATOM      2  C   UNL     1       1.552   9.146  18.568  0.00  0.00    +0.000 C 
ATOM      3  N   UNL     1       1.798   7.971  19.268  0.00  0.00    +0.000 N 
ATOM      4  H   UNL     1       1.277   7.818  20.119  0.00  0.00    +0.000 HD
ENDROOT
BRANCH   3   5
ATOM      5  C   UNL     1       2.539   6.864  18.781  0.00  0.00    +0.000 A 
ATOM      6  C   UNL     1       3.527   7.025  17.784  0.00  0.00    +0.000 A 
ATOM      7  C   UNL     1       4.247   5.949  17.245  0.00  0.00    +0.000 A 
ATOM      8  C   UNL     1       3.935   4.694  17.737  0.00  0.00    +0.000 A 
ATOM      9  C   UNL     1       2.976   4.531  18.717  0.00  0.00    +0.000 A 
ATOM     10  C   UNL     1       2.797   3.194  19.020  0.00  0.00    +0.000 A 
ATOM     11  C   UNL     1       1.862   2.785  19.958  0.00  0.00    +0.000 A 
ATOM     12  C   UNL     1       1.120   3.801  20.578  0.00  0.00    +0.000 A 
ATOM     13  C   UNL     1       1.306   5.160  20.254  0.00  0.00    +0.000 A 
ATOM     14  C   UNL     1       2.261   5.559  19.283  0.00  0.00    +0.000 A 
ATOM     15  C   UNL     1       3.696   2.348  18.185  0.00  0.00    +0.000 C 
ATOM     16  C   UNL     1       4.498   3.378  17.330  0.00  0.00    +0.000 C 
ENDBRANCH   3   5
BRANCH   2  17
ATOM     17  C   UNL     1       0.670  10.128  19.265  0.00  0.00    +0.000 A 
ATOM     18  C   UNL     1       1.136  10.669  20.477  0.00  0.00    +0.000 A 
ATOM     19  C   UNL     1       0.346  11.540  21.207  0.00  0.00    +0.000 A 
ATOM     20  C   UNL     1      -0.906  11.901  20.734  0.00  0.00    +0.000 A 
ATOM     21  C   UNL     1      -1.390  11.406  19.507  0.00  0.00    +0.000 A 
ATOM     22  C   UNL     1      -2.663  11.793  19.059  0.00  0.00    +0.000 A 
ATOM     23  C   UNL     1      -3.183  11.304  17.863  0.00  0.00    +0.000 A 
ATOM     24  C   UNL     1      -2.442  10.410  17.107  0.00  0.00    +0.000 A 
ATOM     25  C   UNL     1      -1.179  10.006  17.547  0.00  0.00    +0.000 A 
ATOM     26  C   UNL     1      -0.607  10.501  18.746  0.00  0.00    +0.000 A 
ENDBRANCH   2  17
TORSDOF 2
ENDMDL
MODEL 4
REMARK VINA RESULT:      -8.6      0.697      2.373
REMARK  Name = 
REMARK  2 active torsions:
REMARK  status: ('A' for Active; 'I' for Inactive)
REMARK    1  A    between atoms: C_2  and  C_16
REMARK    2  A    between atoms: N_3  and  C_4
REMARK                            x       y       z     vdW  Elec       q    Type
REMARK                         _______ _______ _______ _____ _____    ______ ____
ROOT
ATOM      1  O   UNL     1       1.154   8.920  17.820  0.00  0.00    +0.000 OA
ATOM      2  C   UNL     1       1.407   8.860  19.013  0.00  0.00    +0.000 C 
ATOM      3  N   UNL     1       2.144   7.862  19.638  0.00  0.00    +0.000 N 
ATOM      4  H   UNL     1       2.150   7.849  20.647  0.00  0.00    +0.000 HD
ENDROOT
BRANCH   3   5
ATOM      5  C   UNL     1       2.696   6.724  18.995  0.00  0.00    +0.000 A 
ATOM      6  C   UNL     1       3.598   6.858  17.916  0.00  0.00    +0.000 A 
ATOM      7  C   UNL     1       4.129   5.758  17.226  0.00  0.00    +0.000 A 
ATOM      8  C   UNL     1       3.714   4.509  17.652  0.00  0.00    +0.000 A 
ATOM      9  C   UNL     1       2.839   4.371  18.711  0.00  0.00    +0.000 A 
ATOM     10  C   UNL     1       2.529   3.042  18.929  0.00  0.00    +0.000 A 
ATOM     11  C   UNL     1       1.643   2.661  19.926  0.00  0.00    +0.000 A 
ATOM     12  C   UNL     1       1.091   3.697  20.693  0.00  0.00    +0.000 A 
ATOM     13  C   UNL     1       1.410   5.049  20.455  0.00  0.00    +0.000 A 
ATOM     14  C   UNL     1       2.310   5.420  19.423  0.00  0.00    +0.000 A 
ATOM     15  C   UNL     1       3.236   2.175  17.945  0.00  0.00    +0.000 C 
ATOM     16  C   UNL     1       4.073   3.178  17.091  0.00  0.00    +0.000 C 
ENDBRANCH   3   5
BRANCH   2  17
ATOM     17  C   UNL     1       0.859   9.909  19.924  0.00  0.00    +0.000 A 
ATOM     18  C   UNL     1       0.098   9.476  21.025  0.00  0.00    +0.000 A 
ATOM     19  C   UNL     1      -0.488  10.395  21.877  0.00  0.00    +0.000 A 
ATOM     20  C   UNL     1      -0.312  11.753  21.660  0.00  0.00    +0.000 A 
ATOM     21  C   UNL     1       0.472  12.221  20.588  0.00  0.00    +0.000 A 
ATOM     22  C   UNL     1       0.628  13.604  20.398  0.00  0.00    +0.000 A 
ATOM     23  C   UNL     1       1.376  14.102  19.333  0.00  0.00    +0.000 A 
ATOM     24  C   UNL     1       1.964  13.224  18.437  0.00  0.00    +0.000 A 
ATOM     25  C   UNL     1       1.806  11.846  18.606  0.00  0.00    +0.000 A 
ATOM     26  C   UNL     1       1.073  11.301  19.691  0.00  0.00    +0.000 A 
ENDBRANCH   2  17
TORSDOF 2
ENDMDL
MODEL 5
REMARK VINA RESULT:      -8.5      2.169      7.493
REMARK  Name = 
REMARK  2 active torsions:
REMARK  status: ('A' for Active; 'I' for Inactive)
REMARK    1  A    between atoms: C_2  and  C_16
REMARK    2  A    between atoms: N_3  and  C_4
REMARK                            x       y       z     vdW  Elec       q    Type
REMARK                         _______ _______ _______ _____ _____    ______ ____
ROOT
ATOM      1  O   UNL     1       1.811   7.395  20.446  0.00  0.00    +0.000 OA
ATOM      2  C   UNL     1       2.049   7.724  19.295  0.00  0.00    +0.000 C 
ATOM      3  N   UNL     1       1.584   8.871  18.665  0.00  0.00    +0.000 N 
ATOM      4  H   UNL     1       1.727   8.947  17.670  0.00  0.00    +0.000 HD
ENDROOT
BRANCH   3   5
ATOM      5  C   UNL     1       0.723   9.836  19.248  0.00  0.00    +0.000 A 
ATOM      6  C   UNL     1       1.027  10.434  20.492  0.00  0.00    +0.000 A 
ATOM      7  C   UNL     1       0.179  11.357  21.121  0.00  0.00    +0.000 A 
ATOM      8  C   UNL     1      -0.999  11.656  20.460  0.00  0.00    +0.000 A 
ATOM      9  C   UNL     1      -1.299  11.082  19.241  0.00  0.00    +0.000 A 
ATOM     10  C   UNL     1      -2.541  11.488  18.792  0.00  0.00    +0.000 A 
ATOM     11  C   UNL     1      -3.068  11.016  17.600  0.00  0.00    +0.000 A 
ATOM     12  C   UNL     1      -2.269  10.114  16.882  0.00  0.00    +0.000 A 
ATOM     13  C   UNL     1      -1.006   9.702  17.355  0.00  0.00    +0.000 A 
ATOM     14  C   UNL     1      -0.489  10.187  18.584  0.00  0.00    +0.000 A 
ATOM     15  C   UNL     1      -3.170  12.418  19.773  0.00  0.00    +0.000 C 
ATOM     16  C   UNL     1      -2.099  12.558  20.899  0.00  0.00    +0.000 C 
ENDBRANCH   3   5
BRANCH   2  17
ATOM     17  C   UNL     1       2.874   6.820  18.439  0.00  0.00    +0.000 A 
ATOM     18  C   UNL     1       3.930   7.401  17.715  0.00  0.00    +0.000 A 
ATOM     19  C   UNL     1       4.698   6.633  16.857  0.00  0.00    +0.000 A 
ATOM     20  C   UNL     1       4.442   5.277  16.722  0.00  0.00    +0.000 A 
ATOM     21  C   UNL     1       3.414   4.656  17.457  0.00  0.00    +0.000 A 
ATOM     22  C   UNL     1       3.181   3.281  17.295  0.00  0.00    +0.000 A 
ATOM     23  C   UNL     1       2.158   2.638  17.988  0.00  0.00    +0.000 A 
ATOM     24  C   UNL     1       1.344   3.367  18.841  0.00  0.00    +0.000 A 
ATOM     25  C   UNL     1       1.556   4.738  19.003  0.00  0.00    +0.000 A 
ATOM     26  C   UNL     1       2.603   5.421  18.333  0.00  0.00    +0.000 A 
ENDBRANCH   2  17
TORSDOF 2
ENDMDL
MODEL 6
REMARK VINA RESULT:      -8.5      1.519      7.600
REMARK  Name = 
REMARK  2 active torsions:
REMARK  status: ('A' for Active; 'I' for Inactive)
REMARK    1  A    between atoms: C_2  and  C_16
REMARK    2  A    between atoms: N_3  and  C_4
REMARK                            x       y       z     vdW  Elec       q    Type
REMARK                         _______ _______ _______ _____ _____    ______ ____
ROOT
ATOM      1  O   UNL     1       1.399   6.180  20.880  0.00  0.00    +0.000 OA
ATOM      2  C   UNL     1       1.919   6.867  20.015  0.00  0.00    +0.000 C 
ATOM      3  N   UNL     1       1.793   8.245  19.887  0.00  0.00    +0.000 N 
ATOM      4  H   UNL     1       2.147   8.669  19.043  0.00  0.00    +0.000 HD
ENDROOT
BRANCH   3   5
ATOM      5  C   UNL     1       1.008   9.079  20.724  0.00  0.00    +0.000 A 
ATOM      6  C   UNL     1       0.999   8.910  22.127  0.00  0.00    +0.000 A 
ATOM      7  C   UNL     1       0.201   9.684  22.982  0.00  0.00    +0.000 A 
ATOM      8  C   UNL     1      -0.601  10.635  22.378  0.00  0.00    +0.000 A 
ATOM      9  C   UNL     1      -0.592  10.811  21.009  0.00  0.00    +0.000 A 
ATOM     10  C   UNL     1      -1.501  11.778  20.625  0.00  0.00    +0.000 A 
ATOM     11  C   UNL     1      -1.687  12.106  19.291  0.00  0.00    +0.000 A 
ATOM     12  C   UNL     1      -0.901  11.406  18.365  0.00  0.00    +0.000 A 
ATOM     13  C   UNL     1       0.018  10.416  18.769  0.00  0.00    +0.000 A 
ATOM     14  C   UNL     1       0.187  10.086  20.138  0.00  0.00    +0.000 A 
ATOM     15  C   UNL     1      -2.212  12.324  21.816  0.00  0.00    +0.000 C 
ATOM     16  C   UNL     1      -1.572  11.564  23.019  0.00  0.00    +0.000 C 
ENDBRANCH   3   5
BRANCH   2  17
ATOM     17  C   UNL     1       2.735   6.204  18.955  0.00  0.00    +0.000 A 
ATOM     18  C   UNL     1       3.679   6.995  18.275  0.00  0.00    +0.000 A 
ATOM     19  C   UNL     1       4.428   6.461  17.242  0.00  0.00    +0.000 A 
ATOM     20  C   UNL     1       4.266   5.131  16.883  0.00  0.00    +0.000 A 
ATOM     21  C   UNL     1       3.356   4.301  17.566  0.00  0.00    +0.000 A 
ATOM     22  C   UNL     1       3.217   2.959  17.175  0.00  0.00    +0.000 A 
ATOM     23  C   UNL     1       2.309   2.116  17.811  0.00  0.00    +0.000 A 
ATOM     24  C   UNL     1       1.517   2.609  18.836  0.00  0.00    +0.000 A 
ATOM     25  C   UNL     1       1.635   3.945  19.227  0.00  0.00    +0.000 A 
ATOM     26  C   UNL     1       2.565   4.826  18.619  0.00  0.00    +0.000 A 
ENDBRANCH   2  17
TORSDOF 2
ENDMDL
MODEL 7
REMARK VINA RESULT:      -8.4      1.227      7.083
REMARK  Name = 
REMARK  2 active torsions:
REMARK  status: ('A' for Active; 'I' for Inactive)
REMARK    1  A    between atoms: C_2  and  C_16
REMARK    2  A    between atoms: N_3  and  C_4
REMARK                            x       y       z     vdW  Elec       q    Type
REMARK                         _______ _______ _______ _____ _____    ______ ____
ROOT
ATOM      1  O   UNL     1       1.853   7.507  17.472  0.00  0.00    +0.000 OA
ATOM      2  C   UNL     1       2.271   7.297  18.599  0.00  0.00    +0.000 C 
ATOM      3  N   UNL     1       2.007   8.072  19.721  0.00  0.00    +0.000 N 
ATOM      4  H   UNL     1       2.536   7.876  20.558  0.00  0.00    +0.000 HD
ENDROOT
BRANCH   3   5
ATOM      5  C   UNL     1       1.233   9.260  19.735  0.00  0.00    +0.000 A 
ATOM      6  C   UNL     1       1.213  10.135  18.626  0.00  0.00    +0.000 A 
ATOM      7  C   UNL     1       0.497  11.341  18.619  0.00  0.00    +0.000 A 
ATOM      8  C   UNL     1      -0.196  11.649  19.776  0.00  0.00    +0.000 A 
ATOM      9  C   UNL     1      -0.186  10.796  20.862  0.00  0.00    +0.000 A 
ATOM     10  C   UNL     1      -0.903  11.326  21.918  0.00  0.00    +0.000 A 
ATOM     11  C   UNL     1      -1.009  10.657  23.128  0.00  0.00    +0.000 A 
ATOM     12  C   UNL     1      -0.353   9.420  23.211  0.00  0.00    +0.000 A 
ATOM     13  C   UNL     1       0.382   8.894  22.129  0.00  0.00    +0.000 A 
ATOM     14  C   UNL     1       0.488   9.598  20.903  0.00  0.00    +0.000 A 
ATOM     15  C   UNL     1      -1.458  12.660  21.551  0.00  0.00    +0.000 C 
ATOM     16  C   UNL     1      -1.000  12.865  20.073  0.00  0.00    +0.000 C 
ENDBRANCH   3   5
BRANCH   2  17
ATOM     17  C   UNL     1       3.186   6.139  18.829  0.00  0.00    +0.000 A 
ATOM     18  C   UNL     1       4.476   6.213  18.273  0.00  0.00    +0.000 A 
ATOM     19  C   UNL     1       5.355   5.152  18.396  0.00  0.00    +0.000 A 
ATOM     20  C   UNL     1       4.975   4.013  19.090  0.00  0.00    +0.000 A 
ATOM     21  C   UNL     1       3.704   3.919  19.689  0.00  0.00    +0.000 A 
ATOM     22  C   UNL     1       3.352   2.750  20.383  0.00  0.00    +0.000 A 
ATOM     23  C   UNL     1       2.094   2.612  20.966  0.00  0.00    +0.000 A 
ATOM     24  C   UNL     1       1.168   3.636  20.850  0.00  0.00    +0.000 A 
ATOM     25  C   UNL     1       1.500   4.800  20.152  0.00  0.00    +0.000 A 
ATOM     26  C   UNL     1       2.778   4.985  19.565  0.00  0.00    +0.000 A 
ENDBRANCH   2  17
TORSDOF 2
ENDMDL
MODEL 8
REMARK VINA RESULT:      -8.2      0.964      6.955
REMARK  Name = 
REMARK  2 active torsions:
REMARK  status: ('A' for Active; 'I' for Inactive)
REMARK    1  A    between atoms: C_2  and  C_16
REMARK    2  A    between atoms: N_3  and  C_4
REMARK                            x       y       z     vdW  Elec       q    Type
REMARK                         _______ _______ _______ _____ _____    ______ ____
ROOT
ATOM      1  O   UNL     1       4.148   7.755  17.808  0.00  0.00    +0.000 OA
ATOM      2  C   UNL     1       3.207   7.045  18.125  0.00  0.00    +0.000 C 
ATOM      3  N   UNL     1       1.989   7.486  18.627  0.00  0.00    +0.000 N 
ATOM      4  H   UNL     1       1.356   6.790  18.993  0.00  0.00    +0.000 HD
ENDROOT
BRANCH   3   5
ATOM      5  C   UNL     1       1.649   8.838  18.887  0.00  0.00    +0.000 A 
ATOM      6  C   UNL     1       1.990   9.867  17.981  0.00  0.00    +0.000 A 
ATOM      7  C   UNL     1       1.712  11.220  18.225  0.00  0.00    +0.000 A 
ATOM      8  C   UNL     1       1.083  11.510  19.423  0.00  0.00    +0.000 A 
ATOM      9  C   UNL     1       0.740  10.509  20.309  0.00  0.00    +0.000 A 
ATOM     10  C   UNL     1       0.168  11.032  21.453  0.00  0.00    +0.000 A 
ATOM     11  C   UNL     1      -0.232  10.215  22.500  0.00  0.00    +0.000 A 
ATOM     12  C   UNL     1      -0.026   8.839  22.325  0.00  0.00    +0.000 A 
ATOM     13  C   UNL     1       0.567   8.318  21.157  0.00  0.00    +0.000 A 
ATOM     14  C   UNL     1       0.979   9.171  20.101  0.00  0.00    +0.000 A 
ATOM     15  C   UNL     1       0.107  12.519  21.370  0.00  0.00    +0.000 C 
ATOM     16  C   UNL     1       0.704  12.843  19.966  0.00  0.00    +0.000 C 
ENDBRANCH   3   5
BRANCH   2  17
ATOM     17  C   UNL     1       3.352   5.562  18.022  0.00  0.00    +0.000 A 
ATOM     18  C   UNL     1       4.190   5.062  17.009  0.00  0.00    +0.000 A 
ATOM     19  C   UNL     1       4.325   3.698  16.819  0.00  0.00    +0.000 A 
ATOM     20  C   UNL     1       3.646   2.813  17.643  0.00  0.00    +0.000 A 
ATOM     21  C   UNL     1       2.826   3.278  18.689  0.00  0.00    +0.000 A 
ATOM     22  C   UNL     1       2.153   2.353  19.503  0.00  0.00    +0.000 A 
ATOM     23  C   UNL     1       1.314   2.778  20.531  0.00  0.00    +0.000 A 
ATOM     24  C   UNL     1       1.126   4.134  20.748  0.00  0.00    +0.000 A 
ATOM     25  C   UNL     1       1.779   5.065  19.937  0.00  0.00    +0.000 A 
ATOM     26  C   UNL     1       2.659   4.671  18.897  0.00  0.00    +0.000 A 
ENDBRANCH   2  17
TORSDOF 2
ENDMDL
MODEL 9
REMARK VINA RESULT:      -8.0      2.689      7.495
REMARK  Name = 
REMARK  2 active torsions:
REMARK  status: ('A' for Active; 'I' for Inactive)
REMARK    1  A    between atoms: C_2  and  C_16
REMARK    2  A    between atoms: N_3  and  C_4
REMARK                            x       y       z     vdW  Elec       q    Type
REMARK                         _______ _______ _______ _____ _____    ______ ____
ROOT
ATOM      1  O   UNL     1       1.402   8.454  20.909  0.00  0.00    +0.000 OA
ATOM      2  C   UNL     1       1.516   8.503  19.695  0.00  0.00    +0.000 C 
ATOM      3  N   UNL     1       0.847   9.381  18.851  0.00  0.00    +0.000 N 
ATOM      4  H   UNL     1       0.915   9.216  17.858  0.00  0.00    +0.000 HD
ENDROOT
BRANCH   3   5
ATOM      5  C   UNL     1      -0.108  10.346  19.260  0.00  0.00    +0.000 A 
ATOM      6  C   UNL     1       0.113  11.162  20.392  0.00  0.00    +0.000 A 
ATOM      7  C   UNL     1      -0.828  12.094  20.855  0.00  0.00    +0.000 A 
ATOM      8  C   UNL     1      -2.011  12.175  20.143  0.00  0.00    +0.000 A 
ATOM      9  C   UNL     1      -2.231  11.387  19.032  0.00  0.00    +0.000 A 
ATOM     10  C   UNL     1      -3.493  11.601  18.511  0.00  0.00    +0.000 A 
ATOM     11  C   UNL     1      -3.948  10.898  17.406  0.00  0.00    +0.000 A 
ATOM     12  C   UNL     1      -3.055   9.967  16.853  0.00  0.00    +0.000 A 
ATOM     13  C   UNL     1      -1.774   9.752  17.399  0.00  0.00    +0.000 A 
ATOM     14  C   UNL     1      -1.330  10.474  18.536  0.00  0.00    +0.000 A 
ATOM     15  C   UNL     1      -4.223  12.617  19.321  0.00  0.00    +0.000 C 
ATOM     16  C   UNL     1      -3.196  13.033  20.419  0.00  0.00    +0.000 C 
ENDBRANCH   3   5
BRANCH   2  17
ATOM     17  C   UNL     1       2.409   7.522  19.010  0.00  0.00    +0.000 A 
ATOM     18  C   UNL     1       3.128   7.973  17.889  0.00  0.00    +0.000 A 
ATOM     19  C   UNL     1       3.929   7.103  17.171  0.00  0.00    +0.000 A 
ATOM     20  C   UNL     1       4.044   5.779  17.568  0.00  0.00    +0.000 A 
ATOM     21  C   UNL     1       3.366   5.302  18.706  0.00  0.00    +0.000 A 
ATOM     22  C   UNL     1       3.505   3.954  19.079  0.00  0.00    +0.000 A 
ATOM     23  C   UNL     1       2.830   3.442  20.184  0.00  0.00    +0.000 A 
ATOM     24  C   UNL     1       1.996   4.266  20.922  0.00  0.00    +0.000 A 
ATOM     25  C   UNL     1       1.838   5.605  20.556  0.00  0.00    +0.000 A 
ATOM     26  C   UNL     1       2.527   6.168  19.452  0.00  0.00    +0.000 A 
ENDBRANCH   2  17
TORSDOF 2
ENDMDL
