MODEL 1
REMARK VINA RESULT:      -7.0      0.000      0.000
REMARK  Name = 
REMARK  7 active torsions:
REMARK  status: ('A' for Active; 'I' for Inactive)
REMARK    1  A    between atoms: C_1  and  N_2
REMARK    2  A    between atoms: N_2  and  C_3
REMARK    3  A    between atoms: N_2  and  C_4
REMARK    4  A    between atoms: N_2  and  C_5
REMARK    5  A    between atoms: C_5  and  C_6
REMARK    6  A    between atoms: C_9  and  C_10
REMARK    7  A    between atoms: C_9  and  C_16
REMARK                            x       y       z     vdW  Elec       q    Type
REMARK                         _______ _______ _______ _____ _____    ______ ____
ROOT
ATOM      1  C   UNL     1       3.479   4.971  18.831  0.00  0.00    +0.000 C 
ATOM      2  C   UNL     1       3.493   6.284  18.031  0.00  0.00    +0.000 C 
ATOM      3  O   UNL     1       4.189   6.201  16.799  0.00  0.00    +0.000 OA
ATOM      4  C   UNL     1       5.517   5.614  16.816  0.00  0.00    +0.000 C 
ATOM      5  C   UNL     1       5.451   4.273  17.606  0.00  0.00    +0.000 C 
ATOM      6  O   UNL     1       4.774   4.359  18.880  0.00  0.00    +0.000 OA
ENDROOT
BRANCH   4   7
ATOM      7  C   UNL     1       6.621   6.515  17.468  0.00  0.00    +0.000 A 
ATOM      8  C   UNL     1       7.487   6.044  18.467  0.00  0.00    +0.000 A 
ATOM      9  C   UNL     1       8.435   6.867  19.091  0.00  0.00    +0.000 A 
ATOM     10  C   UNL     1       8.581   8.188  18.697  0.00  0.00    +0.000 A 
ATOM     11  C   UNL     1       7.809   8.672  17.656  0.00  0.00    +0.000 A 
ATOM     12  C   UNL     1       6.864   7.840  17.036  0.00  0.00    +0.000 A 
ENDBRANCH   4   7
BRANCH   4  13
ATOM     13  C   UNL     1       5.802   5.365  15.261  0.00  0.00    +0.000 C 
ATOM     14  C   UNL     1       5.053   4.098  14.746  0.00  0.00    +0.000 C 
ATOM     15  C   UNL     1       5.185   3.942  13.235  0.00  0.00    +0.000 C 
ATOM     16  C   UNL     1       6.645   3.761  12.853  0.00  0.00    +0.000 C 
ATOM     17  C   UNL     1       7.496   4.909  13.381  0.00  0.00    +0.000 C 
ATOM     18  C   UNL     1       7.296   5.174  14.882  0.00  0.00    +0.000 C 
ENDBRANCH   4  13
BRANCH   1  19
ATOM     19  C   UNL     1       2.346   4.042  18.324  0.00  0.00    +0.000 C 
BRANCH  19  21
ATOM     20  C   UNL     1       2.329   2.891  20.618  0.00  0.00    +0.000 C 
ATOM     21  N   UNL     1       2.131   2.716  19.118  0.00  0.00    +0.000 N 
ATOM     22  C   UNL     1       3.078   1.628  18.627  0.00  0.00    +0.000 C 
ATOM     23  C   UNL     1       0.685   2.256  18.879  0.00  0.00    +0.000 C 
ENDBRANCH  19  21
ENDBRANCH   1  19
TORSDOF 4
ENDMDL
MODEL 2
REMARK VINA RESULT:      -6.9      0.081      1.337
REMARK  Name = 
REMARK  7 active torsions:
REMARK  status: ('A' for Active; 'I' for Inactive)
REMARK    1  A    between atoms: C_1  and  N_2
REMARK    2  A    between atoms: N_2  and  C_3
REMARK    3  A    between atoms: N_2  and  C_4
REMARK    4  A    between atoms: N_2  and  C_5
REMARK    5  A    between atoms: C_5  and  C_6
REMARK    6  A    between atoms: C_9  and  C_10
REMARK    7  A    between atoms: C_9  and  C_16
REMARK                            x       y       z     vdW  Elec       q    Type
REMARK                         _______ _______ _______ _____ _____    ______ ____
ROOT
ATOM      1  C   UNL     1       3.477   4.904  18.750  0.00  0.00    +0.000 C 
ATOM      2  C   UNL     1       3.474   6.224  17.961  0.00  0.00    +0.000 C 
ATOM      3  O   UNL     1       4.190   6.165  16.738  0.00  0.00    +0.000 OA
ATOM      4  C   UNL     1       5.529   5.607  16.770  0.00  0.00    +0.000 C 
ATOM      5  C   UNL     1       5.481   4.257  17.549  0.00  0.00    +0.000 C 
ATOM      6  O   UNL     1       4.784   4.319  18.813  0.00  0.00    +0.000 OA
ENDROOT
BRANCH   4   7
ATOM      7  C   UNL     1       6.605   6.525  17.445  0.00  0.00    +0.000 A 
ATOM      8  C   UNL     1       6.772   7.874  17.095  0.00  0.00    +0.000 A 
ATOM      9  C   UNL     1       7.772   8.679  17.656  0.00  0.00    +0.000 A 
ATOM     10  C   UNL     1       8.616   8.167  18.630  0.00  0.00    +0.000 A 
ATOM     11  C   UNL     1       8.433   6.868  19.069  0.00  0.00    +0.000 A 
ATOM     12  C   UNL     1       7.427   6.071  18.502  0.00  0.00    +0.000 A 
ENDBRANCH   4   7
BRANCH   4  13
ATOM     13  C   UNL     1       5.841   5.376  15.217  0.00  0.00    +0.000 C 
ATOM     14  C   UNL     1       5.077   4.133  14.667  0.00  0.00    +0.000 C 
ATOM     15  C   UNL     1       5.238   3.998  13.157  0.00  0.00    +0.000 C 
ATOM     16  C   UNL     1       6.701   3.794  12.801  0.00  0.00    +0.000 C 
ATOM     17  C   UNL     1       7.564   4.916  13.365  0.00  0.00    +0.000 C 
ATOM     18  C   UNL     1       7.339   5.161  14.866  0.00  0.00    +0.000 C 
ENDBRANCH   4  13
BRANCH   1  19
ATOM     19  C   UNL     1       2.371   3.955  18.220  0.00  0.00    +0.000 C 
BRANCH  19  21
ATOM     20  C   UNL     1       0.643   2.192  18.920  0.00  0.00    +0.000 C 
ATOM     21  N   UNL     1       2.074   2.689  19.081  0.00  0.00    +0.000 N 
ATOM     22  C   UNL     1       2.330   2.962  20.558  0.00  0.00    +0.000 C 
ATOM     23  C   UNL     1       3.020   1.572  18.615  0.00  0.00    +0.000 C 
ENDBRANCH  19  21
ENDBRANCH   1  19
TORSDOF 4
ENDMDL
MODEL 3
REMARK VINA RESULT:      -6.6      2.207      5.516
REMARK  Name = 
REMARK  7 active torsions:
REMARK  status: ('A' for Active; 'I' for Inactive)
REMARK    1  A    between atoms: C_1  and  N_2
REMARK    2  A    between atoms: N_2  and  C_3
REMARK    3  A    between atoms: N_2  and  C_4
REMARK    4  A    between atoms: N_2  and  C_5
REMARK    5  A    between atoms: C_5  and  C_6
REMARK    6  A    between atoms: C_9  and  C_10
REMARK    7  A    between atoms: C_9  and  C_16
REMARK                            x       y       z     vdW  Elec       q    Type
REMARK                         _______ _______ _______ _____ _____    ______ ____
ROOT
ATOM      1  C   UNL     1       6.239   4.186  14.268  0.00  0.00    +0.000 C 
ATOM      2  C   UNL     1       6.313   3.471  15.628  0.00  0.00    +0.000 C 
ATOM      3  O   UNL     1       5.327   3.892  16.555  0.00  0.00    +0.000 OA
ATOM      4  C   UNL     1       5.156   5.320  16.752  0.00  0.00    +0.000 C 
ATOM      5  C   UNL     1       5.052   6.000  15.353  0.00  0.00    +0.000 C 
ATOM      6  O   UNL     1       6.076   5.602  14.415  0.00  0.00    +0.000 OA
ENDROOT
BRANCH   4   7
ATOM      7  C   UNL     1       6.312   6.014  17.550  0.00  0.00    +0.000 A 
ATOM      8  C   UNL     1       6.734   7.326  17.283  0.00  0.00    +0.000 A 
ATOM      9  C   UNL     1       7.806   7.924  17.957  0.00  0.00    +0.000 A 
ATOM     10  C   UNL     1       8.468   7.238  18.964  0.00  0.00    +0.000 A 
ATOM     11  C   UNL     1       8.032   5.975  19.322  0.00  0.00    +0.000 A 
ATOM     12  C   UNL     1       6.956   5.386  18.642  0.00  0.00    +0.000 A 
ENDBRANCH   4   7
BRANCH   4  13
ATOM     13  C   UNL     1       3.767   5.394  17.544  0.00  0.00    +0.000 C 
ATOM     14  C   UNL     1       3.993   5.718  19.052  0.00  0.00    +0.000 C 
ATOM     15  C   UNL     1       2.675   5.950  19.781  0.00  0.00    +0.000 C 
ATOM     16  C   UNL     1       1.823   4.692  19.737  0.00  0.00    +0.000 C 
ATOM     17  C   UNL     1       1.604   4.229  18.301  0.00  0.00    +0.000 C 
ATOM     18  C   UNL     1       2.908   4.101  17.498  0.00  0.00    +0.000 C 
ENDBRANCH   4  13
BRANCH   1  19
ATOM     19  C   UNL     1       5.182   3.506  13.359  0.00  0.00    +0.000 C 
BRANCH  19  21
ATOM     20  C   UNL     1       5.893   1.723  11.657  0.00  0.00    +0.000 C 
ATOM     21  N   UNL     1       5.623   3.202  11.894  0.00  0.00    +0.000 N 
ATOM     22  C   UNL     1       6.876   3.989  11.528  0.00  0.00    +0.000 C 
ATOM     23  C   UNL     1       4.481   3.633  10.961  0.00  0.00    +0.000 C 
ENDBRANCH  19  21
ENDBRANCH   1  19
TORSDOF 4
ENDMDL
MODEL 4
REMARK VINA RESULT:      -6.5      2.202      5.430
REMARK  Name = 
REMARK  7 active torsions:
REMARK  status: ('A' for Active; 'I' for Inactive)
REMARK    1  A    between atoms: C_1  and  N_2
REMARK    2  A    between atoms: N_2  and  C_3
REMARK    3  A    between atoms: N_2  and  C_4
REMARK    4  A    between atoms: N_2  and  C_5
REMARK    5  A    between atoms: C_5  and  C_6
REMARK    6  A    between atoms: C_9  and  C_10
REMARK    7  A    between atoms: C_9  and  C_16
REMARK                            x       y       z     vdW  Elec       q    Type
REMARK                         _______ _______ _______ _____ _____    ______ ____
ROOT
ATOM      1  C   UNL     1       6.272   4.185  14.259  0.00  0.00    +0.000 C 
ATOM      2  C   UNL     1       6.392   3.494  15.628  0.00  0.00    +0.000 C 
ATOM      3  O   UNL     1       5.421   3.914  16.572  0.00  0.00    +0.000 OA
ATOM      4  C   UNL     1       5.230   5.342  16.750  0.00  0.00    +0.000 C 
ATOM      5  C   UNL     1       5.081   5.997  15.344  0.00  0.00    +0.000 C 
ATOM      6  O   UNL     1       6.089   5.601  14.388  0.00  0.00    +0.000 OA
ENDROOT
BRANCH   4   7
ATOM      7  C   UNL     1       6.394   6.067  17.509  0.00  0.00    +0.000 A 
ATOM      8  C   UNL     1       7.146   5.440  18.515  0.00  0.00    +0.000 A 
ATOM      9  C   UNL     1       8.146   6.107  19.234  0.00  0.00    +0.000 A 
ATOM     10  C   UNL     1       8.462   7.423  18.934  0.00  0.00    +0.000 A 
ATOM     11  C   UNL     1       7.808   8.055  17.892  0.00  0.00    +0.000 A 
ATOM     12  C   UNL     1       6.809   7.378  17.177  0.00  0.00    +0.000 A 
ENDBRANCH   4   7
BRANCH   4  13
ATOM     13  C   UNL     1       3.859   5.405  17.574  0.00  0.00    +0.000 C 
ATOM     14  C   UNL     1       4.127   5.472  19.109  0.00  0.00    +0.000 C 
ATOM     15  C   UNL     1       2.839   5.694  19.894  0.00  0.00    +0.000 C 
ATOM     16  C   UNL     1       1.884   4.533  19.675  0.00  0.00    +0.000 C 
ATOM     17  C   UNL     1       1.613   4.319  18.191  0.00  0.00    +0.000 C 
ATOM     18  C   UNL     1       2.894   4.210  17.349  0.00  0.00    +0.000 C 
ENDBRANCH   4  13
BRANCH   1  19
ATOM     19  C   UNL     1       5.206   3.474  13.387  0.00  0.00    +0.000 C 
BRANCH  19  21
ATOM     20  C   UNL     1       4.526   3.703  10.923  0.00  0.00    +0.000 C 
ATOM     21  N   UNL     1       5.591   3.216  11.897  0.00  0.00    +0.000 N 
ATOM     22  C   UNL     1       5.835   1.733  11.647  0.00  0.00    +0.000 C 
ATOM     23  C   UNL     1       6.888   3.986  11.608  0.00  0.00    +0.000 C 
ENDBRANCH  19  21
ENDBRANCH   1  19
TORSDOF 4
ENDMDL
MODEL 5
REMARK VINA RESULT:      -6.4      7.336     10.145
REMARK  Name = 
REMARK  7 active torsions:
REMARK  status: ('A' for Active; 'I' for Inactive)
REMARK    1  A    between atoms: C_1  and  N_2
REMARK    2  A    between atoms: N_2  and  C_3
REMARK    3  A    between atoms: N_2  and  C_4
REMARK    4  A    between atoms: N_2  and  C_5
REMARK    5  A    between atoms: C_5  and  C_6
REMARK    6  A    between atoms: C_9  and  C_10
REMARK    7  A    between atoms: C_9  and  C_16
REMARK                            x       y       z     vdW  Elec       q    Type
REMARK                         _______ _______ _______ _____ _____    ______ ____
ROOT
ATOM      1  C   UNL     1       2.046  13.169  20.034  0.00  0.00    +0.000 C 
ATOM      2  C   UNL     1       1.843  12.641  18.604  0.00  0.00    +0.000 C 
ATOM      3  O   UNL     1       0.603  11.983  18.403  0.00  0.00    +0.000 OA
ATOM      4  C   UNL     1       0.216  10.970  19.368  0.00  0.00    +0.000 C 
ATOM      5  C   UNL     1       0.405  11.556  20.799  0.00  0.00    +0.000 C 
ATOM      6  O   UNL     1       1.682  12.196  21.021  0.00  0.00    +0.000 OA
ENDROOT
BRANCH   4   7
ATOM      7  C   UNL     1       1.028   9.633  19.273  0.00  0.00    +0.000 A 
ATOM      8  C   UNL     1       1.720   9.251  18.113  0.00  0.00    +0.000 A 
ATOM      9  C   UNL     1       2.397   8.029  18.009  0.00  0.00    +0.000 A 
ATOM     10  C   UNL     1       2.443   7.161  19.089  0.00  0.00    +0.000 A 
ATOM     11  C   UNL     1       1.849   7.533  20.282  0.00  0.00    +0.000 A 
ATOM     12  C   UNL     1       1.175   8.761  20.376  0.00  0.00    +0.000 A 
ENDBRANCH   4   7
BRANCH   4  13
ATOM     13  C   UNL     1      -1.332  10.745  19.027  0.00  0.00    +0.000 C 
ATOM     14  C   UNL     1      -1.514  10.148  17.597  0.00  0.00    +0.000 C 
ATOM     15  C   UNL     1      -2.968   9.780  17.324  0.00  0.00    +0.000 C 
ATOM     16  C   UNL     1      -3.843  11.020  17.385  0.00  0.00    +0.000 C 
ATOM     17  C   UNL     1      -3.683  11.739  18.719  0.00  0.00    +0.000 C 
ATOM     18  C   UNL     1      -2.216  12.020  19.085  0.00  0.00    +0.000 C 
ENDBRANCH   4  13
BRANCH   1  19
ATOM     19  C   UNL     1       1.357  14.548  20.203  0.00  0.00    +0.000 C 
BRANCH  19  21
ATOM     20  C   UNL     1       1.929  16.889  21.085  0.00  0.00    +0.000 C 
ATOM     21  N   UNL     1       2.278  15.801  20.078  0.00  0.00    +0.000 N 
ATOM     22  C   UNL     1       2.203  16.395  18.677  0.00  0.00    +0.000 C 
ATOM     23  C   UNL     1       3.722  15.350  20.347  0.00  0.00    +0.000 C 
ENDBRANCH  19  21
ENDBRANCH   1  19
TORSDOF 4
ENDMDL
MODEL 6
REMARK VINA RESULT:      -6.4      7.413     10.157
REMARK  Name = 
REMARK  7 active torsions:
REMARK  status: ('A' for Active; 'I' for Inactive)
REMARK    1  A    between atoms: C_1  and  N_2
REMARK    2  A    between atoms: N_2  and  C_3
REMARK    3  A    between atoms: N_2  and  C_4
REMARK    4  A    between atoms: N_2  and  C_5
REMARK    5  A    between atoms: C_5  and  C_6
REMARK    6  A    between atoms: C_9  and  C_10
REMARK    7  A    between atoms: C_9  and  C_16
REMARK                            x       y       z     vdW  Elec       q    Type
REMARK                         _______ _______ _______ _____ _____    ______ ____
ROOT
ATOM      1  C   UNL     1       1.937  13.179  20.170  0.00  0.00    +0.000 C 
ATOM      2  C   UNL     1       1.747  12.715  18.716  0.00  0.00    +0.000 C 
ATOM      3  O   UNL     1       0.516  12.052  18.480  0.00  0.00    +0.000 OA
ATOM      4  C   UNL     1       0.138  10.991  19.395  0.00  0.00    +0.000 C 
ATOM      5  C   UNL     1       0.313  11.513  20.853  0.00  0.00    +0.000 C 
ATOM      6  O   UNL     1       1.581  12.157  21.110  0.00  0.00    +0.000 OA
ENDROOT
BRANCH   4   7
ATOM      7  C   UNL     1       0.967   9.669  19.243  0.00  0.00    +0.000 A 
ATOM      8  C   UNL     1       1.114   8.746  20.290  0.00  0.00    +0.000 A 
ATOM      9  C   UNL     1       1.903   7.594  20.172  0.00  0.00    +0.000 A 
ATOM     10  C   UNL     1       2.539   7.302  18.974  0.00  0.00    +0.000 A 
ATOM     11  C   UNL     1       2.352   8.138  17.888  0.00  0.00    +0.000 A 
ATOM     12  C   UNL     1       1.558   9.288  18.016  0.00  0.00    +0.000 A 
ENDBRANCH   4   7
BRANCH   4  13
ATOM     13  C   UNL     1      -1.406  10.763  19.036  0.00  0.00    +0.000 C 
ATOM     14  C   UNL     1      -1.571  10.175  17.601  0.00  0.00    +0.000 C 
ATOM     15  C   UNL     1      -3.020   9.804  17.310  0.00  0.00    +0.000 C 
ATOM     16  C   UNL     1      -3.901  11.040  17.370  0.00  0.00    +0.000 C 
ATOM     17  C   UNL     1      -3.756  11.751  18.711  0.00  0.00    +0.000 C 
ATOM     18  C   UNL     1      -2.295  12.034  19.094  0.00  0.00    +0.000 C 
ENDBRANCH   4  13
BRANCH   1  19
ATOM     19  C   UNL     1       1.231  14.540  20.399  0.00  0.00    +0.000 C 
BRANCH  19  21
ATOM     20  C   UNL     1       1.945  16.427  18.814  0.00  0.00    +0.000 C 
ATOM     21  N   UNL     1       2.106  15.816  20.200  0.00  0.00    +0.000 N 
ATOM     22  C   UNL     1       3.580  15.506  20.425  0.00  0.00    +0.000 C 
ATOM     23  C   UNL     1       1.657  16.859  21.234  0.00  0.00    +0.000 C 
ENDBRANCH  19  21
ENDBRANCH   1  19
TORSDOF 4
ENDMDL
MODEL 7
REMARK VINA RESULT:      -6.4      3.508      5.830
REMARK  Name = 
REMARK  7 active torsions:
REMARK  status: ('A' for Active; 'I' for Inactive)
REMARK    1  A    between atoms: C_1  and  N_2
REMARK    2  A    between atoms: N_2  and  C_3
REMARK    3  A    between atoms: N_2  and  C_4
REMARK    4  A    between atoms: N_2  and  C_5
REMARK    5  A    between atoms: C_5  and  C_6
REMARK    6  A    between atoms: C_9  and  C_10
REMARK    7  A    between atoms: C_9  and  C_16
REMARK                            x       y       z     vdW  Elec       q    Type
REMARK                         _______ _______ _______ _____ _____    ______ ____
ROOT
ATOM      1  C   UNL     1       1.791   8.983  19.064  0.00  0.00    +0.000 C 
ATOM      2  C   UNL     1       2.058   8.430  17.654  0.00  0.00    +0.000 C 
ATOM      3  O   UNL     1       1.938   7.020  17.556  0.00  0.00    +0.000 OA
ATOM      4  C   UNL     1       2.632   6.217  18.546  0.00  0.00    +0.000 C 
ATOM      5  C   UNL     1       2.309   6.790  19.959  0.00  0.00    +0.000 C 
ATOM      6  O   UNL     1       2.464   8.222  20.075  0.00  0.00    +0.000 OA
ENDROOT
BRANCH   4   7
ATOM      7  C   UNL     1       4.190   6.173  18.377  0.00  0.00    +0.000 A 
ATOM      8  C   UNL     1       4.851   6.798  17.308  0.00  0.00    +0.000 A 
ATOM      9  C   UNL     1       6.238   6.709  17.126  0.00  0.00    +0.000 A 
ATOM     10  C   UNL     1       7.020   6.025  18.044  0.00  0.00    +0.000 A 
ATOM     11  C   UNL     1       6.423   5.467  19.160  0.00  0.00    +0.000 A 
ATOM     12  C   UNL     1       5.034   5.563  19.334  0.00  0.00    +0.000 A 
ENDBRANCH   4   7
BRANCH   4  13
ATOM     13  C   UNL     1       1.976   4.772  18.336  0.00  0.00    +0.000 C 
ATOM     14  C   UNL     1       1.477   4.176  19.688  0.00  0.00    +0.000 C 
ATOM     15  C   UNL     1       0.708   2.877  19.480  0.00  0.00    +0.000 C 
ATOM     16  C   UNL     1       1.612   1.826  18.857  0.00  0.00    +0.000 C 
ATOM     17  C   UNL     1       2.229   2.334  17.559  0.00  0.00    +0.000 C 
ATOM     18  C   UNL     1       2.911   3.704  17.705  0.00  0.00    +0.000 C 
ENDBRANCH   4  13
BRANCH   1  19
ATOM     19  C   UNL     1       0.268   9.158  19.296  0.00  0.00    +0.000 C 
BRANCH  19  21
ATOM     20  C   UNL     1      -1.520  10.932  18.807  0.00  0.00    +0.000 C 
ATOM     21  N   UNL     1      -0.230  10.614  19.552  0.00  0.00    +0.000 N 
ATOM     22  C   UNL     1       0.828  11.631  19.144  0.00  0.00    +0.000 C 
ATOM     23  C   UNL     1      -0.501  10.760  21.057  0.00  0.00    +0.000 C 
ENDBRANCH  19  21
ENDBRANCH   1  19
TORSDOF 4
ENDMDL
MODEL 8
REMARK VINA RESULT:      -6.4      2.114      5.239
REMARK  Name = 
REMARK  7 active torsions:
REMARK  status: ('A' for Active; 'I' for Inactive)
REMARK    1  A    between atoms: C_1  and  N_2
REMARK    2  A    between atoms: N_2  and  C_3
REMARK    3  A    between atoms: N_2  and  C_4
REMARK    4  A    between atoms: N_2  and  C_5
REMARK    5  A    between atoms: C_5  and  C_6
REMARK    6  A    between atoms: C_9  and  C_10
REMARK    7  A    between atoms: C_9  and  C_16
REMARK                            x       y       z     vdW  Elec       q    Type
REMARK                         _______ _______ _______ _____ _____    ______ ____
ROOT
ATOM      1  C   UNL     1       6.525   4.576  14.359  0.00  0.00    +0.000 C 
ATOM      2  C   UNL     1       7.064   3.953  15.658  0.00  0.00    +0.000 C 
ATOM      3  O   UNL     1       6.200   4.104  16.771  0.00  0.00    +0.000 OA
ATOM      4  C   UNL     1       5.671   5.429  17.036  0.00  0.00    +0.000 C 
ATOM      5  C   UNL     1       5.106   6.009  15.704  0.00  0.00    +0.000 C 
ATOM      6  O   UNL     1       5.998   5.891  14.573  0.00  0.00    +0.000 OA
ENDROOT
BRANCH   4   7
ATOM      7  C   UNL     1       6.715   6.447  17.612  0.00  0.00    +0.000 A 
ATOM      8  C   UNL     1       7.621   6.105  18.628  0.00  0.00    +0.000 A 
ATOM      9  C   UNL     1       8.514   7.031  19.182  0.00  0.00    +0.000 A 
ATOM     10  C   UNL     1       8.562   8.331  18.701  0.00  0.00    +0.000 A 
ATOM     11  C   UNL     1       7.748   8.689  17.641  0.00  0.00    +0.000 A 
ATOM     12  C   UNL     1       6.859   7.754  17.091  0.00  0.00    +0.000 A 
ENDBRANCH   4   7
BRANCH   4  13
ATOM     13  C   UNL     1       4.501   5.128  18.087  0.00  0.00    +0.000 C 
ATOM     14  C   UNL     1       3.743   3.814  17.725  0.00  0.00    +0.000 C 
ATOM     15  C   UNL     1       2.736   3.431  18.804  0.00  0.00    +0.000 C 
ATOM     16  C   UNL     1       1.678   4.512  18.940  0.00  0.00    +0.000 C 
ATOM     17  C   UNL     1       2.313   5.871  19.214  0.00  0.00    +0.000 C 
ATOM     18  C   UNL     1       3.420   6.236  18.212  0.00  0.00    +0.000 C 
ENDBRANCH   4  13
BRANCH   1  19
ATOM     19  C   UNL     1       5.550   3.597  13.656  0.00  0.00    +0.000 C 
BRANCH  19  21
ATOM     20  C   UNL     1       6.080   1.882  11.822  0.00  0.00    +0.000 C 
ATOM     21  N   UNL     1       5.797   3.345  12.136  0.00  0.00    +0.000 N 
ATOM     22  C   UNL     1       6.963   4.184  11.628  0.00  0.00    +0.000 C 
ATOM     23  C   UNL     1       4.526   3.757  11.379  0.00  0.00    +0.000 C 
ENDBRANCH  19  21
ENDBRANCH   1  19
TORSDOF 4
ENDMDL
MODEL 9
REMARK VINA RESULT:      -6.4      3.487      5.738
REMARK  Name = 
REMARK  7 active torsions:
REMARK  status: ('A' for Active; 'I' for Inactive)
REMARK    1  A    between atoms: C_1  and  N_2
REMARK    2  A    between atoms: N_2  and  C_3
REMARK    3  A    between atoms: N_2  and  C_4
REMARK    4  A    between atoms: N_2  and  C_5
REMARK    5  A    between atoms: C_5  and  C_6
REMARK    6  A    between atoms: C_9  and  C_10
REMARK    7  A    between atoms: C_9  and  C_16
REMARK                            x       y       z     vdW  Elec       q    Type
REMARK                         _______ _______ _______ _____ _____    ______ ____
ROOT
ATOM      1  C   UNL     1       1.838   8.999  19.000  0.00  0.00    +0.000 C 
ATOM      2  C   UNL     1       2.116   8.410  17.607  0.00  0.00    +0.000 C 
ATOM      3  O   UNL     1       1.985   7.000  17.541  0.00  0.00    +0.000 OA
ATOM      4  C   UNL     1       2.661   6.215  18.558  0.00  0.00    +0.000 C 
ATOM      5  C   UNL     1       2.327   6.825  19.953  0.00  0.00    +0.000 C 
ATOM      6  O   UNL     1       2.494   8.258  20.036  0.00  0.00    +0.000 OA
ENDROOT
BRANCH   4   7
ATOM      7  C   UNL     1       4.220   6.154  18.408  0.00  0.00    +0.000 A 
ATOM      8  C   UNL     1       5.042   5.489  19.331  0.00  0.00    +0.000 A 
ATOM      9  C   UNL     1       6.439   5.485  19.229  0.00  0.00    +0.000 A 
ATOM     10  C   UNL     1       7.063   6.113  18.162  0.00  0.00    +0.000 A 
ATOM     11  C   UNL     1       6.290   6.707  17.180  0.00  0.00    +0.000 A 
ATOM     12  C   UNL     1       4.891   6.704  17.292  0.00  0.00    +0.000 A 
ENDBRANCH   4   7
BRANCH   4  13
ATOM     13  C   UNL     1       1.995   4.771  18.375  0.00  0.00    +0.000 C 
ATOM     14  C   UNL     1       1.520   4.192  19.743  0.00  0.00    +0.000 C 
ATOM     15  C   UNL     1       0.741   2.893  19.563  0.00  0.00    +0.000 C 
ATOM     16  C   UNL     1       1.628   1.833  18.934  0.00  0.00    +0.000 C 
ATOM     17  C   UNL     1       2.222   2.324  17.619  0.00  0.00    +0.000 C 
ATOM     18  C   UNL     1       2.913   3.692  17.738  0.00  0.00    +0.000 C 
ENDBRANCH   4  13
BRANCH   1  19
ATOM     19  C   UNL     1       0.314   9.193  19.211  0.00  0.00    +0.000 C 
BRANCH  19  21
ATOM     20  C   UNL     1      -1.454  11.052  19.153  0.00  0.00    +0.000 C 
ATOM     21  N   UNL     1      -0.138  10.582  19.759  0.00  0.00    +0.000 N 
ATOM     22  C   UNL     1       0.923  11.643  19.497  0.00  0.00    +0.000 C 
ATOM     23  C   UNL     1      -0.336  10.445  21.276  0.00  0.00    +0.000 C 
ENDBRANCH  19  21
ENDBRANCH   1  19
TORSDOF 4
ENDMDL
