MODEL 1
REMARK VINA RESULT:      -7.1      0.000      0.000
REMARK  Name = 
REMARK  10 active torsions:
REMARK  status: ('A' for Active; 'I' for Inactive)
REMARK    1  A    between atoms: C_1  and  O_2
REMARK    2  A    between atoms: O_2  and  C_3
REMARK    3  A    between atoms: C_9  and  C_10
REMARK    4  A    between atoms: C_11  and  C_12
REMARK    5  A    between atoms: C_12  and  C_13
REMARK    6  A    between atoms: C_13  and  C_14
REMARK    7  A    between atoms: C_13  and  C_15
REMARK    8  A    between atoms: N_17  and  S_18
REMARK    9  A    between atoms: S_18  and  C_19
REMARK   10  A    between atoms: C_23  and  C_25
REMARK                            x       y       z     vdW  Elec       q    Type
REMARK                         _______ _______ _______ _____ _____    ______ ____
ROOT
ATOM      1  C   UNL     1      -3.090  10.608  16.873  0.00  0.00    +0.000 A 
ATOM      2  C   UNL     1      -1.799  10.106  16.835  0.00  0.00    +0.000 A 
ATOM      3  C   UNL     1      -0.900  10.366  17.874  0.00  0.00    +0.000 A 
ATOM      4  C   UNL     1      -1.333  11.096  19.003  0.00  0.00    +0.000 A 
ATOM      5  C   UNL     1      -2.604  11.669  19.022  0.00  0.00    +0.000 A 
ATOM      6  C   UNL     1      -3.482  11.424  17.939  0.00  0.00    +0.000 A 
ATOM      7  C   UNL     1      -2.713  12.422  20.226  0.00  0.00    +0.000 A 
ATOM      8  C   UNL     1      -3.924  13.171  20.675  0.00  0.00    +0.000 C 
ATOM      9  C   UNL     1      -1.505  12.312  20.912  0.00  0.00    +0.000 A 
ATOM     10  N   UNL     1      -0.701  11.386  20.226  0.00  0.00    +0.000 N 
ATOM     11  C   UNL     1       0.512  10.789  20.683  0.00  0.00    +0.000 C 
ATOM     12  O   UNL     1       1.193  11.394  21.509  0.00  0.00    +0.000 OA
ENDROOT
BRANCH  11  13
ATOM     13  C   UNL     1       1.007   9.460  20.238  0.00  0.00    +0.000 A 
ATOM     14  C   UNL     1       0.884   8.346  21.082  0.00  0.00    +0.000 A 
ATOM     15  C   UNL     1       1.468   7.132  20.708  0.00  0.00    +0.000 A 
ATOM     16  C   UNL     1       2.162   7.035  19.501  0.00  0.00    +0.000 A 
ATOM     17 CL   UNL     1       2.973   5.576  19.090  0.00  0.00    +0.000 Cl
ATOM     18  C   UNL     1       2.223   8.121  18.631  0.00  0.00    +0.000 A 
ATOM     19  C   UNL     1       1.617   9.326  18.987  0.00  0.00    +0.000 A 
ENDBRANCH  11  13
BRANCH   1  21
ATOM     20  C   UNL     1      -3.512  10.121  14.603  0.00  0.00    +0.000 C 
ATOM     21  O   UNL     1      -4.033  10.408  15.900  0.00  0.00    +0.000 OA
ENDBRANCH   1  21
BRANCH   9  22
ATOM     22  C   UNL     1      -1.181  12.922  22.264  0.00  0.00    +0.000 C 
BRANCH  22  23
ATOM     23  C   UNL     1      -1.020  14.452  22.294  0.00  0.00    +0.000 C 
ATOM     24  C   UNL     1      -1.654  15.132  23.503  0.00  0.00    +0.000 C 
BRANCH  23  25
ATOM     25  C   UNL     1       0.461  14.818  22.273  0.00  0.00    +0.000 C 
ATOM     26  O   UNL     1       0.990  15.532  23.109  0.00  0.00    +0.000 OA
ATOM     27  N   UNL     1       1.140  14.368  21.132  0.00  0.00    +0.000 N 
ATOM     28  H   UNL     1       0.659  13.809  20.428  0.00  0.00    +0.000 HD
BRANCH  27  29
ATOM     29  S   UNL     1       2.732  14.618  20.777  0.00  0.00    +0.000 S 
ATOM     30  C   UNL     1       2.938  13.734  19.240  0.00  0.00    +0.000 C 
ATOM     31  O   UNL     1       2.965  16.028  20.561  0.00  0.00    +0.000 OA
ATOM     32  O   UNL     1       3.465  13.895  21.791  0.00  0.00    +0.000 OA
ENDBRANCH  27  29
ENDBRANCH  23  25
ENDBRANCH  22  23
ENDBRANCH   9  22
TORSDOF 6
ENDMDL
MODEL 2
REMARK VINA RESULT:      -7.0      3.956      6.718
REMARK  Name = 
REMARK  10 active torsions:
REMARK  status: ('A' for Active; 'I' for Inactive)
REMARK    1  A    between atoms: C_1  and  O_2
REMARK    2  A    between atoms: O_2  and  C_3
REMARK    3  A    between atoms: C_9  and  C_10
REMARK    4  A    between atoms: C_11  and  C_12
REMARK    5  A    between atoms: C_12  and  C_13
REMARK    6  A    between atoms: C_13  and  C_14
REMARK    7  A    between atoms: C_13  and  C_15
REMARK    8  A    between atoms: N_17  and  S_18
REMARK    9  A    between atoms: S_18  and  C_19
REMARK   10  A    between atoms: C_23  and  C_25
REMARK                            x       y       z     vdW  Elec       q    Type
REMARK                         _______ _______ _______ _____ _____    ______ ____
ROOT
ATOM      1  C   UNL     1      -3.397  11.122  16.567  0.00  0.00    +0.000 A 
ATOM      2  C   UNL     1      -4.009  11.676  17.681  0.00  0.00    +0.000 A 
ATOM      3  C   UNL     1      -3.370  11.669  18.924  0.00  0.00    +0.000 A 
ATOM      4  C   UNL     1      -2.062  11.146  19.033  0.00  0.00    +0.000 A 
ATOM      5  C   UNL     1      -1.465  10.520  17.940  0.00  0.00    +0.000 A 
ATOM      6  C   UNL     1      -2.149  10.506  16.701  0.00  0.00    +0.000 A 
ATOM      7  C   UNL     1      -0.211  10.007  18.376  0.00  0.00    +0.000 A 
ATOM      8  C   UNL     1       0.782   9.294  17.519  0.00  0.00    +0.000 C 
ATOM      9  C   UNL     1      -0.070  10.311  19.729  0.00  0.00    +0.000 A 
ATOM     10  N   UNL     1      -1.148  11.131  20.102  0.00  0.00    +0.000 N 
ATOM     11  C   UNL     1      -1.294  11.869  21.315  0.00  0.00    +0.000 C 
ATOM     12  O   UNL     1      -0.711  11.471  22.321  0.00  0.00    +0.000 OA
ENDROOT
BRANCH  11  13
ATOM     13  C   UNL     1      -2.098  13.112  21.443  0.00  0.00    +0.000 A 
ATOM     14  C   UNL     1      -3.317  13.092  22.138  0.00  0.00    +0.000 A 
ATOM     15  C   UNL     1      -4.125  14.233  22.143  0.00  0.00    +0.000 A 
ATOM     16  C   UNL     1      -3.714  15.381  21.463  0.00  0.00    +0.000 A 
ATOM     17 CL   UNL     1      -4.754  16.747  21.375  0.00  0.00    +0.000 Cl
ATOM     18  C   UNL     1      -2.472  15.423  20.834  0.00  0.00    +0.000 A 
ATOM     19  C   UNL     1      -1.650  14.297  20.851  0.00  0.00    +0.000 A 
ENDBRANCH  11  13
BRANCH   1  21
ATOM     20  C   UNL     1      -3.347  10.150  14.417  0.00  0.00    +0.000 C 
ATOM     21  O   UNL     1      -3.950  11.081  15.315  0.00  0.00    +0.000 OA
ENDBRANCH   1  21
BRANCH   9  22
ATOM     22  C   UNL     1       1.130   9.990  20.602  0.00  0.00    +0.000 C 
BRANCH  22  23
ATOM     23  C   UNL     1       1.102   8.626  21.314  0.00  0.00    +0.000 C 
ATOM     24  C   UNL     1      -0.295   8.100  21.623  0.00  0.00    +0.000 C 
BRANCH  23  25
ATOM     25  C   UNL     1       1.820   7.583  20.463  0.00  0.00    +0.000 C 
ATOM     26  O   UNL     1       2.374   7.842  19.408  0.00  0.00    +0.000 OA
ATOM     27  N   UNL     1       1.676   6.270  20.934  0.00  0.00    +0.000 N 
ATOM     28  H   UNL     1       1.168   6.081  21.798  0.00  0.00    +0.000 HD
BRANCH  27  29
ATOM     29  S   UNL     1       2.290   4.906  20.236  0.00  0.00    +0.000 S 
ATOM     30  C   UNL     1       2.137   3.694  21.538  0.00  0.00    +0.000 C 
ATOM     31  O   UNL     1       1.466   4.522  19.114  0.00  0.00    +0.000 OA
ATOM     32  O   UNL     1       3.700   5.173  20.061  0.00  0.00    +0.000 OA
ENDBRANCH  27  29
ENDBRANCH  23  25
ENDBRANCH  22  23
ENDBRANCH   9  22
TORSDOF 6
ENDMDL
MODEL 3
REMARK VINA RESULT:      -6.9      0.957      1.044
REMARK  Name = 
REMARK  10 active torsions:
REMARK  status: ('A' for Active; 'I' for Inactive)
REMARK    1  A    between atoms: C_1  and  O_2
REMARK    2  A    between atoms: O_2  and  C_3
REMARK    3  A    between atoms: C_9  and  C_10
REMARK    4  A    between atoms: C_11  and  C_12
REMARK    5  A    between atoms: C_12  and  C_13
REMARK    6  A    between atoms: C_13  and  C_14
REMARK    7  A    between atoms: C_13  and  C_15
REMARK    8  A    between atoms: N_17  and  S_18
REMARK    9  A    between atoms: S_18  and  C_19
REMARK   10  A    between atoms: C_23  and  C_25
REMARK                            x       y       z     vdW  Elec       q    Type
REMARK                         _______ _______ _______ _____ _____    ______ ____
ROOT
ATOM      1  C   UNL     1      -3.125  10.599  16.955  0.00  0.00    +0.000 A 
ATOM      2  C   UNL     1      -1.838  10.092  16.885  0.00  0.00    +0.000 A 
ATOM      3  C   UNL     1      -0.912  10.350  17.901  0.00  0.00    +0.000 A 
ATOM      4  C   UNL     1      -1.313  11.084  19.039  0.00  0.00    +0.000 A 
ATOM      5  C   UNL     1      -2.581  11.662  19.089  0.00  0.00    +0.000 A 
ATOM      6  C   UNL     1      -3.487  11.419  18.029  0.00  0.00    +0.000 A 
ATOM      7  C   UNL     1      -2.656  12.417  20.294  0.00  0.00    +0.000 A 
ATOM      8  C   UNL     1      -3.852  13.172  20.772  0.00  0.00    +0.000 C 
ATOM      9  C   UNL     1      -1.432  12.303  20.949  0.00  0.00    +0.000 A 
ATOM     10  N   UNL     1      -0.649  11.373  20.245  0.00  0.00    +0.000 N 
ATOM     11  C   UNL     1       0.572  10.771  20.672  0.00  0.00    +0.000 C 
ATOM     12  O   UNL     1       1.276  11.375  21.480  0.00  0.00    +0.000 OA
ENDROOT
BRANCH  11  13
ATOM     13  C   UNL     1       1.051   9.440  20.217  0.00  0.00    +0.000 A 
ATOM     14  C   UNL     1       0.940   8.326  21.063  0.00  0.00    +0.000 A 
ATOM     15  C   UNL     1       1.508   7.109  20.677  0.00  0.00    +0.000 A 
ATOM     16  C   UNL     1       2.177   7.008  19.456  0.00  0.00    +0.000 A 
ATOM     17 CL   UNL     1       2.970   5.545  19.028  0.00  0.00    +0.000 Cl
ATOM     18  C   UNL     1       2.225   8.094  18.585  0.00  0.00    +0.000 A 
ATOM     19  C   UNL     1       1.634   9.302  18.953  0.00  0.00    +0.000 A 
ENDBRANCH  11  13
BRANCH   1  21
ATOM     20  C   UNL     1      -3.608  10.178  14.683  0.00  0.00    +0.000 C 
ATOM     21  O   UNL     1      -4.093  10.402  16.006  0.00  0.00    +0.000 OA
ENDBRANCH   1  21
BRANCH   9  22
ATOM     22  C   UNL     1      -1.071  12.914  22.291  0.00  0.00    +0.000 C 
BRANCH  22  23
ATOM     23  C   UNL     1      -0.858  14.438  22.306  0.00  0.00    +0.000 C 
ATOM     24  C   UNL     1      -0.980  15.082  23.683  0.00  0.00    +0.000 C 
BRANCH  23  25
ATOM     25  C   UNL     1       0.523  14.773  21.752  0.00  0.00    +0.000 C 
ATOM     26  O   UNL     1       1.564  14.492  22.323  0.00  0.00    +0.000 OA
ATOM     27  N   UNL     1       0.493  15.553  20.586  0.00  0.00    +0.000 N 
ATOM     28  H   UNL     1      -0.395  15.809  20.156  0.00  0.00    +0.000 HD
BRANCH  27  29
ATOM     29  S   UNL     1       1.800  16.117  19.752  0.00  0.00    +0.000 S 
ATOM     30  C   UNL     1       1.050  16.948  18.361  0.00  0.00    +0.000 C 
ATOM     31  O   UNL     1       2.516  17.075  20.563  0.00  0.00    +0.000 OA
ATOM     32  O   UNL     1       2.463  14.938  19.242  0.00  0.00    +0.000 OA
ENDBRANCH  27  29
ENDBRANCH  23  25
ENDBRANCH  22  23
ENDBRANCH   9  22
TORSDOF 6
ENDMDL
MODEL 4
REMARK VINA RESULT:      -6.8      3.960      6.757
REMARK  Name = 
REMARK  10 active torsions:
REMARK  status: ('A' for Active; 'I' for Inactive)
REMARK    1  A    between atoms: C_1  and  O_2
REMARK    2  A    between atoms: O_2  and  C_3
REMARK    3  A    between atoms: C_9  and  C_10
REMARK    4  A    between atoms: C_11  and  C_12
REMARK    5  A    between atoms: C_12  and  C_13
REMARK    6  A    between atoms: C_13  and  C_14
REMARK    7  A    between atoms: C_13  and  C_15
REMARK    8  A    between atoms: N_17  and  S_18
REMARK    9  A    between atoms: S_18  and  C_19
REMARK   10  A    between atoms: C_23  and  C_25
REMARK                            x       y       z     vdW  Elec       q    Type
REMARK                         _______ _______ _______ _____ _____    ______ ____
ROOT
ATOM      1  C   UNL     1      -4.845  12.272  18.843  0.00  0.00    +0.000 A 
ATOM      2  C   UNL     1      -4.590  12.873  20.065  0.00  0.00    +0.000 A 
ATOM      3  C   UNL     1      -3.355  12.709  20.699  0.00  0.00    +0.000 A 
ATOM      4  C   UNL     1      -2.335  11.972  20.058  0.00  0.00    +0.000 A 
ATOM      5  C   UNL     1      -2.600  11.300  18.865  0.00  0.00    +0.000 A 
ATOM      6  C   UNL     1      -3.872  11.451  18.263  0.00  0.00    +0.000 A 
ATOM      7  C   UNL     1      -1.429  10.568  18.520  0.00  0.00    +0.000 A 
ATOM      8  C   UNL     1      -1.255   9.735  17.293  0.00  0.00    +0.000 C 
ATOM      9  C   UNL     1      -0.477  10.789  19.513  0.00  0.00    +0.000 A 
ATOM     10  N   UNL     1      -0.985  11.760  20.391  0.00  0.00    +0.000 N 
ATOM     11  C   UNL     1      -0.274  12.461  21.410  0.00  0.00    +0.000 C 
ATOM     12  O   UNL     1       0.716  11.931  21.911  0.00  0.00    +0.000 OA
ENDROOT
BRANCH  11  13
ATOM     13  C   UNL     1      -0.640  13.815  21.903  0.00  0.00    +0.000 A 
ATOM     14  C   UNL     1      -1.149  13.977  23.200  0.00  0.00    +0.000 A 
ATOM     15  C   UNL     1      -1.610  15.232  23.607  0.00  0.00    +0.000 A 
ATOM     16  C   UNL     1      -1.557  16.313  22.726  0.00  0.00    +0.000 A 
ATOM     17 CL   UNL     1      -2.222  17.830  23.184  0.00  0.00    +0.000 Cl
ATOM     18  C   UNL     1      -0.986  16.169  21.463  0.00  0.00    +0.000 A 
ATOM     19  C   UNL     1      -0.498  14.925  21.064  0.00  0.00    +0.000 A 
ENDBRANCH  11  13
BRANCH   1  21
ATOM     20  C   UNL     1      -6.954  11.317  18.385  0.00  0.00    +0.000 C 
ATOM     21  O   UNL     1      -6.024  12.374  18.155  0.00  0.00    +0.000 OA
ENDBRANCH   1  21
BRANCH   9  22
ATOM     22  C   UNL     1       0.937  10.236  19.541  0.00  0.00    +0.000 C 
BRANCH  22  23
ATOM     23  C   UNL     1       1.185   9.058  20.499  0.00  0.00    +0.000 C 
ATOM     24  C   UNL     1      -0.072   8.503  21.160  0.00  0.00    +0.000 C 
BRANCH  23  25
ATOM     25  C   UNL     1       1.866   7.916  19.751  0.00  0.00    +0.000 C 
ATOM     26  O   UNL     1       2.263   8.008  18.601  0.00  0.00    +0.000 OA
ATOM     27  N   UNL     1       1.879   6.704  20.456  0.00  0.00    +0.000 N 
ATOM     28  H   UNL     1       1.500   6.649  21.401  0.00  0.00    +0.000 HD
BRANCH  27  29
ATOM     29  S   UNL     1       2.502   5.270  19.927  0.00  0.00    +0.000 S 
ATOM     30  C   UNL     1       2.248   4.190  21.326  0.00  0.00    +0.000 C 
ATOM     31  O   UNL     1       1.733   4.795  18.800  0.00  0.00    +0.000 OA
ATOM     32  O   UNL     1       3.925   5.495  19.809  0.00  0.00    +0.000 OA
ENDBRANCH  27  29
ENDBRANCH  23  25
ENDBRANCH  22  23
ENDBRANCH   9  22
TORSDOF 6
ENDMDL
MODEL 5
REMARK VINA RESULT:      -6.6      1.728      2.112
REMARK  Name = 
REMARK  10 active torsions:
REMARK  status: ('A' for Active; 'I' for Inactive)
REMARK    1  A    between atoms: C_1  and  O_2
REMARK    2  A    between atoms: O_2  and  C_3
REMARK    3  A    between atoms: C_9  and  C_10
REMARK    4  A    between atoms: C_11  and  C_12
REMARK    5  A    between atoms: C_12  and  C_13
REMARK    6  A    between atoms: C_13  and  C_14
REMARK    7  A    between atoms: C_13  and  C_15
REMARK    8  A    between atoms: N_17  and  S_18
REMARK    9  A    between atoms: S_18  and  C_19
REMARK   10  A    between atoms: C_23  and  C_25
REMARK                            x       y       z     vdW  Elec       q    Type
REMARK                         _______ _______ _______ _____ _____    ______ ____
ROOT
ATOM      1  C   UNL     1      -3.956  11.159  18.163  0.00  0.00    +0.000 A 
ATOM      2  C   UNL     1      -2.788  10.648  17.621  0.00  0.00    +0.000 A 
ATOM      3  C   UNL     1      -1.540  11.041  18.114  0.00  0.00    +0.000 A 
ATOM      4  C   UNL     1      -1.471  11.921  19.215  0.00  0.00    +0.000 A 
ATOM      5  C   UNL     1      -2.633  12.500  19.723  0.00  0.00    +0.000 A 
ATOM      6  C   UNL     1      -3.883  12.116  19.181  0.00  0.00    +0.000 A 
ATOM      7  C   UNL     1      -2.243  13.411  20.746  0.00  0.00    +0.000 A 
ATOM      8  C   UNL     1      -3.172  14.223  21.587  0.00  0.00    +0.000 C 
ATOM      9  C   UNL     1      -0.852  13.387  20.834  0.00  0.00    +0.000 A 
ATOM     10  N   UNL     1      -0.383  12.370  19.986  0.00  0.00    +0.000 N 
ATOM     11  C   UNL     1       0.938  11.833  19.929  0.00  0.00    +0.000 C 
ATOM     12  O   UNL     1       1.878  12.540  20.286  0.00  0.00    +0.000 OA
ENDROOT
BRANCH  11  13
ATOM     13  C   UNL     1       1.258  10.452  19.481  0.00  0.00    +0.000 A 
ATOM     14  C   UNL     1       1.109   9.374  20.366  0.00  0.00    +0.000 A 
ATOM     15  C   UNL     1       1.535   8.100  19.978  0.00  0.00    +0.000 A 
ATOM     16  C   UNL     1       2.099   7.909  18.715  0.00  0.00    +0.000 A 
ATOM     17 CL   UNL     1       2.723   6.369  18.276  0.00  0.00    +0.000 Cl
ATOM     18  C   UNL     1       2.181   8.965  17.811  0.00  0.00    +0.000 A 
ATOM     19  C   UNL     1       1.731  10.231  18.184  0.00  0.00    +0.000 A 
ENDBRANCH  11  13
BRANCH   1  21
ATOM     20  C   UNL     1      -6.122  11.934  17.637  0.00  0.00    +0.000 C 
ATOM     21  O   UNL     1      -5.218  10.836  17.741  0.00  0.00    +0.000 OA
ENDBRANCH   1  21
BRANCH   9  22
ATOM     22  C   UNL     1      -0.001  14.173  21.815  0.00  0.00    +0.000 C 
BRANCH  22  23
ATOM     23  C   UNL     1       0.166  15.673  21.515  0.00  0.00    +0.000 C 
ATOM     24  C   UNL     1       0.972  16.442  22.556  0.00  0.00    +0.000 C 
BRANCH  23  25
ATOM     25  C   UNL     1       0.848  15.858  20.163  0.00  0.00    +0.000 C 
ATOM     26  O   UNL     1       0.242  16.094  19.131  0.00  0.00    +0.000 OA
ATOM     27  N   UNL     1       2.227  15.604  20.183  0.00  0.00    +0.000 N 
ATOM     28  H   UNL     1       2.698  15.365  21.055  0.00  0.00    +0.000 HD
BRANCH  27  29
ATOM     29  S   UNL     1       3.255  15.676  18.894  0.00  0.00    +0.000 S 
ATOM     30  C   UNL     1       4.817  15.186  19.608  0.00  0.00    +0.000 C 
ATOM     31  O   UNL     1       2.852  14.712  17.897  0.00  0.00    +0.000 OA
ATOM     32  O   UNL     1       3.353  17.081  18.567  0.00  0.00    +0.000 OA
ENDBRANCH  27  29
ENDBRANCH  23  25
ENDBRANCH  22  23
ENDBRANCH   9  22
TORSDOF 6
ENDMDL
MODEL 6
REMARK VINA RESULT:      -6.6      3.723      5.643
REMARK  Name = 
REMARK  10 active torsions:
REMARK  status: ('A' for Active; 'I' for Inactive)
REMARK    1  A    between atoms: C_1  and  O_2
REMARK    2  A    between atoms: O_2  and  C_3
REMARK    3  A    between atoms: C_9  and  C_10
REMARK    4  A    between atoms: C_11  and  C_12
REMARK    5  A    between atoms: C_12  and  C_13
REMARK    6  A    between atoms: C_13  and  C_14
REMARK    7  A    between atoms: C_13  and  C_15
REMARK    8  A    between atoms: N_17  and  S_18
REMARK    9  A    between atoms: S_18  and  C_19
REMARK   10  A    between atoms: C_23  and  C_25
REMARK                            x       y       z     vdW  Elec       q    Type
REMARK                         _______ _______ _______ _____ _____    ______ ____
ROOT
ATOM      1  C   UNL     1       2.121  14.865  19.060  0.00  0.00    +0.000 A 
ATOM      2  C   UNL     1       2.609  13.597  19.337  0.00  0.00    +0.000 A 
ATOM      3  C   UNL     1       1.835  12.673  20.045  0.00  0.00    +0.000 A 
ATOM      4  C   UNL     1       0.520  13.014  20.429  0.00  0.00    +0.000 A 
ATOM      5  C   UNL     1       0.043  14.308  20.223  0.00  0.00    +0.000 A 
ATOM      6  C   UNL     1       0.861  15.238  19.538  0.00  0.00    +0.000 A 
ATOM      7  C   UNL     1      -1.256  14.380  20.801  0.00  0.00    +0.000 A 
ATOM      8  C   UNL     1      -2.153  15.574  20.777  0.00  0.00    +0.000 C 
ATOM      9  C   UNL     1      -1.544  13.139  21.365  0.00  0.00    +0.000 A 
ATOM     10  N   UNL     1      -0.508  12.256  21.019  0.00  0.00    +0.000 N 
ATOM     11  C   UNL     1      -0.492  10.837  21.175  0.00  0.00    +0.000 C 
ATOM     12  O   UNL     1      -1.187  10.333  22.055  0.00  0.00    +0.000 OA
ENDROOT
BRANCH  11  13
ATOM     13  C   UNL     1       0.302   9.913  20.324  0.00  0.00    +0.000 A 
ATOM     14  C   UNL     1       1.079   8.906  20.916  0.00  0.00    +0.000 A 
ATOM     15  C   UNL     1       1.921   8.127  20.118  0.00  0.00    +0.000 A 
ATOM     16  C   UNL     1       1.980   8.351  18.741  0.00  0.00    +0.000 A 
ATOM     17 CL   UNL     1       3.093   7.470  17.773  0.00  0.00    +0.000 Cl
ATOM     18  C   UNL     1       1.155   9.302  18.144  0.00  0.00    +0.000 A 
ATOM     19  C   UNL     1       0.293  10.062  18.934  0.00  0.00    +0.000 A 
ENDBRANCH  11  13
BRANCH   1  21
ATOM     20  C   UNL     1       2.018  16.921  17.906  0.00  0.00    +0.000 C 
ATOM     21  O   UNL     1       2.810  15.833  18.379  0.00  0.00    +0.000 OA
ENDBRANCH   1  21
BRANCH   9  22
ATOM     22  C   UNL     1      -2.836  12.745  22.058  0.00  0.00    +0.000 C 
BRANCH  22  23
ATOM     23  C   UNL     1      -2.816  12.776  23.596  0.00  0.00    +0.000 C 
ATOM     24  C   UNL     1      -2.219  14.044  24.197  0.00  0.00    +0.000 C 
BRANCH  23  25
ATOM     25  C   UNL     1      -4.235  12.624  24.136  0.00  0.00    +0.000 C 
ATOM     26  O   UNL     1      -4.486  12.246  25.268  0.00  0.00    +0.000 OA
ATOM     27  N   UNL     1      -5.233  12.832  23.174  0.00  0.00    +0.000 N 
ATOM     28  H   UNL     1      -4.989  13.105  22.223  0.00  0.00    +0.000 HD
BRANCH  27  29
ATOM     29  S   UNL     1      -6.862  12.712  23.411  0.00  0.00    +0.000 S 
ATOM     30  C   UNL     1      -7.515  12.892  21.759  0.00  0.00    +0.000 C 
ATOM     31  O   UNL     1      -7.183  11.399  23.921  0.00  0.00    +0.000 OA
ATOM     32  O   UNL     1      -7.226  13.901  24.149  0.00  0.00    +0.000 OA
ENDBRANCH  27  29
ENDBRANCH  23  25
ENDBRANCH  22  23
ENDBRANCH   9  22
TORSDOF 6
ENDMDL
MODEL 7
REMARK VINA RESULT:      -6.6      3.966      6.799
REMARK  Name = 
REMARK  10 active torsions:
REMARK  status: ('A' for Active; 'I' for Inactive)
REMARK    1  A    between atoms: C_1  and  O_2
REMARK    2  A    between atoms: O_2  and  C_3
REMARK    3  A    between atoms: C_9  and  C_10
REMARK    4  A    between atoms: C_11  and  C_12
REMARK    5  A    between atoms: C_12  and  C_13
REMARK    6  A    between atoms: C_13  and  C_14
REMARK    7  A    between atoms: C_13  and  C_15
REMARK    8  A    between atoms: N_17  and  S_18
REMARK    9  A    between atoms: S_18  and  C_19
REMARK   10  A    between atoms: C_23  and  C_25
REMARK                            x       y       z     vdW  Elec       q    Type
REMARK                         _______ _______ _______ _____ _____    ______ ____
ROOT
ATOM      1  C   UNL     1      -4.227  11.876  17.895  0.00  0.00    +0.000 A 
ATOM      2  C   UNL     1      -4.467  12.400  19.156  0.00  0.00    +0.000 A 
ATOM      3  C   UNL     1      -3.531  12.247  20.183  0.00  0.00    +0.000 A 
ATOM      4  C   UNL     1      -2.302  11.605  19.917  0.00  0.00    +0.000 A 
ATOM      5  C   UNL     1      -2.077  11.009  18.676  0.00  0.00    +0.000 A 
ATOM      6  C   UNL     1      -3.058  11.144  17.664  0.00  0.00    +0.000 A 
ATOM      7  C   UNL     1      -0.813  10.358  18.740  0.00  0.00    +0.000 A 
ATOM      8  C   UNL     1      -0.157   9.624  17.617  0.00  0.00    +0.000 C 
ATOM      9  C   UNL     1      -0.295  10.550  20.019  0.00  0.00    +0.000 A 
ATOM     10  N   UNL     1      -1.149  11.432  20.703  0.00  0.00    +0.000 N 
ATOM     11  C   UNL     1      -0.898  12.090  21.944  0.00  0.00    +0.000 C 
ATOM     12  O   UNL     1      -0.118  11.570  22.740  0.00  0.00    +0.000 OA
ENDROOT
BRANCH  11  13
ATOM     13  C   UNL     1      -1.507  13.387  22.339  0.00  0.00    +0.000 A 
ATOM     14  C   UNL     1      -1.134  14.568  21.680  0.00  0.00    +0.000 A 
ATOM     15  C   UNL     1      -1.615  15.796  22.144  0.00  0.00    +0.000 A 
ATOM     16  C   UNL     1      -2.462  15.839  23.252  0.00  0.00    +0.000 A 
ATOM     17 CL   UNL     1      -2.966  17.353  23.891  0.00  0.00    +0.000 Cl
ATOM     18  C   UNL     1      -2.888  14.661  23.862  0.00  0.00    +0.000 A 
ATOM     19  C   UNL     1      -2.434  13.432  23.385  0.00  0.00    +0.000 A 
ENDBRANCH  11  13
BRANCH   1  21
ATOM     20  C   UNL     1      -6.314  12.649  17.109  0.00  0.00    +0.000 C 
ATOM     21  O   UNL     1      -5.087  11.974  16.834  0.00  0.00    +0.000 OA
ENDBRANCH   1  21
BRANCH   9  22
ATOM     22  C   UNL     1       1.050  10.062  20.527  0.00  0.00    +0.000 C 
BRANCH  22  23
ATOM     23  C   UNL     1       1.056   8.683  21.211  0.00  0.00    +0.000 C 
ATOM     24  C   UNL     1      -0.328   8.103  21.480  0.00  0.00    +0.000 C 
BRANCH  23  25
ATOM     25  C   UNL     1       1.825   7.683  20.354  0.00  0.00    +0.000 C 
ATOM     26  O   UNL     1       2.235   7.933  19.232  0.00  0.00    +0.000 OA
ATOM     27  N   UNL     1       1.910   6.401  20.916  0.00  0.00    +0.000 N 
ATOM     28  H   UNL     1       1.519   6.212  21.838  0.00  0.00    +0.000 HD
BRANCH  27  29
ATOM     29  S   UNL     1       2.638   5.082  20.242  0.00  0.00    +0.000 S 
ATOM     30  C   UNL     1       1.590   4.726  18.841  0.00  0.00    +0.000 C 
ATOM     31  O   UNL     1       3.960   5.441  19.782  0.00  0.00    +0.000 OA
ATOM     32  O   UNL     1       2.452   4.016  21.201  0.00  0.00    +0.000 OA
ENDBRANCH  27  29
ENDBRANCH  23  25
ENDBRANCH  22  23
ENDBRANCH   9  22
TORSDOF 6
ENDMDL
MODEL 8
REMARK VINA RESULT:      -6.5      1.356      1.584
REMARK  Name = 
REMARK  10 active torsions:
REMARK  status: ('A' for Active; 'I' for Inactive)
REMARK    1  A    between atoms: C_1  and  O_2
REMARK    2  A    between atoms: O_2  and  C_3
REMARK    3  A    between atoms: C_9  and  C_10
REMARK    4  A    between atoms: C_11  and  C_12
REMARK    5  A    between atoms: C_12  and  C_13
REMARK    6  A    between atoms: C_13  and  C_14
REMARK    7  A    between atoms: C_13  and  C_15
REMARK    8  A    between atoms: N_17  and  S_18
REMARK    9  A    between atoms: S_18  and  C_19
REMARK   10  A    between atoms: C_23  and  C_25
REMARK                            x       y       z     vdW  Elec       q    Type
REMARK                         _______ _______ _______ _____ _____    ______ ____
ROOT
ATOM      1  C   UNL     1      -3.913  11.154  17.929  0.00  0.00    +0.000 A 
ATOM      2  C   UNL     1      -2.684  10.715  17.464  0.00  0.00    +0.000 A 
ATOM      3  C   UNL     1      -1.505  11.038  18.143  0.00  0.00    +0.000 A 
ATOM      4  C   UNL     1      -1.574  11.769  19.349  0.00  0.00    +0.000 A 
ATOM      5  C   UNL     1      -2.794  12.280  19.790  0.00  0.00    +0.000 A 
ATOM      6  C   UNL     1      -3.969  11.972  19.063  0.00  0.00    +0.000 A 
ATOM      7  C   UNL     1      -2.535  13.050  20.959  0.00  0.00    +0.000 A 
ATOM      8  C   UNL     1      -3.565  13.749  21.785  0.00  0.00    +0.000 C 
ATOM      9  C   UNL     1      -1.164  13.013  21.203  0.00  0.00    +0.000 A 
ATOM     10  N   UNL     1      -0.587  12.113  20.291  0.00  0.00    +0.000 N 
ATOM     11  C   UNL     1       0.738  11.585  20.318  0.00  0.00    +0.000 C 
ATOM     12  O   UNL     1       1.623  12.238  20.868  0.00  0.00    +0.000 OA
ENDROOT
BRANCH  11  13
ATOM     13  C   UNL     1       1.125  10.273  19.736  0.00  0.00    +0.000 A 
ATOM     14  C   UNL     1       1.067   9.112  20.521  0.00  0.00    +0.000 A 
ATOM     15  C   UNL     1       1.555   7.907  20.006  0.00  0.00    +0.000 A 
ATOM     16  C   UNL     1       2.091   7.867  18.718  0.00  0.00    +0.000 A 
ATOM     17 CL   UNL     1       2.790   6.414  18.122  0.00  0.00    +0.000 Cl
ATOM     18  C   UNL     1       2.083   9.004  17.913  0.00  0.00    +0.000 A 
ATOM     19  C   UNL     1       1.571  10.200  18.413  0.00  0.00    +0.000 A 
ENDBRANCH  11  13
BRANCH   1  21
ATOM     20  C   UNL     1      -6.265  11.159  18.126  0.00  0.00    +0.000 C 
ATOM     21  O   UNL     1      -5.114  10.890  17.327  0.00  0.00    +0.000 OA
ENDBRANCH   1  21
BRANCH   9  22
ATOM     22  C   UNL     1      -0.440  13.664  22.367  0.00  0.00    +0.000 C 
BRANCH  22  23
ATOM     23  C   UNL     1      -0.077  15.150  22.193  0.00  0.00    +0.000 C 
ATOM     24  C   UNL     1      -0.324  16.011  23.426  0.00  0.00    +0.000 C 
BRANCH  23  25
ATOM     25  C   UNL     1       1.395  15.282  21.815  0.00  0.00    +0.000 C 
ATOM     26  O   UNL     1       2.311  15.084  22.596  0.00  0.00    +0.000 OA
ATOM     27  N   UNL     1       1.606  15.780  20.521  0.00  0.00    +0.000 N 
ATOM     28  H   UNL     1       0.817  15.978  19.906  0.00  0.00    +0.000 HD
BRANCH  27  29
ATOM     29  S   UNL     1       3.066  16.077  19.811  0.00  0.00    +0.000 S 
ATOM     30  C   UNL     1       2.606  16.607  18.169  0.00  0.00    +0.000 C 
ATOM     31  O   UNL     1       3.730  17.158  20.503  0.00  0.00    +0.000 OA
ATOM     32  O   UNL     1       3.695  14.782  19.685  0.00  0.00    +0.000 OA
ENDBRANCH  27  29
ENDBRANCH  23  25
ENDBRANCH  22  23
ENDBRANCH   9  22
TORSDOF 6
ENDMDL
MODEL 9
REMARK VINA RESULT:      -6.5      1.847      2.189
REMARK  Name = 
REMARK  10 active torsions:
REMARK  status: ('A' for Active; 'I' for Inactive)
REMARK    1  A    between atoms: C_1  and  O_2
REMARK    2  A    between atoms: O_2  and  C_3
REMARK    3  A    between atoms: C_9  and  C_10
REMARK    4  A    between atoms: C_11  and  C_12
REMARK    5  A    between atoms: C_12  and  C_13
REMARK    6  A    between atoms: C_13  and  C_14
REMARK    7  A    between atoms: C_13  and  C_15
REMARK    8  A    between atoms: N_17  and  S_18
REMARK    9  A    between atoms: S_18  and  C_19
REMARK   10  A    between atoms: C_23  and  C_25
REMARK                            x       y       z     vdW  Elec       q    Type
REMARK                         _______ _______ _______ _____ _____    ______ ____
ROOT
ATOM      1  C   UNL     1      -3.945  10.796  18.352  0.00  0.00    +0.000 A 
ATOM      2  C   UNL     1      -2.840  10.182  17.783  0.00  0.00    +0.000 A 
ATOM      3  C   UNL     1      -1.550  10.664  18.027  0.00  0.00    +0.000 A 
ATOM      4  C   UNL     1      -1.367  11.750  18.911  0.00  0.00    +0.000 A 
ATOM      5  C   UNL     1      -2.472  12.422  19.432  0.00  0.00    +0.000 A 
ATOM      6  C   UNL     1      -3.770  11.939  19.138  0.00  0.00    +0.000 A 
ATOM      7  C   UNL     1      -1.981  13.521  20.193  0.00  0.00    +0.000 A 
ATOM      8  C   UNL     1      -2.819  14.489  20.962  0.00  0.00    +0.000 C 
ATOM      9  C   UNL     1      -0.590  13.512  20.111  0.00  0.00    +0.000 A 
ATOM     10  N   UNL     1      -0.204  12.343  19.433  0.00  0.00    +0.000 N 
ATOM     11  C   UNL     1       1.112  11.802  19.323  0.00  0.00    +0.000 C 
ATOM     12  O   UNL     1       2.072  12.565  19.409  0.00  0.00    +0.000 OA
ENDROOT
BRANCH  11  13
ATOM     13  C   UNL     1       1.407  10.359  19.126  0.00  0.00    +0.000 A 
ATOM     14  C   UNL     1       1.176   9.447  20.167  0.00  0.00    +0.000 A 
ATOM     15  C   UNL     1       1.577   8.116  20.018  0.00  0.00    +0.000 A 
ATOM     16  C   UNL     1       2.197   7.704  18.837  0.00  0.00    +0.000 A 
ATOM     17 CL   UNL     1       2.789   6.096  18.692  0.00  0.00    +0.000 Cl
ATOM     18  C   UNL     1       2.361   8.592  17.777  0.00  0.00    +0.000 A 
ATOM     19  C   UNL     1       1.936   9.914  17.911  0.00  0.00    +0.000 A 
ENDBRANCH  11  13
BRANCH   1  21
ATOM     20  C   UNL     1      -6.150  11.436  17.808  0.00  0.00    +0.000 C 
ATOM     21  O   UNL     1      -5.241  10.396  18.164  0.00  0.00    +0.000 OA
ENDBRANCH   1  21
BRANCH   9  22
ATOM     22  C   UNL     1       0.357  14.479  20.799  0.00  0.00    +0.000 C 
BRANCH  22  23
ATOM     23  C   UNL     1       0.619  15.807  20.065  0.00  0.00    +0.000 C 
ATOM     24  C   UNL     1      -0.245  16.971  20.534  0.00  0.00    +0.000 C 
BRANCH  23  25
ATOM     25  C   UNL     1       2.081  16.210  20.231  0.00  0.00    +0.000 C 
ATOM     26  O   UNL     1       2.457  17.073  21.007  0.00  0.00    +0.000 OA
ATOM     27  N   UNL     1       2.948  15.592  19.318  0.00  0.00    +0.000 N 
ATOM     28  H   UNL     1       2.596  14.905  18.652  0.00  0.00    +0.000 HD
BRANCH  27  29
ATOM     29  S   UNL     1       4.577  15.828  19.199  0.00  0.00    +0.000 S 
ATOM     30  C   UNL     1       5.021  14.817  17.797  0.00  0.00    +0.000 C 
ATOM     31  O   UNL     1       4.845  17.216  18.902  0.00  0.00    +0.000 OA
ATOM     32  O   UNL     1       5.137  15.202  20.376  0.00  0.00    +0.000 OA
ENDBRANCH  27  29
ENDBRANCH  23  25
ENDBRANCH  22  23
ENDBRANCH   9  22
TORSDOF 6
ENDMDL
