MODEL 1
REMARK VINA RESULT:      -7.6      0.000      0.000
REMARK  Name = 
REMARK  5 active torsions:
REMARK  status: ('A' for Active; 'I' for Inactive)
REMARK    1  A    between atoms: C_1  and  C_2
REMARK    2  A    between atoms: C_3  and  C_4
REMARK    3  A    between atoms: C_4  and  O_6
REMARK    4  A    between atoms: C_18  and  C_19
REMARK    5  A    between atoms: C_18  and  C_20
REMARK                            x       y       z     vdW  Elec       q    Type
REMARK                         _______ _______ _______ _____ _____    ______ ____
ROOT
ATOM      1  C   UNL     1       1.825   9.674  17.859  0.00  0.00    +0.000 C 
ATOM      2  C   UNL     1       1.421   9.180  19.208  0.00  0.00    +0.000 A 
ATOM      3  C   UNL     1       0.561   9.722  20.160  0.00  0.00    +0.000 A 
ATOM      4  C   UNL     1       0.575   8.762  21.197  0.00  0.00    +0.000 A 
ATOM      5  N   UNL     1       1.340   7.701  20.939  0.00  0.00    +0.000 NA
ATOM      6  N   UNL     1       1.873   7.964  19.709  0.00  0.00    +0.000 N 
ATOM      7  C   UNL     1       2.740   7.022  19.112  0.00  0.00    +0.000 A 
ATOM      8  N   UNL     1       3.355   7.239  17.992  0.00  0.00    +0.000 NA
ATOM      9  C   UNL     1       4.136   6.215  17.556  0.00  0.00    +0.000 A 
ATOM     10  C   UNL     1       4.272   5.024  18.138  0.00  0.00    +0.000 A 
ATOM     11  C   UNL     1       3.555   4.776  19.393  0.00  0.00    +0.000 A 
ATOM     12  O   UNL     1       3.603   3.704  19.979  0.00  0.00    +0.000 OA
ATOM     13  N   UNL     1       2.833   5.855  19.839  0.00  0.00    +0.000 N 
ATOM     14  C   UNL     1       5.189   4.110  17.413  0.00  0.00    +0.000 C 
ATOM     15  C   UNL     1       5.690   4.977  16.215  0.00  0.00    +0.000 C 
ATOM     16  C   UNL     1       5.355   4.317  14.868  0.00  0.00    +0.000 C 
ATOM     17  C   UNL     1       7.211   5.187  16.289  0.00  0.00    +0.000 C 
ATOM     18  C   UNL     1       4.961   6.344  16.324  0.00  0.00    +0.000 C 
ATOM     19  H   UNL     1       2.305   5.772  20.700  0.00  0.00    +0.000 HD
ENDROOT
BRANCH   3  20
ATOM     20  C   UNL     1      -0.171  10.981  20.056  0.00  0.00    +0.000 C 
ATOM     21  O   UNL     1      -1.332  11.065  19.680  0.00  0.00    +0.000 OA
BRANCH  20  22
ATOM     22  O   UNL     1       0.512  12.095  20.417  0.00  0.00    +0.000 OA
ATOM     23  H   UNL     1       0.035  12.710  20.993  0.00  0.00    +0.000 HD
ENDBRANCH  20  22
ENDBRANCH   3  20
TORSDOF 2
ENDMDL
MODEL 2
REMARK VINA RESULT:      -7.4      2.155      6.835
REMARK  Name = 
REMARK  5 active torsions:
REMARK  status: ('A' for Active; 'I' for Inactive)
REMARK    1  A    between atoms: C_1  and  C_2
REMARK    2  A    between atoms: C_3  and  C_4
REMARK    3  A    between atoms: C_4  and  O_6
REMARK    4  A    between atoms: C_18  and  C_19
REMARK    5  A    between atoms: C_18  and  C_20
REMARK                            x       y       z     vdW  Elec       q    Type
REMARK                         _______ _______ _______ _____ _____    ______ ____
ROOT
ATOM      1  C   UNL     1       4.675   6.921  16.462  0.00  0.00    +0.000 C 
ATOM      2  C   UNL     1       4.684   5.914  17.563  0.00  0.00    +0.000 A 
ATOM      3  C   UNL     1       5.459   4.772  17.749  0.00  0.00    +0.000 A 
ATOM      4  C   UNL     1       5.015   4.275  18.995  0.00  0.00    +0.000 A 
ATOM      5  N   UNL     1       4.072   5.024  19.568  0.00  0.00    +0.000 NA
ATOM      6  N   UNL     1       3.860   6.036  18.676  0.00  0.00    +0.000 N 
ATOM      7  C   UNL     1       2.914   7.041  18.977  0.00  0.00    +0.000 A 
ATOM      8  N   UNL     1       2.591   7.979  18.143  0.00  0.00    +0.000 NA
ATOM      9  C   UNL     1       1.676   8.872  18.608  0.00  0.00    +0.000 A 
ATOM     10  C   UNL     1       1.142   8.892  19.829  0.00  0.00    +0.000 A 
ATOM     11  C   UNL     1       1.530   7.840  20.775  0.00  0.00    +0.000 A 
ATOM     12  O   UNL     1       1.108   7.799  21.922  0.00  0.00    +0.000 OA
ATOM     13  N   UNL     1       2.400   6.918  20.250  0.00  0.00    +0.000 N 
ATOM     14  C   UNL     1       0.180  10.001  20.037  0.00  0.00    +0.000 C 
ATOM     15  C   UNL     1       0.142  10.713  18.649  0.00  0.00    +0.000 C 
ATOM     16  C   UNL     1       0.547  12.191  18.765  0.00  0.00    +0.000 C 
ATOM     17  C   UNL     1      -1.266  10.642  18.036  0.00  0.00    +0.000 C 
ATOM     18  C   UNL     1       1.153   9.962  17.740  0.00  0.00    +0.000 C 
ATOM     19  H   UNL     1       2.721   6.156  20.835  0.00  0.00    +0.000 HD
ENDROOT
BRANCH   3  20
ATOM     20  C   UNL     1       6.486   4.260  16.847  0.00  0.00    +0.000 C 
ATOM     21  O   UNL     1       7.668   4.569  16.914  0.00  0.00    +0.000 OA
BRANCH  20  22
ATOM     22  O   UNL     1       6.062   3.385  15.901  0.00  0.00    +0.000 OA
ATOM     23  H   UNL     1       5.587   3.776  15.154  0.00  0.00    +0.000 HD
ENDBRANCH  20  22
ENDBRANCH   3  20
TORSDOF 2
ENDMDL
MODEL 3
REMARK VINA RESULT:      -7.2      2.471      6.939
REMARK  Name = 
REMARK  5 active torsions:
REMARK  status: ('A' for Active; 'I' for Inactive)
REMARK    1  A    between atoms: C_1  and  C_2
REMARK    2  A    between atoms: C_3  and  C_4
REMARK    3  A    between atoms: C_4  and  O_6
REMARK    4  A    between atoms: C_18  and  C_19
REMARK    5  A    between atoms: C_18  and  C_20
REMARK                            x       y       z     vdW  Elec       q    Type
REMARK                         _______ _______ _______ _____ _____    ______ ____
ROOT
ATOM      1  C   UNL     1       5.009   7.057  15.547  0.00  0.00    +0.000 C 
ATOM      2  C   UNL     1       4.960   5.755  16.273  0.00  0.00    +0.000 A 
ATOM      3  C   UNL     1       5.647   4.563  16.058  0.00  0.00    +0.000 A 
ATOM      4  C   UNL     1       5.188   3.728  17.101  0.00  0.00    +0.000 A 
ATOM      5  N   UNL     1       4.316   4.318  17.920  0.00  0.00    +0.000 NA
ATOM      6  N   UNL     1       4.167   5.573  17.401  0.00  0.00    +0.000 N 
ATOM      7  C   UNL     1       3.307   6.492  18.042  0.00  0.00    +0.000 A 
ATOM      8  N   UNL     1       3.043   7.666  17.561  0.00  0.00    +0.000 NA
ATOM      9  C   UNL     1       2.208   8.425  18.320  0.00  0.00    +0.000 A 
ATOM     10  C   UNL     1       1.699   8.092  19.506  0.00  0.00    +0.000 A 
ATOM     11  C   UNL     1       2.021   6.771  20.056  0.00  0.00    +0.000 A 
ATOM     12  O   UNL     1       1.618   6.396  21.148  0.00  0.00    +0.000 OA
ATOM     13  N   UNL     1       2.808   6.006  19.231  0.00  0.00    +0.000 N 
ATOM     14  C   UNL     1       0.830   9.141  20.093  0.00  0.00    +0.000 C 
ATOM     15  C   UNL     1       0.822  10.257  19.002  0.00  0.00    +0.000 C 
ATOM     16  C   UNL     1       1.343  11.590  19.562  0.00  0.00    +0.000 C 
ATOM     17  C   UNL     1      -0.598  10.480  18.457  0.00  0.00    +0.000 C 
ATOM     18  C   UNL     1       1.756   9.767  17.863  0.00  0.00    +0.000 C 
ATOM     19  H   UNL     1       3.079   5.078  19.533  0.00  0.00    +0.000 HD
ENDROOT
BRANCH   3  20
ATOM     20  C   UNL     1       6.616   4.295  14.999  0.00  0.00    +0.000 C 
ATOM     21  O   UNL     1       7.692   4.868  14.898  0.00  0.00    +0.000 OA
BRANCH  20  22
ATOM     22  O   UNL     1       6.265   3.340  14.102  0.00  0.00    +0.000 OA
ATOM     23  H   UNL     1       5.967   3.666  13.240  0.00  0.00    +0.000 HD
ENDBRANCH  20  22
ENDBRANCH   3  20
TORSDOF 2
ENDMDL
MODEL 4
REMARK VINA RESULT:      -7.2      1.828      3.091
REMARK  Name = 
REMARK  5 active torsions:
REMARK  status: ('A' for Active; 'I' for Inactive)
REMARK    1  A    between atoms: C_1  and  C_2
REMARK    2  A    between atoms: C_3  and  C_4
REMARK    3  A    between atoms: C_4  and  O_6
REMARK    4  A    between atoms: C_18  and  C_19
REMARK    5  A    between atoms: C_18  and  C_20
REMARK                            x       y       z     vdW  Elec       q    Type
REMARK                         _______ _______ _______ _____ _____    ______ ____
ROOT
ATOM      1  C   UNL     1       0.715   8.341  21.127  0.00  0.00    +0.000 C 
ATOM      2  C   UNL     1       1.084   9.249  20.001  0.00  0.00    +0.000 A 
ATOM      3  C   UNL     1       0.806  10.596  19.786  0.00  0.00    +0.000 A 
ATOM      4  C   UNL     1       1.460  10.875  18.565  0.00  0.00    +0.000 A 
ATOM      5  N   UNL     1       2.112   9.831  18.053  0.00  0.00    +0.000 NA
ATOM      6  N   UNL     1       1.871   8.819  18.939  0.00  0.00    +0.000 N 
ATOM      7  C   UNL     1       2.436   7.544  18.708  0.00  0.00    +0.000 A 
ATOM      8  N   UNL     1       2.179   6.514  19.451  0.00  0.00    +0.000 NA
ATOM      9  C   UNL     1       2.825   5.371  19.093  0.00  0.00    +0.000 A 
ATOM     10  C   UNL     1       3.712   5.243  18.107  0.00  0.00    +0.000 A 
ATOM     11  C   UNL     1       4.015   6.419  17.285  0.00  0.00    +0.000 A 
ATOM     12  O   UNL     1       4.836   6.395  16.378  0.00  0.00    +0.000 OA
ATOM     13  N   UNL     1       3.294   7.535  17.630  0.00  0.00    +0.000 N 
ATOM     14  C   UNL     1       4.253   3.868  17.971  0.00  0.00    +0.000 C 
ATOM     15  C   UNL     1       3.487   3.068  19.071  0.00  0.00    +0.000 C 
ATOM     16  C   UNL     1       4.457   2.425  20.074  0.00  0.00    +0.000 C 
ATOM     17  C   UNL     1       2.630   1.957  18.443  0.00  0.00    +0.000 C 
ATOM     18  C   UNL     1       2.575   4.089  19.805  0.00  0.00    +0.000 C 
ATOM     19  H   UNL     1       3.442   8.395  17.115  0.00  0.00    +0.000 HD
ENDROOT
BRANCH   3  20
ATOM     20  C   UNL     1       0.029  11.475  20.657  0.00  0.00    +0.000 C 
ATOM     21  O   UNL     1      -1.188  11.590  20.600  0.00  0.00    +0.000 OA
BRANCH  20  22
ATOM     22  O   UNL     1       0.739  12.178  21.574  0.00  0.00    +0.000 OA
ATOM     23  H   UNL     1       0.738  13.139  21.456  0.00  0.00    +0.000 HD
ENDBRANCH  20  22
ENDBRANCH   3  20
TORSDOF 2
ENDMDL
MODEL 5
REMARK VINA RESULT:      -7.1      2.184      6.764
REMARK  Name = 
REMARK  5 active torsions:
REMARK  status: ('A' for Active; 'I' for Inactive)
REMARK    1  A    between atoms: C_1  and  C_2
REMARK    2  A    between atoms: C_3  and  C_4
REMARK    3  A    between atoms: C_4  and  O_6
REMARK    4  A    between atoms: C_18  and  C_19
REMARK    5  A    between atoms: C_18  and  C_20
REMARK                            x       y       z     vdW  Elec       q    Type
REMARK                         _______ _______ _______ _____ _____    ______ ____
ROOT
ATOM      1  C   UNL     1       3.331   5.838  17.827  0.00  0.00    +0.000 C 
ATOM      2  C   UNL     1       2.954   5.157  19.100  0.00  0.00    +0.000 A 
ATOM      3  C   UNL     1       3.193   3.860  19.548  0.00  0.00    +0.000 A 
ATOM      4  C   UNL     1       2.617   3.848  20.838  0.00  0.00    +0.000 A 
ATOM      5  N   UNL     1       2.083   5.014  21.200  0.00  0.00    +0.000 NA
ATOM      6  N   UNL     1       2.283   5.824  20.119  0.00  0.00    +0.000 N 
ATOM      7  C   UNL     1       1.844   7.166  20.165  0.00  0.00    +0.000 A 
ATOM      8  N   UNL     1       1.915   7.968  19.149  0.00  0.00    +0.000 NA
ATOM      9  C   UNL     1       1.462   9.230  19.379  0.00  0.00    +0.000 A 
ATOM     10  C   UNL     1       1.017   9.709  20.540  0.00  0.00    +0.000 A 
ATOM     11  C   UNL     1       0.961   8.802  21.692  0.00  0.00    +0.000 A 
ATOM     12  O   UNL     1       0.591   9.167  22.799  0.00  0.00    +0.000 OA
ATOM     13  N   UNL     1       1.359   7.520  21.406  0.00  0.00    +0.000 N 
ATOM     14  C   UNL     1       0.603  11.132  20.475  0.00  0.00    +0.000 C 
ATOM     15  C   UNL     1       0.824  11.504  18.975  0.00  0.00    +0.000 C 
ATOM     16  C   UNL     1       1.806  12.678  18.829  0.00  0.00    +0.000 C 
ATOM     17  C   UNL     1      -0.503  11.895  18.306  0.00  0.00    +0.000 C 
ATOM     18  C   UNL     1       1.412  10.241  18.289  0.00  0.00    +0.000 C 
ATOM     19  H   UNL     1       1.353   6.827  22.145  0.00  0.00    +0.000 HD
ENDROOT
BRANCH   3  20
ATOM     20  C   UNL     1       3.894   2.804  18.822  0.00  0.00    +0.000 C 
ATOM     21  O   UNL     1       3.447   2.248  17.828  0.00  0.00    +0.000 OA
BRANCH  20  22
ATOM     22  O   UNL     1       5.112   2.458  19.309  0.00  0.00    +0.000 OA
ATOM     23  H   UNL     1       5.809   3.122  19.200  0.00  0.00    +0.000 HD
ENDBRANCH  20  22
ENDBRANCH   3  20
TORSDOF 2
ENDMDL
MODEL 6
REMARK VINA RESULT:      -6.9      2.068      6.921
REMARK  Name = 
REMARK  5 active torsions:
REMARK  status: ('A' for Active; 'I' for Inactive)
REMARK    1  A    between atoms: C_1  and  C_2
REMARK    2  A    between atoms: C_3  and  C_4
REMARK    3  A    between atoms: C_4  and  O_6
REMARK    4  A    between atoms: C_18  and  C_19
REMARK    5  A    between atoms: C_18  and  C_20
REMARK                            x       y       z     vdW  Elec       q    Type
REMARK                         _______ _______ _______ _____ _____    ______ ____
ROOT
ATOM      1  C   UNL     1       3.812   6.921  17.885  0.00  0.00    +0.000 C 
ATOM      2  C   UNL     1       3.365   5.999  18.970  0.00  0.00    +0.000 A 
ATOM      3  C   UNL     1       3.796   4.721  19.317  0.00  0.00    +0.000 A 
ATOM      4  C   UNL     1       3.009   4.407  20.449  0.00  0.00    +0.000 A 
ATOM      5  N   UNL     1       2.176   5.382  20.812  0.00  0.00    +0.000 NA
ATOM      6  N   UNL     1       2.389   6.366  19.890  0.00  0.00    +0.000 N 
ATOM      7  C   UNL     1       1.666   7.576  19.985  0.00  0.00    +0.000 A 
ATOM      8  N   UNL     1       1.745   8.518  19.098  0.00  0.00    +0.000 NA
ATOM      9  C   UNL     1       0.993   9.620  19.360  0.00  0.00    +0.000 A 
ATOM     10  C   UNL     1       0.248   9.827  20.445  0.00  0.00    +0.000 A 
ATOM     11  C   UNL     1       0.181   8.766  21.456  0.00  0.00    +0.000 A 
ATOM     12  O   UNL     1      -0.456   8.885  22.493  0.00  0.00    +0.000 OA
ATOM     13  N   UNL     1       0.896   7.642  21.126  0.00  0.00    +0.000 N 
ATOM     14  C   UNL     1      -0.447  11.137  20.446  0.00  0.00    +0.000 C 
ATOM     15  C   UNL     1      -0.041  11.763  19.075  0.00  0.00    +0.000 C 
ATOM     16  C   UNL     1       0.670  13.113  19.265  0.00  0.00    +0.000 C 
ATOM     17  C   UNL     1      -1.275  11.985  18.187  0.00  0.00    +0.000 C 
ATOM     18  C   UNL     1       0.925  10.753  18.397  0.00  0.00    +0.000 C 
ATOM     19  H   UNL     1       0.906   6.859  21.769  0.00  0.00    +0.000 HD
ENDROOT
BRANCH   3  20
ATOM     20  C   UNL     1       4.832   3.939  18.648  0.00  0.00    +0.000 C 
ATOM     21  O   UNL     1       6.032   4.119  18.807  0.00  0.00    +0.000 OA
BRANCH  20  22
ATOM     22  O   UNL     1       4.392   2.960  17.819  0.00  0.00    +0.000 OA
ATOM     23  H   UNL     1       4.869   2.119  17.876  0.00  0.00    +0.000 HD
ENDBRANCH  20  22
ENDBRANCH   3  20
TORSDOF 2
ENDMDL
MODEL 7
REMARK VINA RESULT:      -6.7      2.567      8.181
REMARK  Name = 
REMARK  5 active torsions:
REMARK  status: ('A' for Active; 'I' for Inactive)
REMARK    1  A    between atoms: C_1  and  C_2
REMARK    2  A    between atoms: C_3  and  C_4
REMARK    3  A    between atoms: C_4  and  O_6
REMARK    4  A    between atoms: C_18  and  C_19
REMARK    5  A    between atoms: C_18  and  C_20
REMARK                            x       y       z     vdW  Elec       q    Type
REMARK                         _______ _______ _______ _____ _____    ______ ____
ROOT
ATOM      1  C   UNL     1       1.390   7.503  20.898  0.00  0.00    +0.000 C 
ATOM      2  C   UNL     1       1.858   7.901  19.538  0.00  0.00    +0.000 A 
ATOM      3  C   UNL     1       2.632   7.219  18.603  0.00  0.00    +0.000 A 
ATOM      4  C   UNL     1       2.689   8.114  17.511  0.00  0.00    +0.000 A 
ATOM      5  N   UNL     1       2.009   9.244  17.704  0.00  0.00    +0.000 NA
ATOM      6  N   UNL     1       1.500   9.117  18.965  0.00  0.00    +0.000 N 
ATOM      7  C   UNL     1       0.698  10.150  19.499  0.00  0.00    +0.000 A 
ATOM      8  N   UNL     1       0.257  10.144  20.717  0.00  0.00    +0.000 NA
ATOM      9  C   UNL     1      -0.516  11.211  21.055  0.00  0.00    +0.000 A 
ATOM     10  C   UNL     1      -0.890  12.201  20.246  0.00  0.00    +0.000 A 
ATOM     11  C   UNL     1      -0.406  12.190  18.862  0.00  0.00    +0.000 A 
ATOM     12  O   UNL     1      -0.722  13.045  18.047  0.00  0.00    +0.000 OA
ATOM     13  N   UNL     1       0.427  11.137  18.576  0.00  0.00    +0.000 N 
ATOM     14  C   UNL     1      -1.746  13.216  20.908  0.00  0.00    +0.000 C 
ATOM     15  C   UNL     1      -1.832  12.711  22.383  0.00  0.00    +0.000 C 
ATOM     16  C   UNL     1      -3.288  12.461  22.805  0.00  0.00    +0.000 C 
ATOM     17  C   UNL     1      -1.214  13.734  23.349  0.00  0.00    +0.000 C 
ATOM     18  C   UNL     1      -1.034  11.380  22.440  0.00  0.00    +0.000 C 
ATOM     19  H   UNL     1       0.807  11.051  17.641  0.00  0.00    +0.000 HD
ENDROOT
BRANCH   3  20
ATOM     20  C   UNL     1       3.211   5.887  18.756  0.00  0.00    +0.000 C 
ATOM     21  O   UNL     1       2.958   4.945  18.017  0.00  0.00    +0.000 OA
BRANCH  20  22
ATOM     22  O   UNL     1       4.081   5.734  19.784  0.00  0.00    +0.000 OA
ATOM     23  H   UNL     1       3.747   5.235  20.544  0.00  0.00    +0.000 HD
ENDBRANCH  20  22
ENDBRANCH   3  20
TORSDOF 2
ENDMDL
MODEL 8
REMARK VINA RESULT:      -6.6      2.255      7.308
REMARK  Name = 
REMARK  5 active torsions:
REMARK  status: ('A' for Active; 'I' for Inactive)
REMARK    1  A    between atoms: C_1  and  C_2
REMARK    2  A    between atoms: C_3  and  C_4
REMARK    3  A    between atoms: C_4  and  O_6
REMARK    4  A    between atoms: C_18  and  C_19
REMARK    5  A    between atoms: C_18  and  C_20
REMARK                            x       y       z     vdW  Elec       q    Type
REMARK                         _______ _______ _______ _____ _____    ______ ____
ROOT
ATOM      1  C   UNL     1       2.483   8.210  17.632  0.00  0.00    +0.000 C 
ATOM      2  C   UNL     1       2.444   7.175  18.706  0.00  0.00    +0.000 A 
ATOM      3  C   UNL     1       2.939   5.873  18.738  0.00  0.00    +0.000 A 
ATOM      4  C   UNL     1       2.617   5.433  20.041  0.00  0.00    +0.000 A 
ATOM      5  N   UNL     1       2.002   6.353  20.784  0.00  0.00    +0.000 NA
ATOM      6  N   UNL     1       1.887   7.431  19.954  0.00  0.00    +0.000 N 
ATOM      7  C   UNL     1       1.282   8.616  20.432  0.00  0.00    +0.000 A 
ATOM      8  N   UNL     1       1.054   9.645  19.679  0.00  0.00    +0.000 NA
ATOM      9  C   UNL     1       0.481  10.705  20.311  0.00  0.00    +0.000 A 
ATOM     10  C   UNL     1       0.195  10.788  21.610  0.00  0.00    +0.000 A 
ATOM     11  C   UNL     1       0.477   9.627  22.461  0.00  0.00    +0.000 A 
ATOM     12  O   UNL     1       0.271   9.628  23.666  0.00  0.00    +0.000 OA
ATOM     13  N   UNL     1       0.990   8.552  21.777  0.00  0.00    +0.000 N 
ATOM     14  C   UNL     1      -0.416  12.082  22.001  0.00  0.00    +0.000 C 
ATOM     15  C   UNL     1      -0.528  12.852  20.648  0.00  0.00    +0.000 C 
ATOM     16  C   UNL     1       0.239  14.184  20.697  0.00  0.00    +0.000 C 
ATOM     17  C   UNL     1      -1.997  13.149  20.307  0.00  0.00    +0.000 C 
ATOM     18  C   UNL     1       0.092  11.931  19.563  0.00  0.00    +0.000 C 
ATOM     19  H   UNL     1       1.215   7.707  22.288  0.00  0.00    +0.000 HD
ENDROOT
BRANCH   3  20
ATOM     20  C   UNL     1       3.633   5.179  17.657  0.00  0.00    +0.000 C 
ATOM     21  O   UNL     1       4.660   5.588  17.133  0.00  0.00    +0.000 OA
BRANCH  20  22
ATOM     22  O   UNL     1       3.077   4.011  17.249  0.00  0.00    +0.000 OA
ATOM     23  H   UNL     1       3.345   3.705  16.370  0.00  0.00    +0.000 HD
ENDBRANCH  20  22
ENDBRANCH   3  20
TORSDOF 2
ENDMDL
