MODEL 1
REMARK VINA RESULT:      -8.6      0.000      0.000
REMARK  Name = 
REMARK  11 active torsions:
REMARK  status: ('A' for Active; 'I' for Inactive)
REMARK    1  A    between atoms: C_1  and  N_2
REMARK    2  A    between atoms: N_2  and  C_3
REMARK    3  A    between atoms: N_2  and  C_11
REMARK    4  A    between atoms: C_3  and  C_4
REMARK    5  A    between atoms: C_4  and  O_6
REMARK    6  A    between atoms: O_6  and  C_7
REMARK    7  A    between atoms: C_7  and  C_8
REMARK    8  A    between atoms: C_7  and  C_9
REMARK    9  A    between atoms: C_7  and  C_10
REMARK   10  A    between atoms: C_11  and  C_12
REMARK   11  A    between atoms: C_12  and  C_14
REMARK                            x       y       z     vdW  Elec       q    Type
REMARK                         _______ _______ _______ _____ _____    ______ ____
ROOT
ATOM      1  C   UNL     1       2.066   7.011  19.423  0.00  0.00    +0.000 A 
ATOM      2  C   UNL     1       2.572   7.337  18.166  0.00  0.00    +0.000 A 
ATOM      3  C   UNL     1       2.409   8.630  17.631  0.00  0.00    +0.000 A 
ATOM      4  C   UNL     1       1.737   9.591  18.408  0.00  0.00    +0.000 A 
ATOM      5  N   UNL     1       1.446  10.933  18.143  0.00  0.00    +0.000 N 
ATOM      6  C   UNL     1       0.764  11.477  19.207  0.00  0.00    +0.000 A 
ATOM      7  C   UNL     1       0.255  12.700  19.459  0.00  0.00    +0.000 A 
ATOM      8  C   UNL     1      -0.428  13.016  20.644  0.00  0.00    +0.000 A 
ATOM      9  C   UNL     1      -0.586  11.971  21.548  0.00  0.00    +0.000 A 
ATOM     10  C   UNL     1      -0.009  10.717  21.302  0.00  0.00    +0.000 A 
ATOM     11  C   UNL     1       0.660  10.471  20.097  0.00  0.00    +0.000 A 
ATOM     12  C   UNL     1       1.223   9.277  19.680  0.00  0.00    +0.000 A 
ATOM     13  C   UNL     1       1.378   7.971  20.171  0.00  0.00    +0.000 A 
ATOM     14  C   UNL     1      -0.268   9.899  22.458  0.00  0.00    +0.000 C 
ATOM     15  O   UNL     1       0.114   8.802  22.838  0.00  0.00    +0.000 OA
ATOM     16  N   UNL     1      -1.085  10.679  23.231  0.00  0.00    +0.000 N 
ATOM     17  C   UNL     1      -1.257  11.965  22.803  0.00  0.00    +0.000 C 
ATOM     18  O   UNL     1      -1.845  12.828  23.439  0.00  0.00    +0.000 OA
ATOM     19  C   UNL     1      -0.878  14.428  20.700  0.00  0.00    +0.000 C 
ATOM     20  C   UNL     1      -0.414  15.004  19.344  0.00  0.00    +0.000 C 
ATOM     21  C   UNL     1       0.326  13.887  18.552  0.00  0.00    +0.000 C 
ATOM     22  H   UNL     1       1.698  11.419  17.294  0.00  0.00    +0.000 HD
ATOM     23  H   UNL     1      -1.398  10.365  24.132  0.00  0.00    +0.000 HD
ENDROOT
BRANCH   1  24
ATOM     24  C   UNL     1       2.215   5.672  20.068  0.00  0.00    +0.000 C 
ATOM     25  O   UNL     1       2.208   5.589  21.298  0.00  0.00    +0.000 OA
BRANCH  24  26
ATOM     26  C   UNL     1       2.388   4.431  19.213  0.00  0.00    +0.000 C 
BRANCH  26  28
ATOM     27  C   UNL     1       3.712   2.602  20.120  0.00  0.00    +0.000 C 
ATOM     28  N   UNL     1       3.742   3.848  19.349  0.00  0.00    +0.000 NA
BRANCH  28  29
ATOM     29  C   UNL     1       4.345   3.608  18.012  0.00  0.00    +0.000 C 
BRANCH  29  30
ATOM     30  C   UNL     1       4.931   4.897  17.433  0.00  0.00    +0.000 C 
ATOM     31  O   UNL     1       4.772   5.270  16.276  0.00  0.00    +0.000 OA
BRANCH  30  32
ATOM     32  O   UNL     1       5.675   5.554  18.372  0.00  0.00    +0.000 OA
BRANCH  32  33
ATOM     33  C   UNL     1       7.099   5.731  18.140  0.00  0.00    +0.000 C 
ATOM     34  C   UNL     1       7.394   7.078  17.466  0.00  0.00    +0.000 C 
ATOM     35  C   UNL     1       7.764   5.732  19.527  0.00  0.00    +0.000 C 
ATOM     36  C   UNL     1       7.673   4.547  17.348  0.00  0.00    +0.000 C 
ENDBRANCH  32  33
ENDBRANCH  30  32
ENDBRANCH  29  30
ENDBRANCH  28  29
ENDBRANCH  26  28
ENDBRANCH  24  26
ENDBRANCH   1  24
TORSDOF 7
ENDMDL
MODEL 2
REMARK VINA RESULT:      -8.6      0.725      1.157
REMARK  Name = 
REMARK  11 active torsions:
REMARK  status: ('A' for Active; 'I' for Inactive)
REMARK    1  A    between atoms: C_1  and  N_2
REMARK    2  A    between atoms: N_2  and  C_3
REMARK    3  A    between atoms: N_2  and  C_11
REMARK    4  A    between atoms: C_3  and  C_4
REMARK    5  A    between atoms: C_4  and  O_6
REMARK    6  A    between atoms: O_6  and  C_7
REMARK    7  A    between atoms: C_7  and  C_8
REMARK    8  A    between atoms: C_7  and  C_9
REMARK    9  A    between atoms: C_7  and  C_10
REMARK   10  A    between atoms: C_11  and  C_12
REMARK   11  A    between atoms: C_12  and  C_14
REMARK                            x       y       z     vdW  Elec       q    Type
REMARK                         _______ _______ _______ _____ _____    ______ ____
ROOT
ATOM      1  C   UNL     1       2.060   7.080  19.404  0.00  0.00    +0.000 A 
ATOM      2  C   UNL     1       2.564   7.406  18.145  0.00  0.00    +0.000 A 
ATOM      3  C   UNL     1       2.402   8.700  17.613  0.00  0.00    +0.000 A 
ATOM      4  C   UNL     1       1.735   9.661  18.392  0.00  0.00    +0.000 A 
ATOM      5  N   UNL     1       1.445  11.005  18.130  0.00  0.00    +0.000 N 
ATOM      6  C   UNL     1       0.767  11.548  19.196  0.00  0.00    +0.000 A 
ATOM      7  C   UNL     1       0.261  12.772  19.451  0.00  0.00    +0.000 A 
ATOM      8  C   UNL     1      -0.418  13.088  20.638  0.00  0.00    +0.000 A 
ATOM      9  C   UNL     1      -0.576  12.042  21.541  0.00  0.00    +0.000 A 
ATOM     10  C   UNL     1      -0.002  10.788  21.293  0.00  0.00    +0.000 A 
ATOM     11  C   UNL     1       0.663  10.542  20.086  0.00  0.00    +0.000 A 
ATOM     12  C   UNL     1       1.223   9.347  19.666  0.00  0.00    +0.000 A 
ATOM     13  C   UNL     1       1.376   8.040  20.155  0.00  0.00    +0.000 A 
ATOM     14  C   UNL     1      -0.260   9.968  22.448  0.00  0.00    +0.000 C 
ATOM     15  O   UNL     1       0.121   8.870  22.826  0.00  0.00    +0.000 OA
ATOM     16  N   UNL     1      -1.074  10.750  23.224  0.00  0.00    +0.000 N 
ATOM     17  C   UNL     1      -1.243  12.037  22.799  0.00  0.00    +0.000 C 
ATOM     18  O   UNL     1      -1.828  12.900  23.437  0.00  0.00    +0.000 OA
ATOM     19  C   UNL     1      -0.864  14.501  20.697  0.00  0.00    +0.000 C 
ATOM     20  C   UNL     1      -0.402  15.078  19.341  0.00  0.00    +0.000 C 
ATOM     21  C   UNL     1       0.333  13.960  18.545  0.00  0.00    +0.000 C 
ATOM     22  H   UNL     1       1.697  11.491  17.281  0.00  0.00    +0.000 HD
ATOM     23  H   UNL     1      -1.384  10.435  24.125  0.00  0.00    +0.000 HD
ENDROOT
BRANCH   1  24
ATOM     24  C   UNL     1       2.207   5.739  20.047  0.00  0.00    +0.000 C 
ATOM     25  O   UNL     1       1.937   5.609  21.242  0.00  0.00    +0.000 OA
BRANCH  24  26
ATOM     26  C   UNL     1       2.702   4.556  19.235  0.00  0.00    +0.000 C 
BRANCH  26  28
ATOM     27  C   UNL     1       3.497   2.537  20.335  0.00  0.00    +0.000 C 
ATOM     28  N   UNL     1       3.853   3.883  19.878  0.00  0.00    +0.000 NA
BRANCH  28  29
ATOM     29  C   UNL     1       5.009   3.820  18.947  0.00  0.00    +0.000 C 
BRANCH  29  30
ATOM     30  C   UNL     1       5.921   5.037  19.116  0.00  0.00    +0.000 C 
ATOM     31  O   UNL     1       6.836   5.106  19.929  0.00  0.00    +0.000 OA
BRANCH  30  32
ATOM     32  O   UNL     1       5.556   6.037  18.260  0.00  0.00    +0.000 OA
BRANCH  32  33
ATOM     33  C   UNL     1       6.353   6.264  17.066  0.00  0.00    +0.000 C 
ATOM     34  C   UNL     1       7.389   7.375  17.287  0.00  0.00    +0.000 C 
ATOM     35  C   UNL     1       7.108   4.950  16.797  0.00  0.00    +0.000 C 
ATOM     36  C   UNL     1       5.452   6.541  15.854  0.00  0.00    +0.000 C 
ENDBRANCH  32  33
ENDBRANCH  30  32
ENDBRANCH  29  30
ENDBRANCH  28  29
ENDBRANCH  26  28
ENDBRANCH  24  26
ENDBRANCH   1  24
TORSDOF 7
ENDMDL
MODEL 3
REMARK VINA RESULT:      -8.5      1.080      1.407
REMARK  Name = 
REMARK  11 active torsions:
REMARK  status: ('A' for Active; 'I' for Inactive)
REMARK    1  A    between atoms: C_1  and  N_2
REMARK    2  A    between atoms: N_2  and  C_3
REMARK    3  A    between atoms: N_2  and  C_11
REMARK    4  A    between atoms: C_3  and  C_4
REMARK    5  A    between atoms: C_4  and  O_6
REMARK    6  A    between atoms: O_6  and  C_7
REMARK    7  A    between atoms: C_7  and  C_8
REMARK    8  A    between atoms: C_7  and  C_9
REMARK    9  A    between atoms: C_7  and  C_10
REMARK   10  A    between atoms: C_11  and  C_12
REMARK   11  A    between atoms: C_12  and  C_14
REMARK                            x       y       z     vdW  Elec       q    Type
REMARK                         _______ _______ _______ _____ _____    ______ ____
ROOT
ATOM      1  C   UNL     1       1.974   6.900  19.485  0.00  0.00    +0.000 A 
ATOM      2  C   UNL     1       2.540   7.190  18.244  0.00  0.00    +0.000 A 
ATOM      3  C   UNL     1       2.481   8.490  17.707  0.00  0.00    +0.000 A 
ATOM      4  C   UNL     1       1.852   9.495  18.463  0.00  0.00    +0.000 A 
ATOM      5  N   UNL     1       1.660  10.853  18.192  0.00  0.00    +0.000 N 
ATOM      6  C   UNL     1       0.984  11.442  19.234  0.00  0.00    +0.000 A 
ATOM      7  C   UNL     1       0.551  12.697  19.472  0.00  0.00    +0.000 A 
ATOM      8  C   UNL     1      -0.146  13.060  20.635  0.00  0.00    +0.000 A 
ATOM      9  C   UNL     1      -0.402  12.029  21.532  0.00  0.00    +0.000 A 
ATOM     10  C   UNL     1       0.096  10.739  21.304  0.00  0.00    +0.000 A 
ATOM     11  C   UNL     1       0.784  10.447  20.120  0.00  0.00    +0.000 A 
ATOM     12  C   UNL     1       1.278   9.217  19.719  0.00  0.00    +0.000 A 
ATOM     13  C   UNL     1       1.330   7.904  20.212  0.00  0.00    +0.000 A 
ATOM     14  C   UNL     1      -0.253   9.940  22.450  0.00  0.00    +0.000 C 
ATOM     15  O   UNL     1       0.042   8.821  22.839  0.00  0.00    +0.000 OA
ATOM     16  N   UNL     1      -1.040  10.775  23.197  0.00  0.00    +0.000 N 
ATOM     17  C   UNL     1      -1.110  12.070  22.766  0.00  0.00    +0.000 C 
ATOM     18  O   UNL     1      -1.658  12.971  23.385  0.00  0.00    +0.000 OA
ATOM     19  C   UNL     1      -0.501  14.499  20.679  0.00  0.00    +0.000 C 
ATOM     20  C   UNL     1       0.043  15.041  19.339  0.00  0.00    +0.000 C 
ATOM     21  C   UNL     1       0.730  13.876  18.568  0.00  0.00    +0.000 C 
ATOM     22  H   UNL     1       1.971  11.320  17.351  0.00  0.00    +0.000 HD
ATOM     23  H   UNL     1      -1.400  10.484  24.088  0.00  0.00    +0.000 HD
ENDROOT
BRANCH   1  24
ATOM     24  C   UNL     1       2.012   5.554  20.133  0.00  0.00    +0.000 C 
ATOM     25  O   UNL     1       2.450   5.447  21.280  0.00  0.00    +0.000 OA
BRANCH  24  26
ATOM     26  C   UNL     1       1.530   4.331  19.375  0.00  0.00    +0.000 C 
BRANCH  26  28
ATOM     27  C   UNL     1       2.232   2.016  19.115  0.00  0.00    +0.000 C 
ATOM     28  N   UNL     1       2.643   3.420  19.025  0.00  0.00    +0.000 NA
BRANCH  28  29
ATOM     29  C   UNL     1       3.154   3.718  17.662  0.00  0.00    +0.000 C 
BRANCH  29  30
ATOM     30  C   UNL     1       4.659   3.997  17.686  0.00  0.00    +0.000 C 
ATOM     31  O   UNL     1       5.249   4.524  18.623  0.00  0.00    +0.000 OA
BRANCH  30  32
ATOM     32  O   UNL     1       5.242   3.606  16.515  0.00  0.00    +0.000 OA
BRANCH  32  33
ATOM     33  C   UNL     1       5.846   4.615  15.660  0.00  0.00    +0.000 C 
ATOM     34  C   UNL     1       5.168   5.979  15.842  0.00  0.00    +0.000 C 
ATOM     35  C   UNL     1       7.310   4.741  16.113  0.00  0.00    +0.000 C 
ATOM     36  C   UNL     1       5.848   4.157  14.194  0.00  0.00    +0.000 C 
ENDBRANCH  32  33
ENDBRANCH  30  32
ENDBRANCH  29  30
ENDBRANCH  28  29
ENDBRANCH  26  28
ENDBRANCH  24  26
ENDBRANCH   1  24
TORSDOF 7
ENDMDL
MODEL 4
REMARK VINA RESULT:      -8.1      2.817      4.686
REMARK  Name = 
REMARK  11 active torsions:
REMARK  status: ('A' for Active; 'I' for Inactive)
REMARK    1  A    between atoms: C_1  and  N_2
REMARK    2  A    between atoms: N_2  and  C_3
REMARK    3  A    between atoms: N_2  and  C_11
REMARK    4  A    between atoms: C_3  and  C_4
REMARK    5  A    between atoms: C_4  and  O_6
REMARK    6  A    between atoms: O_6  and  C_7
REMARK    7  A    between atoms: C_7  and  C_8
REMARK    8  A    between atoms: C_7  and  C_9
REMARK    9  A    between atoms: C_7  and  C_10
REMARK   10  A    between atoms: C_11  and  C_12
REMARK   11  A    between atoms: C_12  and  C_14
REMARK                            x       y       z     vdW  Elec       q    Type
REMARK                         _______ _______ _______ _____ _____    ______ ____
ROOT
ATOM      1  C   UNL     1       3.373   5.158  18.453  0.00  0.00    +0.000 A 
ATOM      2  C   UNL     1       3.120   4.324  19.542  0.00  0.00    +0.000 A 
ATOM      3  C   UNL     1       2.411   4.793  20.665  0.00  0.00    +0.000 A 
ATOM      4  C   UNL     1       1.947   6.121  20.652  0.00  0.00    +0.000 A 
ATOM      5  N   UNL     1       1.218   6.840  21.604  0.00  0.00    +0.000 N 
ATOM      6  C   UNL     1       0.996   8.118  21.149  0.00  0.00    +0.000 A 
ATOM      7  C   UNL     1       0.365   9.193  21.664  0.00  0.00    +0.000 A 
ATOM      8  C   UNL     1       0.280  10.425  20.995  0.00  0.00    +0.000 A 
ATOM      9  C   UNL     1       0.922  10.489  19.763  0.00  0.00    +0.000 A 
ATOM     10  C   UNL     1       1.529   9.353  19.211  0.00  0.00    +0.000 A 
ATOM     11  C   UNL     1       1.578   8.155  19.935  0.00  0.00    +0.000 A 
ATOM     12  C   UNL     1       2.193   6.973  19.558  0.00  0.00    +0.000 A 
ATOM     13  C   UNL     1       2.927   6.483  18.468  0.00  0.00    +0.000 A 
ATOM     14  C   UNL     1       2.009   9.722  17.905  0.00  0.00    +0.000 C 
ATOM     15  O   UNL     1       2.473   9.110  16.955  0.00  0.00    +0.000 OA
ATOM     16  N   UNL     1       1.771  11.069  17.842  0.00  0.00    +0.000 N 
ATOM     17  C   UNL     1       1.046  11.594  18.874  0.00  0.00    +0.000 C 
ATOM     18  O   UNL     1       0.635  12.744  18.910  0.00  0.00    +0.000 OA
ATOM     19  C   UNL     1      -0.478  11.449  21.753  0.00  0.00    +0.000 C 
ATOM     20  C   UNL     1      -0.863  10.717  23.057  0.00  0.00    +0.000 C 
ATOM     21  C   UNL     1      -0.325   9.258  22.990  0.00  0.00    +0.000 C 
ATOM     22  H   UNL     1       0.910   6.468  22.493  0.00  0.00    +0.000 HD
ATOM     23  H   UNL     1       1.979  11.592  17.010  0.00  0.00    +0.000 HD
ENDROOT
BRANCH   1  24
ATOM     24  C   UNL     1       4.098   4.732  17.218  0.00  0.00    +0.000 C 
ATOM     25  O   UNL     1       4.002   3.565  16.833  0.00  0.00    +0.000 OA
BRANCH  24  26
ATOM     26  C   UNL     1       4.957   5.726  16.459  0.00  0.00    +0.000 C 
BRANCH  26  28
ATOM     27  C   UNL     1       6.723   5.351  18.090  0.00  0.00    +0.000 C 
ATOM     28  N   UNL     1       6.403   5.483  16.665  0.00  0.00    +0.000 NA
BRANCH  28  29
ATOM     29  C   UNL     1       6.841   4.271  15.927  0.00  0.00    +0.000 C 
BRANCH  29  30
ATOM     30  C   UNL     1       6.797   4.501  14.415  0.00  0.00    +0.000 C 
ATOM     31  O   UNL     1       7.233   5.500  13.855  0.00  0.00    +0.000 OA
BRANCH  30  32
ATOM     32  O   UNL     1       6.183   3.455  13.784  0.00  0.00    +0.000 OA
BRANCH  32  33
ATOM     33  C   UNL     1       6.120   3.452  12.332  0.00  0.00    +0.000 C 
ATOM     34  C   UNL     1       7.167   4.395  11.724  0.00  0.00    +0.000 C 
ATOM     35  C   UNL     1       6.451   2.016  11.890  0.00  0.00    +0.000 C 
ATOM     36  C   UNL     1       4.698   3.774  11.849  0.00  0.00    +0.000 C 
ENDBRANCH  32  33
ENDBRANCH  30  32
ENDBRANCH  29  30
ENDBRANCH  28  29
ENDBRANCH  26  28
ENDBRANCH  24  26
ENDBRANCH   1  24
TORSDOF 7
ENDMDL
MODEL 5
REMARK VINA RESULT:      -8.0      1.134      1.606
REMARK  Name = 
REMARK  11 active torsions:
REMARK  status: ('A' for Active; 'I' for Inactive)
REMARK    1  A    between atoms: C_1  and  N_2
REMARK    2  A    between atoms: N_2  and  C_3
REMARK    3  A    between atoms: N_2  and  C_11
REMARK    4  A    between atoms: C_3  and  C_4
REMARK    5  A    between atoms: C_4  and  O_6
REMARK    6  A    between atoms: O_6  and  C_7
REMARK    7  A    between atoms: C_7  and  C_8
REMARK    8  A    between atoms: C_7  and  C_9
REMARK    9  A    between atoms: C_7  and  C_10
REMARK   10  A    between atoms: C_11  and  C_12
REMARK   11  A    between atoms: C_12  and  C_14
REMARK                            x       y       z     vdW  Elec       q    Type
REMARK                         _______ _______ _______ _____ _____    ______ ____
ROOT
ATOM      1  C   UNL     1       2.132   6.942  19.424  0.00  0.00    +0.000 A 
ATOM      2  C   UNL     1       2.618   7.243  18.151  0.00  0.00    +0.000 A 
ATOM      3  C   UNL     1       2.444   8.523  17.593  0.00  0.00    +0.000 A 
ATOM      4  C   UNL     1       1.783   9.499  18.361  0.00  0.00    +0.000 A 
ATOM      5  N   UNL     1       1.485  10.835  18.074  0.00  0.00    +0.000 N 
ATOM      6  C   UNL     1       0.819  11.400  19.136  0.00  0.00    +0.000 A 
ATOM      7  C   UNL     1       0.312  12.627  19.372  0.00  0.00    +0.000 A 
ATOM      8  C   UNL     1      -0.353  12.966  20.561  0.00  0.00    +0.000 A 
ATOM      9  C   UNL     1      -0.494  11.940  21.488  0.00  0.00    +0.000 A 
ATOM     10  C   UNL     1       0.081  10.682  21.260  0.00  0.00    +0.000 A 
ATOM     11  C   UNL     1       0.731  10.412  20.049  0.00  0.00    +0.000 A 
ATOM     12  C   UNL     1       1.290   9.211  19.648  0.00  0.00    +0.000 A 
ATOM     13  C   UNL     1       1.455   7.916  20.162  0.00  0.00    +0.000 A 
ATOM     14  C   UNL     1      -0.157   9.887  22.436  0.00  0.00    +0.000 C 
ATOM     15  O   UNL     1       0.233   8.799  22.832  0.00  0.00    +0.000 OA
ATOM     16  N   UNL     1      -0.964  10.682  23.205  0.00  0.00    +0.000 N 
ATOM     17  C   UNL     1      -1.144  11.959  22.754  0.00  0.00    +0.000 C 
ATOM     18  O   UNL     1      -1.724  12.834  23.382  0.00  0.00    +0.000 OA
ATOM     19  C   UNL     1      -0.804  14.378  20.595  0.00  0.00    +0.000 C 
ATOM     20  C   UNL     1      -0.363  14.927  19.221  0.00  0.00    +0.000 C 
ATOM     21  C   UNL     1       0.366  13.795  18.439  0.00  0.00    +0.000 C 
ATOM     22  H   UNL     1       1.723  11.304  17.210  0.00  0.00    +0.000 HD
ATOM     23  H   UNL     1      -1.261  10.386  24.118  0.00  0.00    +0.000 HD
ENDROOT
BRANCH   1  24
ATOM     24  C   UNL     1       2.294   5.616  20.093  0.00  0.00    +0.000 C 
ATOM     25  O   UNL     1       1.292   4.987  20.438  0.00  0.00    +0.000 OA
BRANCH  24  26
ATOM     26  C   UNL     1       3.681   5.062  20.359  0.00  0.00    +0.000 C 
BRANCH  26  28
ATOM     27  C   UNL     1       5.890   5.291  19.364  0.00  0.00    +0.000 C 
ATOM     28  N   UNL     1       4.484   4.955  19.120  0.00  0.00    +0.000 NA
BRANCH  28  29
ATOM     29  C   UNL     1       4.376   3.590  18.542  0.00  0.00    +0.000 C 
BRANCH  29  30
ATOM     30  C   UNL     1       4.173   3.647  17.027  0.00  0.00    +0.000 C 
ATOM     31  O   UNL     1       3.081   3.758  16.479  0.00  0.00    +0.000 OA
BRANCH  30  32
ATOM     32  O   UNL     1       5.367   3.531  16.374  0.00  0.00    +0.000 OA
BRANCH  32  33
ATOM     33  C   UNL     1       5.775   4.588  15.464  0.00  0.00    +0.000 C 
ATOM     34  C   UNL     1       5.112   5.924  15.825  0.00  0.00    +0.000 C 
ATOM     35  C   UNL     1       7.295   4.743  15.637  0.00  0.00    +0.000 C 
ATOM     36  C   UNL     1       5.510   4.183  14.006  0.00  0.00    +0.000 C 
ENDBRANCH  32  33
ENDBRANCH  30  32
ENDBRANCH  29  30
ENDBRANCH  28  29
ENDBRANCH  26  28
ENDBRANCH  24  26
ENDBRANCH   1  24
TORSDOF 7
ENDMDL
MODEL 6
REMARK VINA RESULT:      -7.9      1.927      8.767
REMARK  Name = 
REMARK  11 active torsions:
REMARK  status: ('A' for Active; 'I' for Inactive)
REMARK    1  A    between atoms: C_1  and  N_2
REMARK    2  A    between atoms: N_2  and  C_3
REMARK    3  A    between atoms: N_2  and  C_11
REMARK    4  A    between atoms: C_3  and  C_4
REMARK    5  A    between atoms: C_4  and  O_6
REMARK    6  A    between atoms: O_6  and  C_7
REMARK    7  A    between atoms: C_7  and  C_8
REMARK    8  A    between atoms: C_7  and  C_9
REMARK    9  A    between atoms: C_7  and  C_10
REMARK   10  A    between atoms: C_11  and  C_12
REMARK   11  A    between atoms: C_12  and  C_14
REMARK                            x       y       z     vdW  Elec       q    Type
REMARK                         _______ _______ _______ _____ _____    ______ ____
ROOT
ATOM      1  C   UNL     1       0.828   8.942  20.417  0.00  0.00    +0.000 A 
ATOM      2  C   UNL     1       1.058   9.953  19.484  0.00  0.00    +0.000 A 
ATOM      3  C   UNL     1       1.908   9.743  18.382  0.00  0.00    +0.000 A 
ATOM      4  C   UNL     1       2.507   8.479  18.234  0.00  0.00    +0.000 A 
ATOM      5  N   UNL     1       3.370   7.990  17.248  0.00  0.00    +0.000 N 
ATOM      6  C   UNL     1       3.698   6.684  17.528  0.00  0.00    +0.000 A 
ATOM      7  C   UNL     1       4.480   5.770  16.919  0.00  0.00    +0.000 A 
ATOM      8  C   UNL     1       4.672   4.471  17.416  0.00  0.00    +0.000 A 
ATOM      9  C   UNL     1       4.028   4.182  18.614  0.00  0.00    +0.000 A 
ATOM     10  C   UNL     1       3.175   5.119  19.214  0.00  0.00    +0.000 A 
ATOM     11  C   UNL     1       3.029   6.397  18.662  0.00  0.00    +0.000 A 
ATOM     12  C   UNL     1       2.282   7.448  19.167  0.00  0.00    +0.000 A 
ATOM     13  C   UNL     1       1.451   7.700  20.269  0.00  0.00    +0.000 A 
ATOM     14  C   UNL     1       2.595   4.485  20.369  0.00  0.00    +0.000 C 
ATOM     15  O   UNL     1       1.703   4.775  21.152  0.00  0.00    +0.000 OA
ATOM     16  N   UNL     1       3.247   3.283  20.439  0.00  0.00    +0.000 N 
ATOM     17  C   UNL     1       4.057   2.983  19.381  0.00  0.00    +0.000 C 
ATOM     18  O   UNL     1       4.607   1.903  19.221  0.00  0.00    +0.000 OA
ATOM     19  C   UNL     1       5.559   3.644  16.564  0.00  0.00    +0.000 C 
ATOM     20  C   UNL     1       5.960   4.608  15.425  0.00  0.00    +0.000 C 
ATOM     21  C   UNL     1       5.252   5.975  15.654  0.00  0.00    +0.000 C 
ATOM     22  H   UNL     1       3.700   8.525  16.457  0.00  0.00    +0.000 HD
ATOM     23  H   UNL     1       3.010   2.608  21.144  0.00  0.00    +0.000 HD
ENDROOT
BRANCH   1  24
ATOM     24  C   UNL     1      -0.074   9.078  21.599  0.00  0.00    +0.000 C 
ATOM     25  O   UNL     1      -0.879   8.180  21.852  0.00  0.00    +0.000 OA
BRANCH  24  26
ATOM     26  C   UNL     1      -0.007  10.320  22.469  0.00  0.00    +0.000 C 
BRANCH  26  28
ATOM     27  C   UNL     1      -1.936  11.596  23.224  0.00  0.00    +0.000 C 
ATOM     28  N   UNL     1      -1.041  11.314  22.099  0.00  0.00    +0.000 NA
BRANCH  28  29
ATOM     29  C   UNL     1      -0.410  12.570  21.618  0.00  0.00    +0.000 C 
BRANCH  29  30
ATOM     30  C   UNL     1      -1.117  13.099  20.368  0.00  0.00    +0.000 C 
ATOM     31  O   UNL     1      -1.747  12.399  19.582  0.00  0.00    +0.000 OA
BRANCH  30  32
ATOM     32  O   UNL     1      -0.924  14.445  20.237  0.00  0.00    +0.000 OA
BRANCH  32  33
ATOM     33  C   UNL     1       0.255  14.919  19.533  0.00  0.00    +0.000 C 
ATOM     34  C   UNL     1       0.883  13.808  18.680  0.00  0.00    +0.000 C 
ATOM     35  C   UNL     1      -0.227  16.035  18.589  0.00  0.00    +0.000 C 
ATOM     36  C   UNL     1       1.262  15.539  20.513  0.00  0.00    +0.000 C 
ENDBRANCH  32  33
ENDBRANCH  30  32
ENDBRANCH  29  30
ENDBRANCH  28  29
ENDBRANCH  26  28
ENDBRANCH  24  26
ENDBRANCH   1  24
TORSDOF 7
ENDMDL
MODEL 7
REMARK VINA RESULT:      -7.9      0.891      1.249
REMARK  Name = 
REMARK  11 active torsions:
REMARK  status: ('A' for Active; 'I' for Inactive)
REMARK    1  A    between atoms: C_1  and  N_2
REMARK    2  A    between atoms: N_2  and  C_3
REMARK    3  A    between atoms: N_2  and  C_11
REMARK    4  A    between atoms: C_3  and  C_4
REMARK    5  A    between atoms: C_4  and  O_6
REMARK    6  A    between atoms: O_6  and  C_7
REMARK    7  A    between atoms: C_7  and  C_8
REMARK    8  A    between atoms: C_7  and  C_9
REMARK    9  A    between atoms: C_7  and  C_10
REMARK   10  A    between atoms: C_11  and  C_12
REMARK   11  A    between atoms: C_12  and  C_14
REMARK                            x       y       z     vdW  Elec       q    Type
REMARK                         _______ _______ _______ _____ _____    ______ ____
ROOT
ATOM      1  C   UNL     1       2.110   6.845  19.489  0.00  0.00    +0.000 A 
ATOM      2  C   UNL     1       2.613   7.122  18.218  0.00  0.00    +0.000 A 
ATOM      3  C   UNL     1       2.465   8.399  17.642  0.00  0.00    +0.000 A 
ATOM      4  C   UNL     1       1.811   9.394  18.390  0.00  0.00    +0.000 A 
ATOM      5  N   UNL     1       1.537  10.731  18.083  0.00  0.00    +0.000 N 
ATOM      6  C   UNL     1       0.868  11.319  19.131  0.00  0.00    +0.000 A 
ATOM      7  C   UNL     1       0.378  12.556  19.346  0.00  0.00    +0.000 A 
ATOM      8  C   UNL     1      -0.294  12.921  20.523  0.00  0.00    +0.000 A 
ATOM      9  C   UNL     1      -0.461  11.909  21.462  0.00  0.00    +0.000 A 
ATOM     10  C   UNL     1       0.097  10.640  21.255  0.00  0.00    +0.000 A 
ATOM     11  C   UNL     1       0.756  10.344  20.055  0.00  0.00    +0.000 A 
ATOM     12  C   UNL     1       1.300   9.129  19.675  0.00  0.00    +0.000 A 
ATOM     13  C   UNL     1       1.440   7.839  20.208  0.00  0.00    +0.000 A 
ATOM     14  C   UNL     1      -0.166   9.863  22.439  0.00  0.00    +0.000 C 
ATOM     15  O   UNL     1       0.203   8.775  22.852  0.00  0.00    +0.000 OA
ATOM     16  N   UNL     1      -0.969  10.680  23.189  0.00  0.00    +0.000 N 
ATOM     17  C   UNL     1      -1.125  11.954  22.720  0.00  0.00    +0.000 C 
ATOM     18  O   UNL     1      -1.697  12.845  23.330  0.00  0.00    +0.000 OA
ATOM     19  C   UNL     1      -0.724  14.340  20.535  0.00  0.00    +0.000 C 
ATOM     20  C   UNL     1      -0.260  14.864  19.158  0.00  0.00    +0.000 C 
ATOM     21  C   UNL     1       0.460  13.712  18.399  0.00  0.00    +0.000 C 
ATOM     22  H   UNL     1       1.791  11.185  17.216  0.00  0.00    +0.000 HD
ATOM     23  H   UNL     1      -1.280  10.401  24.102  0.00  0.00    +0.000 HD
ENDROOT
BRANCH   1  24
ATOM     24  C   UNL     1       2.244   5.526  20.177  0.00  0.00    +0.000 C 
ATOM     25  O   UNL     1       2.135   5.470  21.403  0.00  0.00    +0.000 OA
BRANCH  24  26
ATOM     26  C   UNL     1       2.528   4.273  19.370  0.00  0.00    +0.000 C 
BRANCH  26  28
ATOM     27  C   UNL     1       3.871   2.246  19.469  0.00  0.00    +0.000 C 
ATOM     28  N   UNL     1       3.854   3.695  19.689  0.00  0.00    +0.000 NA
BRANCH  28  29
ATOM     29  C   UNL     1       4.916   4.349  18.882  0.00  0.00    +0.000 C 
BRANCH  29  30
ATOM     30  C   UNL     1       4.725   4.070  17.389  0.00  0.00    +0.000 C 
ATOM     31  O   UNL     1       3.644   3.831  16.864  0.00  0.00    +0.000 OA
BRANCH  30  32
ATOM     32  O   UNL     1       5.925   4.096  16.735  0.00  0.00    +0.000 OA
BRANCH  32  33
ATOM     33  C   UNL     1       6.364   5.340  16.127  0.00  0.00    +0.000 C 
ATOM     34  C   UNL     1       7.319   6.108  17.051  0.00  0.00    +0.000 C 
ATOM     35  C   UNL     1       7.138   4.948  14.856  0.00  0.00    +0.000 C 
ATOM     36  C   UNL     1       5.161   6.192  15.697  0.00  0.00    +0.000 C 
ENDBRANCH  32  33
ENDBRANCH  30  32
ENDBRANCH  29  30
ENDBRANCH  28  29
ENDBRANCH  26  28
ENDBRANCH  24  26
ENDBRANCH   1  24
TORSDOF 7
ENDMDL
MODEL 8
REMARK VINA RESULT:      -7.9      1.974      8.506
REMARK  Name = 
REMARK  11 active torsions:
REMARK  status: ('A' for Active; 'I' for Inactive)
REMARK    1  A    between atoms: C_1  and  N_2
REMARK    2  A    between atoms: N_2  and  C_3
REMARK    3  A    between atoms: N_2  and  C_11
REMARK    4  A    between atoms: C_3  and  C_4
REMARK    5  A    between atoms: C_4  and  O_6
REMARK    6  A    between atoms: O_6  and  C_7
REMARK    7  A    between atoms: C_7  and  C_8
REMARK    8  A    between atoms: C_7  and  C_9
REMARK    9  A    between atoms: C_7  and  C_10
REMARK   10  A    between atoms: C_11  and  C_12
REMARK   11  A    between atoms: C_12  and  C_14
REMARK                            x       y       z     vdW  Elec       q    Type
REMARK                         _______ _______ _______ _____ _____    ______ ____
ROOT
ATOM      1  C   UNL     1       0.893   8.963  20.212  0.00  0.00    +0.000 A 
ATOM      2  C   UNL     1       1.126   9.920  19.225  0.00  0.00    +0.000 A 
ATOM      3  C   UNL     1       1.969   9.643  18.132  0.00  0.00    +0.000 A 
ATOM      4  C   UNL     1       2.558   8.368  18.052  0.00  0.00    +0.000 A 
ATOM      5  N   UNL     1       3.412   7.819  17.091  0.00  0.00    +0.000 N 
ATOM      6  C   UNL     1       3.732   6.528  17.440  0.00  0.00    +0.000 A 
ATOM      7  C   UNL     1       4.505   5.576  16.878  0.00  0.00    +0.000 A 
ATOM      8  C   UNL     1       4.689   4.305  17.446  0.00  0.00    +0.000 A 
ATOM      9  C   UNL     1       4.048   4.087  18.660  0.00  0.00    +0.000 A 
ATOM     10  C   UNL     1       3.204   5.061  19.211  0.00  0.00    +0.000 A 
ATOM     11  C   UNL     1       3.066   6.309  18.591  0.00  0.00    +0.000 A 
ATOM     12  C   UNL     1       2.330   7.392  19.040  0.00  0.00    +0.000 A 
ATOM     13  C   UNL     1       1.506   7.710  20.130  0.00  0.00    +0.000 A 
ATOM     14  C   UNL     1       2.625   4.496  20.402  0.00  0.00    +0.000 C 
ATOM     15  O   UNL     1       1.739   4.836  21.171  0.00  0.00    +0.000 OA
ATOM     16  N   UNL     1       3.268   3.295  20.535  0.00  0.00    +0.000 N 
ATOM     17  C   UNL     1       4.071   2.931  19.491  0.00  0.00    +0.000 C 
ATOM     18  O   UNL     1       4.612   1.840  19.388  0.00  0.00    +0.000 OA
ATOM     19  C   UNL     1       5.565   3.425  16.636  0.00  0.00    +0.000 C 
ATOM     20  C   UNL     1       5.968   4.321  15.445  0.00  0.00    +0.000 C 
ATOM     21  C   UNL     1       5.273   5.705  15.601  0.00  0.00    +0.000 C 
ATOM     22  H   UNL     1       3.744   8.307  16.270  0.00  0.00    +0.000 HD
ATOM     23  H   UNL     1       3.029   2.661  21.276  0.00  0.00    +0.000 HD
ENDROOT
BRANCH   1  24
ATOM     24  C   UNL     1      -0.003   9.171  21.389  0.00  0.00    +0.000 C 
ATOM     25  O   UNL     1      -0.739   8.253  21.759  0.00  0.00    +0.000 OA
BRANCH  24  26
ATOM     26  C   UNL     1      -0.017  10.507  22.109  0.00  0.00    +0.000 C 
BRANCH  26  28
ATOM     27  C   UNL     1      -1.894  11.778  22.992  0.00  0.00    +0.000 C 
ATOM     28  N   UNL     1      -1.220  11.304  21.780  0.00  0.00    +0.000 NA
BRANCH  28  29
ATOM     29  C   UNL     1      -0.864  12.453  20.908  0.00  0.00    +0.000 C 
BRANCH  29  30
ATOM     30  C   UNL     1       0.441  13.108  21.365  0.00  0.00    +0.000 C 
ATOM     31  O   UNL     1       0.554  13.793  22.376  0.00  0.00    +0.000 OA
BRANCH  30  32
ATOM     32  O   UNL     1       1.449  12.845  20.481  0.00  0.00    +0.000 OA
BRANCH  32  33
ATOM     33  C   UNL     1       2.009  13.943  19.710  0.00  0.00    +0.000 C 
ATOM     34  C   UNL     1       3.211  14.574  20.426  0.00  0.00    +0.000 C 
ATOM     35  C   UNL     1       2.504  13.332  18.388  0.00  0.00    +0.000 C 
ATOM     36  C   UNL     1       0.926  14.978  19.370  0.00  0.00    +0.000 C 
ENDBRANCH  32  33
ENDBRANCH  30  32
ENDBRANCH  29  30
ENDBRANCH  28  29
ENDBRANCH  26  28
ENDBRANCH  24  26
ENDBRANCH   1  24
TORSDOF 7
ENDMDL
MODEL 9
REMARK VINA RESULT:      -7.9      2.657      8.861
REMARK  Name = 
REMARK  11 active torsions:
REMARK  status: ('A' for Active; 'I' for Inactive)
REMARK    1  A    between atoms: C_1  and  N_2
REMARK    2  A    between atoms: N_2  and  C_3
REMARK    3  A    between atoms: N_2  and  C_11
REMARK    4  A    between atoms: C_3  and  C_4
REMARK    5  A    between atoms: C_4  and  O_6
REMARK    6  A    between atoms: O_6  and  C_7
REMARK    7  A    between atoms: C_7  and  C_8
REMARK    8  A    between atoms: C_7  and  C_9
REMARK    9  A    between atoms: C_7  and  C_10
REMARK   10  A    between atoms: C_11  and  C_12
REMARK   11  A    between atoms: C_12  and  C_14
REMARK                            x       y       z     vdW  Elec       q    Type
REMARK                         _______ _______ _______ _____ _____    ______ ____
ROOT
ATOM      1  C   UNL     1       0.873   9.491  20.000  0.00  0.00    +0.000 A 
ATOM      2  C   UNL     1       1.191  10.407  18.998  0.00  0.00    +0.000 A 
ATOM      3  C   UNL     1       2.061  10.060  17.948  0.00  0.00    +0.000 A 
ATOM      4  C   UNL     1       2.588   8.756  17.923  0.00  0.00    +0.000 A 
ATOM      5  N   UNL     1       3.451   8.140  17.011  0.00  0.00    +0.000 N 
ATOM      6  C   UNL     1       3.693   6.845  17.406  0.00  0.00    +0.000 A 
ATOM      7  C   UNL     1       4.438   5.841  16.900  0.00  0.00    +0.000 A 
ATOM      8  C   UNL     1       4.537   4.579  17.507  0.00  0.00    +0.000 A 
ATOM      9  C   UNL     1       3.839   4.426  18.700  0.00  0.00    +0.000 A 
ATOM     10  C   UNL     1       3.025   5.455  19.192  0.00  0.00    +0.000 A 
ATOM     11  C   UNL     1       2.973   6.690  18.535  0.00  0.00    +0.000 A 
ATOM     12  C   UNL     1       2.274   7.819  18.926  0.00  0.00    +0.000 A 
ATOM     13  C   UNL     1       1.425   8.207  19.975  0.00  0.00    +0.000 A 
ATOM     14  C   UNL     1       2.373   4.952  20.373  0.00  0.00    +0.000 C 
ATOM     15  O   UNL     1       1.476   5.355  21.097  0.00  0.00    +0.000 OA
ATOM     16  N   UNL     1       2.950   3.724  20.562  0.00  0.00    +0.000 N 
ATOM     17  C   UNL     1       3.773   3.294  19.561  0.00  0.00    +0.000 C 
ATOM     18  O   UNL     1       4.263   2.175  19.507  0.00  0.00    +0.000 OA
ATOM     19  C   UNL     1       5.399   3.636  16.755  0.00  0.00    +0.000 C 
ATOM     20  C   UNL     1       5.892   4.478  15.559  0.00  0.00    +0.000 C 
ATOM     21  C   UNL     1       5.260   5.898  15.652  0.00  0.00    +0.000 C 
ATOM     22  H   UNL     1       3.837   8.589  16.193  0.00  0.00    +0.000 HD
ATOM     23  H   UNL     1       2.651   3.124  21.309  0.00  0.00    +0.000 HD
ENDROOT
BRANCH   1  24
ATOM     24  C   UNL     1      -0.056   9.774  21.135  0.00  0.00    +0.000 C 
ATOM     25  O   UNL     1      -0.614   8.836  21.708  0.00  0.00    +0.000 OA
BRANCH  24  26
ATOM     26  C   UNL     1      -0.321  11.206  21.562  0.00  0.00    +0.000 C 
BRANCH  26  28
ATOM     27  C   UNL     1      -2.385  12.107  22.483  0.00  0.00    +0.000 C 
ATOM     28  N   UNL     1      -1.712  11.624  21.274  0.00  0.00    +0.000 NA
BRANCH  28  29
ATOM     29  C   UNL     1      -1.735  12.672  20.221  0.00  0.00    +0.000 C 
BRANCH  29  30
ATOM     30  C   UNL     1      -2.210  12.099  18.884  0.00  0.00    +0.000 C 
ATOM     31  O   UNL     1      -1.486  11.926  17.909  0.00  0.00    +0.000 OA
BRANCH  30  32
ATOM     32  O   UNL     1      -3.550  11.836  18.919  0.00  0.00    +0.000 OA
BRANCH  32  33
ATOM     33  C   UNL     1      -4.113  10.928  17.935  0.00  0.00    +0.000 C 
ATOM     34  C   UNL     1      -3.374   9.583  17.928  0.00  0.00    +0.000 C 
ATOM     35  C   UNL     1      -5.568  10.674  18.365  0.00  0.00    +0.000 C 
ATOM     36  C   UNL     1      -4.144  11.581  16.545  0.00  0.00    +0.000 C 
ENDBRANCH  32  33
ENDBRANCH  30  32
ENDBRANCH  29  30
ENDBRANCH  28  29
ENDBRANCH  26  28
ENDBRANCH  24  26
ENDBRANCH   1  24
TORSDOF 7
ENDMDL
