MODEL 1
REMARK VINA RESULT:      -6.4      0.000      0.000
REMARK  Name = 
REMARK  4 active torsions:
REMARK  status: ('A' for Active; 'I' for Inactive)
REMARK    1  A    between atoms: C_1  and  C_2
REMARK    2  A    between atoms: C_7  and  N_8
REMARK    3  A    between atoms: N_8  and  C_9
REMARK    4  A    between atoms: N_8  and  C_10
REMARK                            x       y       z     vdW  Elec       q    Type
REMARK                         _______ _______ _______ _____ _____    ______ ____
ROOT
ATOM      1  C   UNL     1       7.708   7.538  17.328  0.00  0.00    +0.000 C 
ATOM      2  C   UNL     1       6.694   6.610  17.913  0.00  0.00    +0.000 A 
ATOM      3  C   UNL     1       7.049   5.572  18.762  0.00  0.00    +0.000 A 
ATOM      4  N   UNL     1       6.175   4.683  19.289  0.00  0.00    +0.000 NA
ATOM      5  C   UNL     1       4.871   4.800  18.967  0.00  0.00    +0.000 A 
ATOM      6  C   UNL     1       3.945   3.884  19.462  0.00  0.00    +0.000 A 
ATOM      7  C   UNL     1       2.570   3.920  19.160  0.00  0.00    +0.000 A 
ATOM      8  C   UNL     1       2.149   4.968  18.330  0.00  0.00    +0.000 A 
ATOM      9  C   UNL     1       3.046   5.912  17.821  0.00  0.00    +0.000 A 
ATOM     10  C   UNL     1       4.409   5.831  18.128  0.00  0.00    +0.000 A 
ATOM     11  C   UNL     1       5.340   6.741  17.609  0.00  0.00    +0.000 A 
ENDROOT
BRANCH   7  12
ATOM     12  N   UNL     1       1.669   2.994  19.663  0.00  0.00    +0.000 N 
ATOM     13  C   UNL     1       1.428   2.858  21.097  0.00  0.00    +0.000 C 
ATOM     14  C   UNL     1       0.776   2.229  18.802  0.00  0.00    +0.000 C 
ENDBRANCH   7  12
TORSDOF 1
ENDMDL
MODEL 2
REMARK VINA RESULT:      -6.1      1.285      1.500
REMARK  Name = 
REMARK  4 active torsions:
REMARK  status: ('A' for Active; 'I' for Inactive)
REMARK    1  A    between atoms: C_1  and  C_2
REMARK    2  A    between atoms: C_7  and  N_8
REMARK    3  A    between atoms: N_8  and  C_9
REMARK    4  A    between atoms: N_8  and  C_10
REMARK                            x       y       z     vdW  Elec       q    Type
REMARK                         _______ _______ _______ _____ _____    ______ ____
ROOT
ATOM      1  C   UNL     1       8.229   8.400  17.637  0.00  0.00    +0.000 C 
ATOM      2  C   UNL     1       7.362   7.235  17.987  0.00  0.00    +0.000 A 
ATOM      3  C   UNL     1       7.795   6.222  18.829  0.00  0.00    +0.000 A 
ATOM      4  N   UNL     1       7.064   5.128  19.149  0.00  0.00    +0.000 NA
ATOM      5  C   UNL     1       5.834   5.001  18.609  0.00  0.00    +0.000 A 
ATOM      6  C   UNL     1       5.064   3.873  18.886  0.00  0.00    +0.000 A 
ATOM      7  C   UNL     1       3.781   3.651  18.350  0.00  0.00    +0.000 A 
ATOM      8  C   UNL     1       3.280   4.658  17.514  0.00  0.00    +0.000 A 
ATOM      9  C   UNL     1       4.018   5.808  17.219  0.00  0.00    +0.000 A 
ATOM     10  C   UNL     1       5.298   5.984  17.756  0.00  0.00    +0.000 A 
ATOM     11  C   UNL     1       6.079   7.109  17.457  0.00  0.00    +0.000 A 
ENDROOT
BRANCH   7  12
ATOM     12  N   UNL     1       3.036   2.518  18.639  0.00  0.00    +0.000 N 
ATOM     13  C   UNL     1       1.586   2.575  18.805  0.00  0.00    +0.000 C 
ATOM     14  C   UNL     1       3.611   1.179  18.615  0.00  0.00    +0.000 C 
ENDBRANCH   7  12
TORSDOF 1
ENDMDL
MODEL 3
REMARK VINA RESULT:      -6.1      1.912      2.136
REMARK  Name = 
REMARK  4 active torsions:
REMARK  status: ('A' for Active; 'I' for Inactive)
REMARK    1  A    between atoms: C_1  and  C_2
REMARK    2  A    between atoms: C_7  and  N_8
REMARK    3  A    between atoms: N_8  and  C_9
REMARK    4  A    between atoms: N_8  and  C_10
REMARK                            x       y       z     vdW  Elec       q    Type
REMARK                         _______ _______ _______ _____ _____    ______ ____
ROOT
ATOM      1  C   UNL     1       7.376   4.811  14.676  0.00  0.00    +0.000 C 
ATOM      2  C   UNL     1       6.538   4.596  15.894  0.00  0.00    +0.000 A 
ATOM      3  C   UNL     1       7.076   4.620  17.172  0.00  0.00    +0.000 A 
ATOM      4  N   UNL     1       6.367   4.396  18.304  0.00  0.00    +0.000 NA
ATOM      5  C   UNL     1       5.052   4.120  18.191  0.00  0.00    +0.000 A 
ATOM      6  C   UNL     1       4.296   3.850  19.330  0.00  0.00    +0.000 A 
ATOM      7  C   UNL     1       2.925   3.534  19.302  0.00  0.00    +0.000 A 
ATOM      8  C   UNL     1       2.321   3.524  18.037  0.00  0.00    +0.000 A 
ATOM      9  C   UNL     1       3.043   3.799  16.872  0.00  0.00    +0.000 A 
ATOM     10  C   UNL     1       4.410   4.090  16.940  0.00  0.00    +0.000 A 
ATOM     11  C   UNL     1       5.171   4.339  15.789  0.00  0.00    +0.000 A 
ENDROOT
BRANCH   7  12
ATOM     12  N   UNL     1       2.195   3.265  20.450  0.00  0.00    +0.000 N 
ATOM     13  C   UNL     1       0.758   3.519  20.524  0.00  0.00    +0.000 C 
ATOM     14  C   UNL     1       2.763   2.549  21.585  0.00  0.00    +0.000 C 
ENDBRANCH   7  12
TORSDOF 1
ENDMDL
MODEL 4
REMARK VINA RESULT:      -6.1      1.596      5.170
REMARK  Name = 
REMARK  4 active torsions:
REMARK  status: ('A' for Active; 'I' for Inactive)
REMARK    1  A    between atoms: C_1  and  C_2
REMARK    2  A    between atoms: C_7  and  N_8
REMARK    3  A    between atoms: N_8  and  C_9
REMARK    4  A    between atoms: N_8  and  C_10
REMARK                            x       y       z     vdW  Elec       q    Type
REMARK                         _______ _______ _______ _____ _____    ______ ____
ROOT
ATOM      1  C   UNL     1       1.431   2.587  21.765  0.00  0.00    +0.000 C 
ATOM      2  C   UNL     1       2.496   3.055  20.827  0.00  0.00    +0.000 A 
ATOM      3  C   UNL     1       3.674   2.347  20.639  0.00  0.00    +0.000 A 
ATOM      4  N   UNL     1       4.684   2.745  19.829  0.00  0.00    +0.000 NA
ATOM      5  C   UNL     1       4.549   3.911  19.165  0.00  0.00    +0.000 A 
ATOM      6  C   UNL     1       5.580   4.372  18.349  0.00  0.00    +0.000 A 
ATOM      7  C   UNL     1       5.531   5.585  17.636  0.00  0.00    +0.000 A 
ATOM      8  C   UNL     1       4.350   6.328  17.765  0.00  0.00    +0.000 A 
ATOM      9  C   UNL     1       3.290   5.895  18.567  0.00  0.00    +0.000 A 
ATOM     10  C   UNL     1       3.384   4.692  19.275  0.00  0.00    +0.000 A 
ATOM     11  C   UNL     1       2.353   4.244  20.113  0.00  0.00    +0.000 A 
ENDROOT
BRANCH   7  12
ATOM     12  N   UNL     1       6.573   6.024  16.833  0.00  0.00    +0.000 N 
ATOM     13  C   UNL     1       7.455   7.112  17.245  0.00  0.00    +0.000 C 
ATOM     14  C   UNL     1       6.972   5.320  15.620  0.00  0.00    +0.000 C 
ENDBRANCH   7  12
TORSDOF 1
ENDMDL
MODEL 5
REMARK VINA RESULT:      -6.0      1.368      5.309
REMARK  Name = 
REMARK  4 active torsions:
REMARK  status: ('A' for Active; 'I' for Inactive)
REMARK    1  A    between atoms: C_1  and  C_2
REMARK    2  A    between atoms: C_7  and  N_8
REMARK    3  A    between atoms: N_8  and  C_9
REMARK    4  A    between atoms: N_8  and  C_10
REMARK                            x       y       z     vdW  Elec       q    Type
REMARK                         _______ _______ _______ _____ _____    ______ ____
ROOT
ATOM      1  C   UNL     1       0.488   2.227  18.728  0.00  0.00    +0.000 C 
ATOM      2  C   UNL     1       1.849   2.843  18.682  0.00  0.00    +0.000 A 
ATOM      3  C   UNL     1       2.955   2.226  19.246  0.00  0.00    +0.000 A 
ATOM      4  N   UNL     1       4.201   2.756  19.263  0.00  0.00    +0.000 NA
ATOM      5  C   UNL     1       4.386   3.970  18.706  0.00  0.00    +0.000 A 
ATOM      6  C   UNL     1       5.646   4.566  18.734  0.00  0.00    +0.000 A 
ATOM      7  C   UNL     1       5.923   5.836  18.195  0.00  0.00    +0.000 A 
ATOM      8  C   UNL     1       4.847   6.494  17.584  0.00  0.00    +0.000 A 
ATOM      9  C   UNL     1       3.570   5.927  17.528  0.00  0.00    +0.000 A 
ATOM     10  C   UNL     1       3.330   4.669  18.093  0.00  0.00    +0.000 A 
ATOM     11  C   UNL     1       2.056   4.084  18.082  0.00  0.00    +0.000 A 
ENDROOT
BRANCH   7  12
ATOM     12  N   UNL     1       7.185   6.409  18.238  0.00  0.00    +0.000 N 
ATOM     13  C   UNL     1       7.526   7.578  17.433  0.00  0.00    +0.000 C 
ATOM     14  C   UNL     1       8.191   6.005  19.213  0.00  0.00    +0.000 C 
ENDBRANCH   7  12
TORSDOF 1
ENDMDL
MODEL 6
REMARK VINA RESULT:      -5.8      2.125      2.427
REMARK  Name = 
REMARK  4 active torsions:
REMARK  status: ('A' for Active; 'I' for Inactive)
REMARK    1  A    between atoms: C_1  and  C_2
REMARK    2  A    between atoms: C_7  and  N_8
REMARK    3  A    between atoms: N_8  and  C_9
REMARK    4  A    between atoms: N_8  and  C_10
REMARK                            x       y       z     vdW  Elec       q    Type
REMARK                         _______ _______ _______ _____ _____    ______ ____
ROOT
ATOM      1  C   UNL     1       7.160   4.825  14.349  0.00  0.00    +0.000 C 
ATOM      2  C   UNL     1       6.337   4.976  15.587  0.00  0.00    +0.000 A 
ATOM      3  C   UNL     1       6.720   5.808  16.628  0.00  0.00    +0.000 A 
ATOM      4  N   UNL     1       6.030   5.953  17.784  0.00  0.00    +0.000 NA
ATOM      5  C   UNL     1       4.898   5.238  17.947  0.00  0.00    +0.000 A 
ATOM      6  C   UNL     1       4.178   5.333  19.136  0.00  0.00    +0.000 A 
ATOM      7  C   UNL     1       3.000   4.608  19.397  0.00  0.00    +0.000 A 
ATOM      8  C   UNL     1       2.549   3.773  18.367  0.00  0.00    +0.000 A 
ATOM      9  C   UNL     1       3.238   3.657  17.156  0.00  0.00    +0.000 A 
ATOM     10  C   UNL     1       4.417   4.379  16.941  0.00  0.00    +0.000 A 
ATOM     11  C   UNL     1       5.150   4.263  15.752  0.00  0.00    +0.000 A 
ENDROOT
BRANCH   7  12
ATOM     12  N   UNL     1       2.303   4.718  20.591  0.00  0.00    +0.000 N 
ATOM     13  C   UNL     1       1.553   5.923  20.934  0.00  0.00    +0.000 C 
ATOM     14  C   UNL     1       2.118   3.588  21.493  0.00  0.00    +0.000 C 
ENDBRANCH   7  12
TORSDOF 1
ENDMDL
MODEL 7
REMARK VINA RESULT:      -5.8      0.940      1.083
REMARK  Name = 
REMARK  4 active torsions:
REMARK  status: ('A' for Active; 'I' for Inactive)
REMARK    1  A    between atoms: C_1  and  C_2
REMARK    2  A    between atoms: C_7  and  N_8
REMARK    3  A    between atoms: N_8  and  C_9
REMARK    4  A    between atoms: N_8  and  C_10
REMARK                            x       y       z     vdW  Elec       q    Type
REMARK                         _______ _______ _______ _____ _____    ______ ____
ROOT
ATOM      1  C   UNL     1       8.154   8.089  17.533  0.00  0.00    +0.000 C 
ATOM      2  C   UNL     1       7.181   7.030  17.939  0.00  0.00    +0.000 A 
ATOM      3  C   UNL     1       7.563   5.925  18.684  0.00  0.00    +0.000 A 
ATOM      4  N   UNL     1       6.730   4.922  19.047  0.00  0.00    +0.000 NA
ATOM      5  C   UNL     1       5.441   4.987  18.653  0.00  0.00    +0.000 A 
ATOM      6  C   UNL     1       4.560   3.957  18.976  0.00  0.00    +0.000 A 
ATOM      7  C   UNL     1       3.207   3.935  18.590  0.00  0.00    +0.000 A 
ATOM      8  C   UNL     1       2.757   5.042  17.858  0.00  0.00    +0.000 A 
ATOM      9  C   UNL     1       3.608   6.099  17.522  0.00  0.00    +0.000 A 
ATOM     10  C   UNL     1       4.952   6.076  17.909  0.00  0.00    +0.000 A 
ATOM     11  C   UNL     1       5.840   7.103  17.561  0.00  0.00    +0.000 A 
ENDROOT
BRANCH   7  12
ATOM     12  N   UNL     1       2.351   2.895  18.921  0.00  0.00    +0.000 N 
ATOM     13  C   UNL     1       2.781   1.501  18.875  0.00  0.00    +0.000 C 
ATOM     14  C   UNL     1       1.037   3.125  19.509  0.00  0.00    +0.000 C 
ENDBRANCH   7  12
TORSDOF 1
ENDMDL
MODEL 8
REMARK VINA RESULT:      -5.8      2.496      5.355
REMARK  Name = 
REMARK  4 active torsions:
REMARK  status: ('A' for Active; 'I' for Inactive)
REMARK    1  A    between atoms: C_1  and  C_2
REMARK    2  A    between atoms: C_7  and  N_8
REMARK    3  A    between atoms: N_8  and  C_9
REMARK    4  A    between atoms: N_8  and  C_10
REMARK                            x       y       z     vdW  Elec       q    Type
REMARK                         _______ _______ _______ _____ _____    ______ ____
ROOT
ATOM      1  C   UNL     1       1.019   3.203  20.872  0.00  0.00    +0.000 C 
ATOM      2  C   UNL     1       1.936   3.270  19.694  0.00  0.00    +0.000 A 
ATOM      3  C   UNL     1       2.378   2.130  19.039  0.00  0.00    +0.000 A 
ATOM      4  N   UNL     1       3.235   2.135  17.992  0.00  0.00    +0.000 NA
ATOM      5  C   UNL     1       3.704   3.321  17.554  0.00  0.00    +0.000 A 
ATOM      6  C   UNL     1       4.615   3.366  16.500  0.00  0.00    +0.000 A 
ATOM      7  C   UNL     1       5.169   4.557  15.995  0.00  0.00    +0.000 A 
ATOM      8  C   UNL     1       4.735   5.744  16.600  0.00  0.00    +0.000 A 
ATOM      9  C   UNL     1       3.816   5.742  17.653  0.00  0.00    +0.000 A 
ATOM     10  C   UNL     1       3.302   4.535  18.141  0.00  0.00    +0.000 A 
ATOM     11  C   UNL     1       2.403   4.494  19.216  0.00  0.00    +0.000 A 
ENDROOT
BRANCH   7  12
ATOM     12  N   UNL     1       6.077   4.574  14.947  0.00  0.00    +0.000 N 
ATOM     13  C   UNL     1       7.417   5.136  15.101  0.00  0.00    +0.000 C 
ATOM     14  C   UNL     1       5.831   3.878  13.690  0.00  0.00    +0.000 C 
ENDBRANCH   7  12
TORSDOF 1
ENDMDL
MODEL 9
REMARK VINA RESULT:      -5.8      2.258      5.489
REMARK  Name = 
REMARK  4 active torsions:
REMARK  status: ('A' for Active; 'I' for Inactive)
REMARK    1  A    between atoms: C_1  and  C_2
REMARK    2  A    between atoms: C_7  and  N_8
REMARK    3  A    between atoms: N_8  and  C_9
REMARK    4  A    between atoms: N_8  and  C_10
REMARK                            x       y       z     vdW  Elec       q    Type
REMARK                         _______ _______ _______ _____ _____    ______ ____
ROOT
ATOM      1  C   UNL     1       1.190   2.769  21.392  0.00  0.00    +0.000 C 
ATOM      2  C   UNL     1       1.924   3.091  20.132  0.00  0.00    +0.000 A 
ATOM      3  C   UNL     1       1.356   2.900  18.880  0.00  0.00    +0.000 A 
ATOM      4  N   UNL     1       1.990   3.141  17.709  0.00  0.00    +0.000 NA
ATOM      5  C   UNL     1       3.262   3.588  17.750  0.00  0.00    +0.000 A 
ATOM      6  C   UNL     1       3.961   3.815  16.565  0.00  0.00    +0.000 A 
ATOM      7  C   UNL     1       5.295   4.261  16.517  0.00  0.00    +0.000 A 
ATOM      8  C   UNL     1       5.909   4.500  17.753  0.00  0.00    +0.000 A 
ATOM      9  C   UNL     1       5.240   4.292  18.963  0.00  0.00    +0.000 A 
ATOM     10  C   UNL     1       3.919   3.830  18.970  0.00  0.00    +0.000 A 
ATOM     11  C   UNL     1       3.229   3.581  20.164  0.00  0.00    +0.000 A 
ENDROOT
BRANCH   7  12
ATOM     12  N   UNL     1       5.969   4.476  15.325  0.00  0.00    +0.000 N 
ATOM     13  C   UNL     1       7.342   4.973  15.298  0.00  0.00    +0.000 C 
ATOM     14  C   UNL     1       5.431   4.055  14.037  0.00  0.00    +0.000 C 
ENDBRANCH   7  12
TORSDOF 1
ENDMDL
