MODEL 1
REMARK VINA RESULT:      -7.7      0.000      0.000
REMARK  Name = 
REMARK  9 active torsions:
REMARK  status: ('A' for Active; 'I' for Inactive)
REMARK    1  A    between atoms: C_1  and  O_2
REMARK    2  A    between atoms: O_2  and  C_3
REMARK    3  A    between atoms: C_6  and  C_7
REMARK    4  A    between atoms: C_7  and  C_8
REMARK    5  A    between atoms: N_15  and  C_16
REMARK    6  A    between atoms: C_16  and  C_17
REMARK    7  A    between atoms: C_17  and  N_18
REMARK    8  A    between atoms: C_20  and  C_21
REMARK    9  A    between atoms: C_23  and  C_24
REMARK                            x       y       z     vdW  Elec       q    Type
REMARK                         _______ _______ _______ _____ _____    ______ ____
ROOT
ATOM      1  C   UNL     1       2.201   7.258  19.390  0.00  0.00    +0.000 A 
ATOM      2  N   UNL     1       2.352   7.696  18.109  0.00  0.00    +0.000 NA
ATOM      3  C   UNL     1       1.975   8.963  17.839  0.00  0.00    +0.000 A 
ATOM      4  C   UNL     1       1.452   9.769  18.801  0.00  0.00    +0.000 A 
ATOM      5  C   UNL     1       1.341   9.235  20.060  0.00  0.00    +0.000 A 
ATOM      6  N   UNL     1       1.697   7.993  20.406  0.00  0.00    +0.000 NA
ATOM      7  C   UNL     1       0.726  10.271  20.962  0.00  0.00    +0.000 C 
ATOM      8  N   UNL     1       0.136  11.309  20.047  0.00  0.00    +0.000 NA
ATOM      9  C   UNL     1       0.953  11.167  18.793  0.00  0.00    +0.000 C 
ENDROOT
BRANCH   1  10
ATOM     10  C   UNL     1       2.643   5.847  19.701  0.00  0.00    +0.000 C 
BRANCH  10  14
ATOM     11  C   UNL     1       5.400   4.181  16.815  0.00  0.00    +0.000 A 
ATOM     12  C   UNL     1       4.031   3.933  16.707  0.00  0.00    +0.000 A 
ATOM     13  C   UNL     1       3.135   4.486  17.627  0.00  0.00    +0.000 A 
ATOM     14  C   UNL     1       3.603   5.282  18.679  0.00  0.00    +0.000 A 
ATOM     15  C   UNL     1       4.981   5.507  18.797  0.00  0.00    +0.000 A 
ATOM     16  C   UNL     1       5.874   4.963  17.868  0.00  0.00    +0.000 A 
BRANCH  11  18
ATOM     17  C   UNL     1       6.180   4.194  14.586  0.00  0.00    +0.000 C 
ATOM     18  O   UNL     1       6.183   3.577  15.868  0.00  0.00    +0.000 OA
ENDBRANCH  11  18
ENDBRANCH  10  14
ENDBRANCH   1  10
BRANCH   8  19
ATOM     19  C   UNL     1      -1.283  10.992  19.732  0.00  0.00    +0.000 C 
BRANCH  19  20
ATOM     20  C   UNL     1      -2.053  12.147  19.080  0.00  0.00    +0.000 C 
BRANCH  20  21
ATOM     21  N   UNL     1      -2.878  11.677  17.979  0.00  0.00    +0.000 N 
ATOM     22  N   UNL     1      -2.271  11.206  16.873  0.00  0.00    +0.000 NA
ATOM     23  C   UNL     1      -3.282  10.839  16.076  0.00  0.00    +0.000 A 
ATOM     24  C   UNL     1      -3.020  10.243  14.745  0.00  0.00    +0.000 C 
ATOM     25  C   UNL     1      -4.534  11.095  16.677  0.00  0.00    +0.000 A 
ATOM     26  C   UNL     1      -4.245  11.637  17.910  0.00  0.00    +0.000 A 
ATOM     27  C   UNL     1      -5.136  12.106  18.997  0.00  0.00    +0.000 C 
ENDBRANCH  20  21
ENDBRANCH  19  20
ENDBRANCH   8  19
TORSDOF 6
ENDMDL
MODEL 2
REMARK VINA RESULT:      -7.5      4.134      9.603
REMARK  Name = 
REMARK  9 active torsions:
REMARK  status: ('A' for Active; 'I' for Inactive)
REMARK    1  A    between atoms: C_1  and  O_2
REMARK    2  A    between atoms: O_2  and  C_3
REMARK    3  A    between atoms: C_6  and  C_7
REMARK    4  A    between atoms: C_7  and  C_8
REMARK    5  A    between atoms: N_15  and  C_16
REMARK    6  A    between atoms: C_16  and  C_17
REMARK    7  A    between atoms: C_17  and  N_18
REMARK    8  A    between atoms: C_20  and  C_21
REMARK    9  A    between atoms: C_23  and  C_24
REMARK                            x       y       z     vdW  Elec       q    Type
REMARK                         _______ _______ _______ _____ _____    ______ ____
ROOT
ATOM      1  C   UNL     1       2.578   7.281  18.028  0.00  0.00    +0.000 A 
ATOM      2  N   UNL     1       1.951   6.124  18.378  0.00  0.00    +0.000 NA
ATOM      3  C   UNL     1       2.712   5.015  18.487  0.00  0.00    +0.000 A 
ATOM      4  C   UNL     1       4.050   5.045  18.246  0.00  0.00    +0.000 A 
ATOM      5  C   UNL     1       4.588   6.259  17.901  0.00  0.00    +0.000 A 
ATOM      6  N   UNL     1       3.901   7.400  17.776  0.00  0.00    +0.000 NA
ATOM      7  C   UNL     1       6.061   6.073  17.657  0.00  0.00    +0.000 C 
ATOM      8  N   UNL     1       6.265   4.589  17.514  0.00  0.00    +0.000 NA
ATOM      9  C   UNL     1       5.110   4.006  18.278  0.00  0.00    +0.000 C 
ENDROOT
BRANCH   1  10
ATOM     10  C   UNL     1       1.733   8.529  17.925  0.00  0.00    +0.000 C 
BRANCH  10  14
ATOM     11  C   UNL     1       0.387  10.016  21.757  0.00  0.00    +0.000 A 
ATOM     12  C   UNL     1       1.105   8.822  21.676  0.00  0.00    +0.000 A 
ATOM     13  C   UNL     1       1.558   8.348  20.442  0.00  0.00    +0.000 A 
ATOM     14  C   UNL     1       1.282   9.058  19.268  0.00  0.00    +0.000 A 
ATOM     15  C   UNL     1       0.539  10.244  19.352  0.00  0.00    +0.000 A 
ATOM     16  C   UNL     1       0.099  10.721  20.590  0.00  0.00    +0.000 A 
BRANCH  11  18
ATOM     17  C   UNL     1      -1.241  11.098  23.082  0.00  0.00    +0.000 C 
ATOM     18  O   UNL     1      -0.018  10.374  23.015  0.00  0.00    +0.000 OA
ENDBRANCH  11  18
ENDBRANCH  10  14
ENDBRANCH   1  10
BRANCH   8  19
ATOM     19  C   UNL     1       6.155   4.175  16.089  0.00  0.00    +0.000 C 
BRANCH  19  20
ATOM     20  C   UNL     1       7.116   4.911  15.147  0.00  0.00    +0.000 C 
BRANCH  20  21
ATOM     21  N   UNL     1       6.953   4.465  13.772  0.00  0.00    +0.000 N 
ATOM     22  N   UNL     1       6.049   3.503  13.509  0.00  0.00    +0.000 NA
ATOM     23  C   UNL     1       6.122   3.339  12.182  0.00  0.00    +0.000 A 
ATOM     24  C   UNL     1       5.250   2.360  11.491  0.00  0.00    +0.000 C 
ATOM     25  C   UNL     1       7.089   4.192  11.609  0.00  0.00    +0.000 A 
ATOM     26  C   UNL     1       7.613   4.912  12.660  0.00  0.00    +0.000 A 
ATOM     27  C   UNL     1       8.660   5.961  12.691  0.00  0.00    +0.000 C 
ENDBRANCH  20  21
ENDBRANCH  19  20
ENDBRANCH   8  19
TORSDOF 6
ENDMDL
MODEL 3
REMARK VINA RESULT:      -7.4      0.592      1.691
REMARK  Name = 
REMARK  9 active torsions:
REMARK  status: ('A' for Active; 'I' for Inactive)
REMARK    1  A    between atoms: C_1  and  O_2
REMARK    2  A    between atoms: O_2  and  C_3
REMARK    3  A    between atoms: C_6  and  C_7
REMARK    4  A    between atoms: C_7  and  C_8
REMARK    5  A    between atoms: N_15  and  C_16
REMARK    6  A    between atoms: C_16  and  C_17
REMARK    7  A    between atoms: C_17  and  N_18
REMARK    8  A    between atoms: C_20  and  C_21
REMARK    9  A    between atoms: C_23  and  C_24
REMARK                            x       y       z     vdW  Elec       q    Type
REMARK                         _______ _______ _______ _____ _____    ______ ____
ROOT
ATOM      1  C   UNL     1       2.301   7.244  19.281  0.00  0.00    +0.000 A 
ATOM      2  N   UNL     1       2.603   7.785  18.068  0.00  0.00    +0.000 NA
ATOM      3  C   UNL     1       2.223   9.060  17.845  0.00  0.00    +0.000 A 
ATOM      4  C   UNL     1       1.554   9.777  18.787  0.00  0.00    +0.000 A 
ATOM      5  C   UNL     1       1.297   9.144  19.976  0.00  0.00    +0.000 A 
ATOM      6  N   UNL     1       1.644   7.886  20.273  0.00  0.00    +0.000 NA
ATOM      7  C   UNL     1       0.535  10.092  20.863  0.00  0.00    +0.000 C 
ATOM      8  N   UNL     1       0.037  11.185  19.958  0.00  0.00    +0.000 NA
ATOM      9  C   UNL     1       1.015  11.160  18.816  0.00  0.00    +0.000 C 
ENDROOT
BRANCH   1  10
ATOM     10  C   UNL     1       2.743   5.824  19.541  0.00  0.00    +0.000 C 
BRANCH  10  14
ATOM     11  C   UNL     1       5.879   4.437  16.905  0.00  0.00    +0.000 A 
ATOM     12  C   UNL     1       4.538   4.269  16.556  0.00  0.00    +0.000 A 
ATOM     13  C   UNL     1       3.523   4.733  17.396  0.00  0.00    +0.000 A 
ATOM     14  C   UNL     1       3.838   5.358  18.609  0.00  0.00    +0.000 A 
ATOM     15  C   UNL     1       5.186   5.501  18.966  0.00  0.00    +0.000 A 
ATOM     16  C   UNL     1       6.200   5.046  18.117  0.00  0.00    +0.000 A 
BRANCH  11  18
ATOM     17  C   UNL     1       6.394   3.979  14.647  0.00  0.00    +0.000 C 
ATOM     18  O   UNL     1       6.786   3.930  16.014  0.00  0.00    +0.000 OA
ENDBRANCH  11  18
ENDBRANCH  10  14
ENDBRANCH   1  10
BRANCH   8  19
ATOM     19  C   UNL     1      -1.317  10.862  19.435  0.00  0.00    +0.000 C 
BRANCH  19  20
ATOM     20  C   UNL     1      -1.726  11.682  18.205  0.00  0.00    +0.000 C 
BRANCH  20  21
ATOM     21  N   UNL     1      -3.163  11.628  17.987  0.00  0.00    +0.000 N 
ATOM     22  N   UNL     1      -3.982  11.957  19.004  0.00  0.00    +0.000 NA
ATOM     23  C   UNL     1      -5.211  11.832  18.487  0.00  0.00    +0.000 A 
ATOM     24  C   UNL     1      -6.410  12.130  19.305  0.00  0.00    +0.000 C 
ATOM     25  C   UNL     1      -5.165  11.407  17.141  0.00  0.00    +0.000 A 
ATOM     26  C   UNL     1      -3.826  11.282  16.841  0.00  0.00    +0.000 A 
ATOM     27  C   UNL     1      -3.147  10.875  15.589  0.00  0.00    +0.000 C 
ENDBRANCH  20  21
ENDBRANCH  19  20
ENDBRANCH   8  19
TORSDOF 6
ENDMDL
MODEL 4
REMARK VINA RESULT:      -7.3      3.305      9.218
REMARK  Name = 
REMARK  9 active torsions:
REMARK  status: ('A' for Active; 'I' for Inactive)
REMARK    1  A    between atoms: C_1  and  O_2
REMARK    2  A    between atoms: O_2  and  C_3
REMARK    3  A    between atoms: C_6  and  C_7
REMARK    4  A    between atoms: C_7  and  C_8
REMARK    5  A    between atoms: N_15  and  C_16
REMARK    6  A    between atoms: C_16  and  C_17
REMARK    7  A    between atoms: C_17  and  N_18
REMARK    8  A    between atoms: C_20  and  C_21
REMARK    9  A    between atoms: C_23  and  C_24
REMARK                            x       y       z     vdW  Elec       q    Type
REMARK                         _______ _______ _______ _____ _____    ______ ____
ROOT
ATOM      1  C   UNL     1       1.388   9.407  19.551  0.00  0.00    +0.000 A 
ATOM      2  N   UNL     1       1.767   9.513  18.247  0.00  0.00    +0.000 NA
ATOM      3  C   UNL     1       2.217   8.396  17.639  0.00  0.00    +0.000 A 
ATOM      4  C   UNL     1       2.302   7.212  18.301  0.00  0.00    +0.000 A 
ATOM      5  C   UNL     1       1.896   7.207  19.611  0.00  0.00    +0.000 A 
ATOM      6  N   UNL     1       1.435   8.269  20.281  0.00  0.00    +0.000 NA
ATOM      7  C   UNL     1       2.090   5.820  20.163  0.00  0.00    +0.000 C 
ATOM      8  N   UNL     1       2.996   5.118  19.189  0.00  0.00    +0.000 NA
ATOM      9  C   UNL     1       2.757   5.857  17.902  0.00  0.00    +0.000 C 
ENDROOT
BRANCH   1  10
ATOM     10  C   UNL     1       0.863  10.650  20.229  0.00  0.00    +0.000 C 
BRANCH  10  14
ATOM     11  C   UNL     1      -3.109  11.773  18.939  0.00  0.00    +0.000 A 
ATOM     12  C   UNL     1      -2.420  10.747  18.290  0.00  0.00    +0.000 A 
ATOM     13  C   UNL     1      -1.144  10.369  18.716  0.00  0.00    +0.000 A 
ATOM     14  C   UNL     1      -0.534  11.027  19.791  0.00  0.00    +0.000 A 
ATOM     15  C   UNL     1      -1.220  12.072  20.423  0.00  0.00    +0.000 A 
ATOM     16  C   UNL     1      -2.502  12.440  20.002  0.00  0.00    +0.000 A 
BRANCH  11  18
ATOM     17  C   UNL     1      -5.012  10.989  17.780  0.00  0.00    +0.000 C 
ATOM     18  O   UNL     1      -4.344  12.067  18.426  0.00  0.00    +0.000 OA
ENDBRANCH  11  18
ENDBRANCH  10  14
ENDBRANCH   1  10
BRANCH   8  19
ATOM     19  C   UNL     1       4.422   5.284  19.579  0.00  0.00    +0.000 C 
BRANCH  19  20
ATOM     20  C   UNL     1       5.334   4.140  19.119  0.00  0.00    +0.000 C 
BRANCH  20  21
ATOM     21  N   UNL     1       5.981   4.455  17.856  0.00  0.00    +0.000 N 
ATOM     22  N   UNL     1       5.485   3.917  16.725  0.00  0.00    +0.000 NA
ATOM     23  C   UNL     1       6.268   4.409  15.757  0.00  0.00    +0.000 A 
ATOM     24  C   UNL     1       6.028   4.060  14.338  0.00  0.00    +0.000 C 
ATOM     25  C   UNL     1       7.274   5.249  16.284  0.00  0.00    +0.000 A 
ATOM     26  C   UNL     1       7.066   5.263  17.645  0.00  0.00    +0.000 A 
ATOM     27  C   UNL     1       7.792   5.962  18.730  0.00  0.00    +0.000 C 
ENDBRANCH  20  21
ENDBRANCH  19  20
ENDBRANCH   8  19
TORSDOF 6
ENDMDL
MODEL 5
REMARK VINA RESULT:      -7.3      2.209      2.926
REMARK  Name = 
REMARK  9 active torsions:
REMARK  status: ('A' for Active; 'I' for Inactive)
REMARK    1  A    between atoms: C_1  and  O_2
REMARK    2  A    between atoms: O_2  and  C_3
REMARK    3  A    between atoms: C_6  and  C_7
REMARK    4  A    between atoms: C_7  and  C_8
REMARK    5  A    between atoms: N_15  and  C_16
REMARK    6  A    between atoms: C_16  and  C_17
REMARK    7  A    between atoms: C_17  and  N_18
REMARK    8  A    between atoms: C_20  and  C_21
REMARK    9  A    between atoms: C_23  and  C_24
REMARK                            x       y       z     vdW  Elec       q    Type
REMARK                         _______ _______ _______ _____ _____    ______ ____
ROOT
ATOM      1  C   UNL     1       2.383   8.385  18.241  0.00  0.00    +0.000 A 
ATOM      2  N   UNL     1       2.543   9.470  17.433  0.00  0.00    +0.000 NA
ATOM      3  C   UNL     1       1.974  10.627  17.828  0.00  0.00    +0.000 A 
ATOM      4  C   UNL     1       1.258  10.710  18.981  0.00  0.00    +0.000 A 
ATOM      5  C   UNL     1       1.154   9.563  19.726  0.00  0.00    +0.000 A 
ATOM      6  N   UNL     1       1.692   8.381  19.403  0.00  0.00    +0.000 NA
ATOM      7  C   UNL     1       0.311   9.858  20.936  0.00  0.00    +0.000 C 
ATOM      8  N   UNL     1      -0.384  11.159  20.641  0.00  0.00    +0.000 NA
ATOM      9  C   UNL     1       0.528  11.819  19.645  0.00  0.00    +0.000 C 
ENDROOT
BRANCH   1  10
ATOM     10  C   UNL     1       3.037   7.094  17.812  0.00  0.00    +0.000 C 
BRANCH  10  14
ATOM     11  C   UNL     1       1.534   3.590  19.856  0.00  0.00    +0.000 A 
ATOM     12  C   UNL     1       2.264   4.554  20.552  0.00  0.00    +0.000 A 
ATOM     13  C   UNL     1       2.735   5.697  19.899  0.00  0.00    +0.000 A 
ATOM     14  C   UNL     1       2.494   5.880  18.532  0.00  0.00    +0.000 A 
ATOM     15  C   UNL     1       1.781   4.897  17.833  0.00  0.00    +0.000 A 
ATOM     16  C   UNL     1       1.301   3.761  18.492  0.00  0.00    +0.000 A 
BRANCH  11  18
ATOM     17  C   UNL     1       1.654   2.445  21.917  0.00  0.00    +0.000 C 
ATOM     18  O   UNL     1       1.137   2.508  20.593  0.00  0.00    +0.000 OA
ENDBRANCH  11  18
ENDBRANCH  10  14
ENDBRANCH   1  10
BRANCH   8  19
ATOM     19  C   UNL     1      -1.703  10.920  19.997  0.00  0.00    +0.000 C 
BRANCH  19  20
ATOM     20  C   UNL     1      -2.235  12.115  19.196  0.00  0.00    +0.000 C 
BRANCH  20  21
ATOM     21  N   UNL     1      -2.987  11.678  18.031  0.00  0.00    +0.000 N 
ATOM     22  N   UNL     1      -2.313  11.179  16.978  0.00  0.00    +0.000 NA
ATOM     23  C   UNL     1      -3.270  10.853  16.100  0.00  0.00    +0.000 A 
ATOM     24  C   UNL     1      -2.926  10.243  14.795  0.00  0.00    +0.000 C 
ATOM     25  C   UNL     1      -4.554  11.164  16.598  0.00  0.00    +0.000 A 
ATOM     26  C   UNL     1      -4.344  11.696  17.851  0.00  0.00    +0.000 A 
ATOM     27  C   UNL     1      -5.300  12.206  18.862  0.00  0.00    +0.000 C 
ENDBRANCH  20  21
ENDBRANCH  19  20
ENDBRANCH   8  19
TORSDOF 6
ENDMDL
MODEL 6
REMARK VINA RESULT:      -7.2      3.919      9.323
REMARK  Name = 
REMARK  9 active torsions:
REMARK  status: ('A' for Active; 'I' for Inactive)
REMARK    1  A    between atoms: C_1  and  O_2
REMARK    2  A    between atoms: O_2  and  C_3
REMARK    3  A    between atoms: C_6  and  C_7
REMARK    4  A    between atoms: C_7  and  C_8
REMARK    5  A    between atoms: N_15  and  C_16
REMARK    6  A    between atoms: C_16  and  C_17
REMARK    7  A    between atoms: C_17  and  N_18
REMARK    8  A    between atoms: C_20  and  C_21
REMARK    9  A    between atoms: C_23  and  C_24
REMARK                            x       y       z     vdW  Elec       q    Type
REMARK                         _______ _______ _______ _____ _____    ______ ____
ROOT
ATOM      1  C   UNL     1       2.346   5.542  19.800  0.00  0.00    +0.000 A 
ATOM      2  N   UNL     1       1.533   4.770  19.027  0.00  0.00    +0.000 NA
ATOM      3  C   UNL     1       2.119   3.993  18.093  0.00  0.00    +0.000 A 
ATOM      4  C   UNL     1       3.468   3.987  17.919  0.00  0.00    +0.000 A 
ATOM      5  C   UNL     1       4.200   4.798  18.747  0.00  0.00    +0.000 A 
ATOM      6  N   UNL     1       3.693   5.592  19.697  0.00  0.00    +0.000 NA
ATOM      7  C   UNL     1       5.653   4.664  18.379  0.00  0.00    +0.000 C 
ATOM      8  N   UNL     1       5.671   4.007  17.026  0.00  0.00    +0.000 NA
ATOM      9  C   UNL     1       4.367   3.261  16.987  0.00  0.00    +0.000 C 
ENDROOT
BRANCH   1  10
ATOM     10  C   UNL     1       1.695   6.397  20.861  0.00  0.00    +0.000 C 
BRANCH  10  14
ATOM     11  C   UNL     1       0.975  10.465  19.581  0.00  0.00    +0.000 A 
ATOM     12  C   UNL     1       1.497   9.527  18.690  0.00  0.00    +0.000 A 
ATOM     13  C   UNL     1       1.713   8.207  19.094  0.00  0.00    +0.000 A 
ATOM     14  C   UNL     1       1.424   7.813  20.406  0.00  0.00    +0.000 A 
ATOM     15  C   UNL     1       0.923   8.765  21.304  0.00  0.00    +0.000 A 
ATOM     16  C   UNL     1       0.697  10.082  20.892  0.00  0.00    +0.000 A 
BRANCH  11  18
ATOM     17  C   UNL     1      -0.484  12.043  18.602  0.00  0.00    +0.000 C 
ATOM     18  O   UNL     1       0.820  11.729  19.079  0.00  0.00    +0.000 OA
ENDBRANCH  11  18
ENDBRANCH  10  14
ENDBRANCH   1  10
BRANCH   8  19
ATOM     19  C   UNL     1       5.672   5.027  15.943  0.00  0.00    +0.000 C 
BRANCH  19  20
ATOM     20  C   UNL     1       7.008   5.151  15.200  0.00  0.00    +0.000 C 
BRANCH  20  21
ATOM     21  N   UNL     1       6.914   4.617  13.851  0.00  0.00    +0.000 N 
ATOM     22  N   UNL     1       6.012   3.649  13.602  0.00  0.00    +0.000 NA
ATOM     23  C   UNL     1       6.155   3.397  12.294  0.00  0.00    +0.000 A 
ATOM     24  C   UNL     1       5.309   2.384  11.621  0.00  0.00    +0.000 C 
ATOM     25  C   UNL     1       7.164   4.201  11.721  0.00  0.00    +0.000 A 
ATOM     26  C   UNL     1       7.640   4.984  12.750  0.00  0.00    +0.000 A 
ATOM     27  C   UNL     1       8.697   6.021  12.770  0.00  0.00    +0.000 C 
ENDBRANCH  20  21
ENDBRANCH  19  20
ENDBRANCH   8  19
TORSDOF 6
ENDMDL
MODEL 7
REMARK VINA RESULT:      -7.2      0.775      2.001
REMARK  Name = 
REMARK  9 active torsions:
REMARK  status: ('A' for Active; 'I' for Inactive)
REMARK    1  A    between atoms: C_1  and  O_2
REMARK    2  A    between atoms: O_2  and  C_3
REMARK    3  A    between atoms: C_6  and  C_7
REMARK    4  A    between atoms: C_7  and  C_8
REMARK    5  A    between atoms: N_15  and  C_16
REMARK    6  A    between atoms: C_16  and  C_17
REMARK    7  A    between atoms: C_17  and  N_18
REMARK    8  A    between atoms: C_20  and  C_21
REMARK    9  A    between atoms: C_23  and  C_24
REMARK                            x       y       z     vdW  Elec       q    Type
REMARK                         _______ _______ _______ _____ _____    ______ ____
ROOT
ATOM      1  C   UNL     1       2.322   7.158  19.130  0.00  0.00    +0.000 A 
ATOM      2  N   UNL     1       2.509   7.714  17.901  0.00  0.00    +0.000 NA
ATOM      3  C   UNL     1       2.137   9.001  17.740  0.00  0.00    +0.000 A 
ATOM      4  C   UNL     1       1.586   9.714  18.757  0.00  0.00    +0.000 A 
ATOM      5  C   UNL     1       1.439   9.065  19.957  0.00  0.00    +0.000 A 
ATOM      6  N   UNL     1       1.787   7.795  20.196  0.00  0.00    +0.000 NA
ATOM      7  C   UNL     1       0.795  10.012  20.933  0.00  0.00    +0.000 C 
ATOM      8  N   UNL     1       0.231  11.131  20.102  0.00  0.00    +0.000 NA
ATOM      9  C   UNL     1       1.084  11.107  18.865  0.00  0.00    +0.000 C 
ENDROOT
BRANCH   1  10
ATOM     10  C   UNL     1       2.758   5.724  19.321  0.00  0.00    +0.000 C 
BRANCH  10  14
ATOM     11  C   UNL     1       6.128   4.668  16.824  0.00  0.00    +0.000 A 
ATOM     12  C   UNL     1       6.322   5.386  18.005  0.00  0.00    +0.000 A 
ATOM     13  C   UNL     1       5.238   5.713  18.824  0.00  0.00    +0.000 A 
ATOM     14  C   UNL     1       3.939   5.338  18.460  0.00  0.00    +0.000 A 
ATOM     15  C   UNL     1       3.747   4.638  17.261  0.00  0.00    +0.000 A 
ATOM     16  C   UNL     1       4.836   4.302  16.450  0.00  0.00    +0.000 A 
BRANCH  11  18
ATOM     17  C   UNL     1       7.207   4.807  14.728  0.00  0.00    +0.000 C 
ATOM     18  O   UNL     1       7.260   4.418  16.096  0.00  0.00    +0.000 OA
ENDBRANCH  11  18
ENDBRANCH  10  14
ENDBRANCH   1  10
BRANCH   8  19
ATOM     19  C   UNL     1      -1.178  10.846  19.718  0.00  0.00    +0.000 C 
BRANCH  19  20
ATOM     20  C   UNL     1      -1.682  11.671  18.528  0.00  0.00    +0.000 C 
BRANCH  20  21
ATOM     21  N   UNL     1      -3.121  11.538  18.364  0.00  0.00    +0.000 N 
ATOM     22  N   UNL     1      -3.930  12.173  19.233  0.00  0.00    +0.000 NA
ATOM     23  C   UNL     1      -5.165  11.878  18.807  0.00  0.00    +0.000 A 
ATOM     24  C   UNL     1      -6.356  12.416  19.504  0.00  0.00    +0.000 C 
ATOM     25  C   UNL     1      -5.132  11.039  17.671  0.00  0.00    +0.000 A 
ATOM     26  C   UNL     1      -3.796  10.834  17.404  0.00  0.00    +0.000 A 
ATOM     27  C   UNL     1      -3.129  10.047  16.341  0.00  0.00    +0.000 C 
ENDBRANCH  20  21
ENDBRANCH  19  20
ENDBRANCH   8  19
TORSDOF 6
ENDMDL
MODEL 8
REMARK VINA RESULT:      -7.2      4.393      9.292
REMARK  Name = 
REMARK  9 active torsions:
REMARK  status: ('A' for Active; 'I' for Inactive)
REMARK    1  A    between atoms: C_1  and  O_2
REMARK    2  A    between atoms: O_2  and  C_3
REMARK    3  A    between atoms: C_6  and  C_7
REMARK    4  A    between atoms: C_7  and  C_8
REMARK    5  A    between atoms: N_15  and  C_16
REMARK    6  A    between atoms: C_16  and  C_17
REMARK    7  A    between atoms: C_17  and  N_18
REMARK    8  A    between atoms: C_20  and  C_21
REMARK    9  A    between atoms: C_23  and  C_24
REMARK                            x       y       z     vdW  Elec       q    Type
REMARK                         _______ _______ _______ _____ _____    ______ ____
ROOT
ATOM      1  C   UNL     1       2.312   5.498  19.809  0.00  0.00    +0.000 A 
ATOM      2  N   UNL     1       1.514   4.710  19.037  0.00  0.00    +0.000 NA
ATOM      3  C   UNL     1       2.115   3.944  18.103  0.00  0.00    +0.000 A 
ATOM      4  C   UNL     1       3.463   3.965  17.928  0.00  0.00    +0.000 A 
ATOM      5  C   UNL     1       4.180   4.791  18.755  0.00  0.00    +0.000 A 
ATOM      6  N   UNL     1       3.658   5.575  19.705  0.00  0.00    +0.000 NA
ATOM      7  C   UNL     1       5.635   4.685  18.387  0.00  0.00    +0.000 C 
ATOM      8  N   UNL     1       5.666   4.028  17.034  0.00  0.00    +0.000 NA
ATOM      9  C   UNL     1       4.376   3.256  16.997  0.00  0.00    +0.000 C 
ENDROOT
BRANCH   1  10
ATOM     10  C   UNL     1       1.644   6.341  20.869  0.00  0.00    +0.000 C 
BRANCH  10  14
ATOM     11  C   UNL     1       1.102  10.468  19.695  0.00  0.00    +0.000 A 
ATOM     12  C   UNL     1       0.820  10.063  21.000  0.00  0.00    +0.000 A 
ATOM     13  C   UNL     1       1.012   8.734  21.389  0.00  0.00    +0.000 A 
ATOM     14  C   UNL     1       1.474   7.788  20.466  0.00  0.00    +0.000 A 
ATOM     15  C   UNL     1       1.732   8.195  19.150  0.00  0.00    +0.000 A 
ATOM     16  C   UNL     1       1.551   9.528  18.769  0.00  0.00    +0.000 A 
BRANCH  11  18
ATOM     17  C   UNL     1       1.721  12.382  18.458  0.00  0.00    +0.000 C 
ATOM     18  O   UNL     1       0.862  11.788  19.425  0.00  0.00    +0.000 OA
ENDBRANCH  11  18
ENDBRANCH  10  14
ENDBRANCH   1  10
BRANCH   8  19
ATOM     19  C   UNL     1       5.645   5.047  15.951  0.00  0.00    +0.000 C 
BRANCH  19  20
ATOM     20  C   UNL     1       6.979   5.199  15.209  0.00  0.00    +0.000 C 
BRANCH  20  21
ATOM     21  N   UNL     1       6.902   4.648  13.865  0.00  0.00    +0.000 N 
ATOM     22  N   UNL     1       5.991   3.690  13.612  0.00  0.00    +0.000 NA
ATOM     23  C   UNL     1       6.154   3.419  12.311  0.00  0.00    +0.000 A 
ATOM     24  C   UNL     1       5.305   2.409  11.636  0.00  0.00    +0.000 C 
ATOM     25  C   UNL     1       7.185   4.200  11.746  0.00  0.00    +0.000 A 
ATOM     26  C   UNL     1       7.654   4.989  12.773  0.00  0.00    +0.000 A 
ATOM     27  C   UNL     1       8.726   6.011  12.800  0.00  0.00    +0.000 C 
ENDBRANCH  20  21
ENDBRANCH  19  20
ENDBRANCH   8  19
TORSDOF 6
ENDMDL
MODEL 9
REMARK VINA RESULT:      -7.1      1.647      1.920
REMARK  Name = 
REMARK  9 active torsions:
REMARK  status: ('A' for Active; 'I' for Inactive)
REMARK    1  A    between atoms: C_1  and  O_2
REMARK    2  A    between atoms: O_2  and  C_3
REMARK    3  A    between atoms: C_6  and  C_7
REMARK    4  A    between atoms: C_7  and  C_8
REMARK    5  A    between atoms: N_15  and  C_16
REMARK    6  A    between atoms: C_16  and  C_17
REMARK    7  A    between atoms: C_17  and  N_18
REMARK    8  A    between atoms: C_20  and  C_21
REMARK    9  A    between atoms: C_23  and  C_24
REMARK                            x       y       z     vdW  Elec       q    Type
REMARK                         _______ _______ _______ _____ _____    ______ ____
ROOT
ATOM      1  C   UNL     1       1.769   8.514  18.448  0.00  0.00    +0.000 A 
ATOM      2  N   UNL     1       1.941   9.603  17.647  0.00  0.00    +0.000 NA
ATOM      3  C   UNL     1       1.726  10.816  18.196  0.00  0.00    +0.000 A 
ATOM      4  C   UNL     1       1.343  10.951  19.494  0.00  0.00    +0.000 A 
ATOM      5  C   UNL     1       1.197   9.795  20.218  0.00  0.00    +0.000 A 
ATOM      6  N   UNL     1       1.394   8.559  19.746  0.00  0.00    +0.000 NA
ATOM      7  C   UNL     1       0.749  10.159  21.607  0.00  0.00    +0.000 C 
ATOM      8  N   UNL     1       0.277  11.585  21.523  0.00  0.00    +0.000 NA
ATOM      9  C   UNL     1       1.033  12.129  20.342  0.00  0.00    +0.000 C 
ENDROOT
BRANCH   1  10
ATOM     10  C   UNL     1       2.028   7.155  17.842  0.00  0.00    +0.000 C 
BRANCH  10  14
ATOM     11  C   UNL     1       5.981   5.590  18.638  0.00  0.00    +0.000 A 
ATOM     12  C   UNL     1       5.776   6.490  17.591  0.00  0.00    +0.000 A 
ATOM     13  C   UNL     1       4.504   7.012  17.343  0.00  0.00    +0.000 A 
ATOM     14  C   UNL     1       3.414   6.625  18.132  0.00  0.00    +0.000 A 
ATOM     15  C   UNL     1       3.621   5.703  19.167  0.00  0.00    +0.000 A 
ATOM     16  C   UNL     1       4.898   5.192  19.420  0.00  0.00    +0.000 A 
BRANCH  11  18
ATOM     17  C   UNL     1       7.793   4.440  17.654  0.00  0.00    +0.000 C 
ATOM     18  O   UNL     1       7.264   5.134  18.778  0.00  0.00    +0.000 OA
ENDBRANCH  11  18
ENDBRANCH  10  14
ENDBRANCH   1  10
BRANCH   8  19
ATOM     19  C   UNL     1      -1.179  11.642  21.227  0.00  0.00    +0.000 C 
BRANCH  19  20
ATOM     20  C   UNL     1      -1.573  12.740  20.230  0.00  0.00    +0.000 C 
BRANCH  20  21
ATOM     21  N   UNL     1      -2.436  12.218  19.182  0.00  0.00    +0.000 N 
ATOM     22  N   UNL     1      -1.870  11.753  18.052  0.00  0.00    +0.000 NA
ATOM     23  C   UNL     1      -2.906  11.331  17.317  0.00  0.00    +0.000 A 
ATOM     24  C   UNL     1      -2.690  10.724  15.982  0.00  0.00    +0.000 C 
ATOM     25  C   UNL     1      -4.133  11.546  17.981  0.00  0.00    +0.000 A 
ATOM     26  C   UNL     1      -3.801  12.121  19.189  0.00  0.00    +0.000 A 
ATOM     27  C   UNL     1      -4.652  12.572  20.314  0.00  0.00    +0.000 C 
ENDBRANCH  20  21
ENDBRANCH  19  20
ENDBRANCH   8  19
TORSDOF 6
ENDMDL
