MODEL 1
REMARK VINA RESULT:      -7.2      0.000      0.000
REMARK  Name = 
REMARK  7 active torsions:
REMARK  status: ('A' for Active; 'I' for Inactive)
REMARK    1  A    between atoms: C_1  and  C_2
REMARK    2  A    between atoms: C_2  and  C_3
REMARK    3  A    between atoms: C_2  and  C_4
REMARK    4  A    between atoms: C_2  and  N_17
REMARK    5  A    between atoms: C_4  and  N_5
REMARK    6  A    between atoms: C_6  and  C_8
REMARK    7  A    between atoms: C_8  and  C_9
REMARK                            x       y       z     vdW  Elec       q    Type
REMARK                         _______ _______ _______ _____ _____    ______ ____
ROOT
ATOM      1  N   UNL     1       8.468   8.000  18.596  0.00  0.00    +0.000 N 
ATOM      2  C   UNL     1       8.512   9.370  18.471  0.00  0.00    +0.000 C 
ATOM      3  O   UNL     1       7.830   9.991  17.656  0.00  0.00    +0.000 OA
ATOM      4  H   UNL     1       9.090   7.511  19.240  0.00  0.00    +0.000 HD
ENDROOT
BRANCH   1   5
ATOM      5  C   UNL     1       7.646   7.192  17.713  0.00  0.00    +0.000 C 
BRANCH   5   7
ATOM      6  C   UNL     1       7.468   4.726  17.346  0.00  0.00    +0.000 C 
ATOM      7  C   UNL     1       7.130   5.857  18.356  0.00  0.00    +0.000 C 
ATOM      8  C   UNL     1       7.993   5.616  19.621  0.00  0.00    +0.000 C 
BRANCH   7   9
ATOM      9  N   UNL     1       5.647   5.884  18.646  0.00  0.00    +0.000 NA
ATOM     10  C   UNL     1       4.848   6.447  17.532  0.00  0.00    +0.000 C 
ATOM     11  C   UNL     1       3.343   6.486  17.812  0.00  0.00    +0.000 C 
ATOM     12  C   UNL     1       2.820   5.105  18.168  0.00  0.00    +0.000 C 
ATOM     13  C   UNL     1       3.612   4.566  19.344  0.00  0.00    +0.000 C 
ATOM     14  C   UNL     1       5.114   4.563  19.048  0.00  0.00    +0.000 C 
ENDBRANCH   7   9
ENDBRANCH   5   7
ENDBRANCH   1   5
BRANCH   2  15
ATOM     15  C   UNL     1       9.471  10.085  19.401  0.00  0.00    +0.000 C 
BRANCH  15  16
ATOM     16  C   UNL     1       9.915  11.442  18.903  0.00  0.00    +0.000 A 
ATOM     17  C   UNL     1      10.632  11.528  17.695  0.00  0.00    +0.000 A 
ATOM     18  C   UNL     1      11.128  12.757  17.241  0.00  0.00    +0.000 A 
ATOM     19  C   UNL     1      10.896  13.908  17.984  0.00  0.00    +0.000 A 
ATOM     20 CL   UNL     1      11.545  15.412  17.454  0.00  0.00    +0.000 Cl
ATOM     21  C   UNL     1      10.154  13.853  19.160  0.00  0.00    +0.000 A 
ATOM     22  C   UNL     1       9.662  12.628  19.614  0.00  0.00    +0.000 A 
ATOM     23 CL   UNL     1       8.756  12.631  21.085  0.00  0.00    +0.000 Cl
ENDBRANCH  15  16
ENDBRANCH   2  15
TORSDOF 5
ENDMDL
MODEL 2
REMARK VINA RESULT:      -7.1      4.167      6.215
REMARK  Name = 
REMARK  7 active torsions:
REMARK  status: ('A' for Active; 'I' for Inactive)
REMARK    1  A    between atoms: C_1  and  C_2
REMARK    2  A    between atoms: C_2  and  C_3
REMARK    3  A    between atoms: C_2  and  C_4
REMARK    4  A    between atoms: C_2  and  N_17
REMARK    5  A    between atoms: C_4  and  N_5
REMARK    6  A    between atoms: C_6  and  C_8
REMARK    7  A    between atoms: C_8  and  C_9
REMARK                            x       y       z     vdW  Elec       q    Type
REMARK                         _______ _______ _______ _____ _____    ______ ____
ROOT
ATOM      1  N   UNL     1       4.048   2.905  18.262  0.00  0.00    +0.000 N 
ATOM      2  C   UNL     1       5.207   3.586  18.559  0.00  0.00    +0.000 C 
ATOM      3  O   UNL     1       5.562   3.836  19.710  0.00  0.00    +0.000 OA
ATOM      4  H   UNL     1       3.753   2.766  17.295  0.00  0.00    +0.000 HD
ENDROOT
BRANCH   1   5
ATOM      5  C   UNL     1       3.132   2.492  19.309  0.00  0.00    +0.000 C 
BRANCH   5   7
ATOM      6  C   UNL     1       0.936   3.230  18.370  0.00  0.00    +0.000 C 
ATOM      7  C   UNL     1       1.931   3.475  19.539  0.00  0.00    +0.000 C 
ATOM      8  C   UNL     1       1.228   3.015  20.842  0.00  0.00    +0.000 C 
BRANCH   7   9
ATOM      9  N   UNL     1       2.360   4.924  19.576  0.00  0.00    +0.000 NA
ATOM     10  C   UNL     1       2.322   5.574  18.245  0.00  0.00    +0.000 C 
ATOM     11  C   UNL     1       2.759   7.042  18.264  0.00  0.00    +0.000 C 
ATOM     12  C   UNL     1       1.925   7.844  19.249  0.00  0.00    +0.000 C 
ATOM     13  C   UNL     1       2.018   7.196  20.617  0.00  0.00    +0.000 C 
ATOM     14  C   UNL     1       1.603   5.724  20.564  0.00  0.00    +0.000 C 
ENDBRANCH   7   9
ENDBRANCH   5   7
ENDBRANCH   1   5
BRANCH   2  15
ATOM     15  C   UNL     1       6.033   4.029  17.368  0.00  0.00    +0.000 C 
BRANCH  15  16
ATOM     16  C   UNL     1       6.695   5.377  17.545  0.00  0.00    +0.000 A 
ATOM     17  C   UNL     1       7.697   5.526  18.522  0.00  0.00    +0.000 A 
ATOM     18  C   UNL     1       8.277   6.776  18.769  0.00  0.00    +0.000 A 
ATOM     19  C   UNL     1       7.870   7.881  18.031  0.00  0.00    +0.000 A 
ATOM     20 CL   UNL     1       8.547   9.429  18.365  0.00  0.00    +0.000 Cl
ATOM     21  C   UNL     1       6.911   7.749  17.032  0.00  0.00    +0.000 A 
ATOM     22  C   UNL     1       6.330   6.503  16.787  0.00  0.00    +0.000 A 
ATOM     23 CL   UNL     1       5.139   6.413  15.538  0.00  0.00    +0.000 Cl
ENDBRANCH  15  16
ENDBRANCH   2  15
TORSDOF 5
ENDMDL
MODEL 3
REMARK VINA RESULT:      -6.9      6.586      8.048
REMARK  Name = 
REMARK  7 active torsions:
REMARK  status: ('A' for Active; 'I' for Inactive)
REMARK    1  A    between atoms: C_1  and  C_2
REMARK    2  A    between atoms: C_2  and  C_3
REMARK    3  A    between atoms: C_2  and  C_4
REMARK    4  A    between atoms: C_2  and  N_17
REMARK    5  A    between atoms: C_4  and  N_5
REMARK    6  A    between atoms: C_6  and  C_8
REMARK    7  A    between atoms: C_8  and  C_9
REMARK                            x       y       z     vdW  Elec       q    Type
REMARK                         _______ _______ _______ _____ _____    ______ ____
ROOT
ATOM      1  N   UNL     1       2.127   7.704  17.974  0.00  0.00    +0.000 N 
ATOM      2  C   UNL     1       1.762   9.023  17.823  0.00  0.00    +0.000 C 
ATOM      3  O   UNL     1       2.572   9.921  17.598  0.00  0.00    +0.000 OA
ATOM      4  H   UNL     1       1.438   6.993  18.219  0.00  0.00    +0.000 HD
ENDROOT
BRANCH   1   5
ATOM      5  C   UNL     1       3.522   7.303  17.939  0.00  0.00    +0.000 C 
BRANCH   5   7
ATOM      6  C   UNL     1       4.293   5.181  16.865  0.00  0.00    +0.000 C 
ATOM      7  C   UNL     1       3.759   5.774  18.199  0.00  0.00    +0.000 C 
ATOM      8  C   UNL     1       4.908   5.677  19.235  0.00  0.00    +0.000 C 
BRANCH   7   9
ATOM      9  N   UNL     1       2.505   5.053  18.635  0.00  0.00    +0.000 NA
ATOM     10  C   UNL     1       2.374   3.703  18.039  0.00  0.00    +0.000 C 
ATOM     11  C   UNL     1       1.105   2.960  18.468  0.00  0.00    +0.000 C 
ATOM     12  C   UNL     1       1.019   2.861  19.981  0.00  0.00    +0.000 C 
ATOM     13  C   UNL     1       1.100   4.254  20.573  0.00  0.00    +0.000 C 
ATOM     14  C   UNL     1       2.362   4.984  20.107  0.00  0.00    +0.000 C 
ENDBRANCH   7   9
ENDBRANCH   5   7
ENDBRANCH   1   5
BRANCH   2  15
ATOM     15  C   UNL     1       0.282   9.315  17.962  0.00  0.00    +0.000 C 
BRANCH  15  16
ATOM     16  C   UNL     1      -0.083  10.054  19.230  0.00  0.00    +0.000 A 
ATOM     17  C   UNL     1       0.432   9.602  20.460  0.00  0.00    +0.000 A 
ATOM     18  C   UNL     1       0.054  10.211  21.663  0.00  0.00    +0.000 A 
ATOM     19  C   UNL     1      -0.827  11.285  21.643  0.00  0.00    +0.000 A 
ATOM     20 CL   UNL     1      -1.331  12.005  23.123  0.00  0.00    +0.000 Cl
ATOM     21  C   UNL     1      -1.316  11.775  20.436  0.00  0.00    +0.000 A 
ATOM     22  C   UNL     1      -0.942  11.166  19.236  0.00  0.00    +0.000 A 
ATOM     23 CL   UNL     1      -1.593  11.821  17.775  0.00  0.00    +0.000 Cl
ENDBRANCH  15  16
ENDBRANCH   2  15
TORSDOF 5
ENDMDL
MODEL 4
REMARK VINA RESULT:      -6.9      6.375      7.410
REMARK  Name = 
REMARK  7 active torsions:
REMARK  status: ('A' for Active; 'I' for Inactive)
REMARK    1  A    between atoms: C_1  and  C_2
REMARK    2  A    between atoms: C_2  and  C_3
REMARK    3  A    between atoms: C_2  and  C_4
REMARK    4  A    between atoms: C_2  and  N_17
REMARK    5  A    between atoms: C_4  and  N_5
REMARK    6  A    between atoms: C_6  and  C_8
REMARK    7  A    between atoms: C_8  and  C_9
REMARK                            x       y       z     vdW  Elec       q    Type
REMARK                         _______ _______ _______ _____ _____    ______ ____
ROOT
ATOM      1  N   UNL     1       2.489   7.636  18.735  0.00  0.00    +0.000 N 
ATOM      2  C   UNL     1       1.908   8.822  18.345  0.00  0.00    +0.000 C 
ATOM      3  O   UNL     1       2.167   9.378  17.278  0.00  0.00    +0.000 OA
ATOM      4  H   UNL     1       2.297   7.233  19.652  0.00  0.00    +0.000 HD
ENDROOT
BRANCH   1   5
ATOM      5  C   UNL     1       3.508   6.997  17.921  0.00  0.00    +0.000 C 
BRANCH   5   7
ATOM      6  C   UNL     1       4.187   4.801  16.940  0.00  0.00    +0.000 C 
ATOM      7  C   UNL     1       3.753   5.486  18.265  0.00  0.00    +0.000 C 
ATOM      8  C   UNL     1       4.971   5.445  19.223  0.00  0.00    +0.000 C 
BRANCH   7   9
ATOM      9  N   UNL     1       2.527   4.810  18.835  0.00  0.00    +0.000 NA
ATOM     10  C   UNL     1       2.167   3.564  18.120  0.00  0.00    +0.000 C 
ATOM     11  C   UNL     1       0.924   2.868  18.681  0.00  0.00    +0.000 C 
ATOM     12  C   UNL     1       1.087   2.577  20.164  0.00  0.00    +0.000 C 
ATOM     13  C   UNL     1       1.402   3.871  20.889  0.00  0.00    +0.000 C 
ATOM     14  C   UNL     1       2.631   4.559  20.290  0.00  0.00    +0.000 C 
ENDBRANCH   7   9
ENDBRANCH   5   7
ENDBRANCH   1   5
BRANCH   2  15
ATOM     15  C   UNL     1       0.919   9.422  19.324  0.00  0.00    +0.000 C 
BRANCH  15  16
ATOM     16  C   UNL     1       0.597  10.876  19.059  0.00  0.00    +0.000 A 
ATOM     17  C   UNL     1       1.558  11.858  19.363  0.00  0.00    +0.000 A 
ATOM     18  C   UNL     1       1.266  13.219  19.206  0.00  0.00    +0.000 A 
ATOM     19  C   UNL     1       0.020  13.605  18.728  0.00  0.00    +0.000 A 
ATOM     20 CL   UNL     1      -0.359  15.278  18.579  0.00  0.00    +0.000 Cl
ATOM     21  C   UNL     1      -0.931  12.649  18.382  0.00  0.00    +0.000 A 
ATOM     22  C   UNL     1      -0.642  11.293  18.542  0.00  0.00    +0.000 A 
ATOM     23 CL   UNL     1      -1.871  10.161  18.100  0.00  0.00    +0.000 Cl
ENDBRANCH  15  16
ENDBRANCH   2  15
TORSDOF 5
ENDMDL
MODEL 5
REMARK VINA RESULT:      -6.9      6.432      8.467
REMARK  Name = 
REMARK  7 active torsions:
REMARK  status: ('A' for Active; 'I' for Inactive)
REMARK    1  A    between atoms: C_1  and  C_2
REMARK    2  A    between atoms: C_2  and  C_3
REMARK    3  A    between atoms: C_2  and  C_4
REMARK    4  A    between atoms: C_2  and  N_17
REMARK    5  A    between atoms: C_4  and  N_5
REMARK    6  A    between atoms: C_6  and  C_8
REMARK    7  A    between atoms: C_8  and  C_9
REMARK                            x       y       z     vdW  Elec       q    Type
REMARK                         _______ _______ _______ _____ _____    ______ ____
ROOT
ATOM      1  N   UNL     1       2.396   7.817  18.525  0.00  0.00    +0.000 N 
ATOM      2  C   UNL     1       1.621   8.805  19.089  0.00  0.00    +0.000 C 
ATOM      3  O   UNL     1       1.248   8.778  20.261  0.00  0.00    +0.000 OA
ATOM      4  H   UNL     1       2.638   7.839  17.535  0.00  0.00    +0.000 HD
ENDROOT
BRANCH   1   5
ATOM      5  C   UNL     1       2.770   6.634  19.280  0.00  0.00    +0.000 C 
BRANCH   5   7
ATOM      6  C   UNL     1       4.097   6.354  17.181  0.00  0.00    +0.000 C 
ATOM      7  C   UNL     1       3.693   5.635  18.498  0.00  0.00    +0.000 C 
ATOM      8  C   UNL     1       4.982   5.472  19.345  0.00  0.00    +0.000 C 
BRANCH   7   9
ATOM      9  N   UNL     1       3.011   4.321  18.198  0.00  0.00    +0.000 NA
ATOM     10  C   UNL     1       3.864   3.145  18.490  0.00  0.00    +0.000 C 
ATOM     11  C   UNL     1       3.189   1.804  18.188  0.00  0.00    +0.000 C 
ATOM     12  C   UNL     1       1.872   1.677  18.934  0.00  0.00    +0.000 C 
ATOM     13  C   UNL     1       0.990   2.859  18.583  0.00  0.00    +0.000 C 
ATOM     14  C   UNL     1       1.698   4.186  18.869  0.00  0.00    +0.000 C 
ENDBRANCH   7   9
ENDBRANCH   5   7
ENDBRANCH   1   5
BRANCH   2  15
ATOM     15  C   UNL     1       1.236   9.944  18.167  0.00  0.00    +0.000 C 
BRANCH  15  16
ATOM     16  C   UNL     1      -0.198  10.401  18.319  0.00  0.00    +0.000 A 
ATOM     17  C   UNL     1      -1.204   9.764  17.570  0.00  0.00    +0.000 A 
ATOM     18  C   UNL     1      -2.530  10.211  17.624  0.00  0.00    +0.000 A 
ATOM     19  C   UNL     1      -2.861  11.286  18.440  0.00  0.00    +0.000 A 
ATOM     20 CL   UNL     1      -4.481  11.868  18.473  0.00  0.00    +0.000 Cl
ATOM     21  C   UNL     1      -1.889  11.905  19.222  0.00  0.00    +0.000 A 
ATOM     22  C   UNL     1      -0.566  11.461  19.165  0.00  0.00    +0.000 A 
ATOM     23 CL   UNL     1       0.589  12.280  20.155  0.00  0.00    +0.000 Cl
ENDBRANCH  15  16
ENDBRANCH   2  15
TORSDOF 5
ENDMDL
MODEL 6
REMARK VINA RESULT:      -6.9      5.768      8.311
REMARK  Name = 
REMARK  7 active torsions:
REMARK  status: ('A' for Active; 'I' for Inactive)
REMARK    1  A    between atoms: C_1  and  C_2
REMARK    2  A    between atoms: C_2  and  C_3
REMARK    3  A    between atoms: C_2  and  C_4
REMARK    4  A    between atoms: C_2  and  N_17
REMARK    5  A    between atoms: C_4  and  N_5
REMARK    6  A    between atoms: C_6  and  C_8
REMARK    7  A    between atoms: C_8  and  C_9
REMARK                            x       y       z     vdW  Elec       q    Type
REMARK                         _______ _______ _______ _____ _____    ______ ____
ROOT
ATOM      1  N   UNL     1       2.426   7.217  18.829  0.00  0.00    +0.000 N 
ATOM      2  C   UNL     1       1.881   8.345  19.399  0.00  0.00    +0.000 C 
ATOM      3  O   UNL     1       1.582   8.418  20.590  0.00  0.00    +0.000 OA
ATOM      4  H   UNL     1       2.607   7.169  17.827  0.00  0.00    +0.000 HD
ENDROOT
BRANCH   1   5
ATOM      5  C   UNL     1       2.623   6.006  19.606  0.00  0.00    +0.000 C 
BRANCH   5   7
ATOM      6  C   UNL     1       3.438   3.651  19.807  0.00  0.00    +0.000 C 
ATOM      7  C   UNL     1       3.261   4.820  18.799  0.00  0.00    +0.000 C 
ATOM      8  C   UNL     1       2.200   4.373  17.761  0.00  0.00    +0.000 C 
BRANCH   7   9
ATOM      9  N   UNL     1       4.587   5.186  18.172  0.00  0.00    +0.000 NA
ATOM     10  C   UNL     1       5.726   5.064  19.112  0.00  0.00    +0.000 C 
ATOM     11  C   UNL     1       7.077   5.435  18.494  0.00  0.00    +0.000 C 
ATOM     12  C   UNL     1       7.351   4.609  17.249  0.00  0.00    +0.000 C 
ATOM     13  C   UNL     1       6.202   4.788  16.276  0.00  0.00    +0.000 C 
ATOM     14  C   UNL     1       4.862   4.436  16.926  0.00  0.00    +0.000 C 
ENDBRANCH   7   9
ENDBRANCH   5   7
ENDBRANCH   1   5
BRANCH   2  15
ATOM     15  C   UNL     1       1.655   9.512  18.458  0.00  0.00    +0.000 C 
BRANCH  15  16
ATOM     16  C   UNL     1       0.236  10.035  18.457  0.00  0.00    +0.000 A 
ATOM     17  C   UNL     1      -0.686   9.518  17.528  0.00  0.00    +0.000 A 
ATOM     18  C   UNL     1      -1.985  10.033  17.444  0.00  0.00    +0.000 A 
ATOM     19  C   UNL     1      -2.376  11.056  18.300  0.00  0.00    +0.000 A 
ATOM     20 CL   UNL     1      -3.958  11.723  18.167  0.00  0.00    +0.000 Cl
ATOM     21  C   UNL     1      -1.495  11.554  19.255  0.00  0.00    +0.000 A 
ATOM     22  C   UNL     1      -0.198  11.043  19.336  0.00  0.00    +0.000 A 
ATOM     23 CL   UNL     1       0.846  11.713  20.539  0.00  0.00    +0.000 Cl
ENDBRANCH  15  16
ENDBRANCH   2  15
TORSDOF 5
ENDMDL
MODEL 7
REMARK VINA RESULT:      -6.9      6.618      8.554
REMARK  Name = 
REMARK  7 active torsions:
REMARK  status: ('A' for Active; 'I' for Inactive)
REMARK    1  A    between atoms: C_1  and  C_2
REMARK    2  A    between atoms: C_2  and  C_3
REMARK    3  A    between atoms: C_2  and  C_4
REMARK    4  A    between atoms: C_2  and  N_17
REMARK    5  A    between atoms: C_4  and  N_5
REMARK    6  A    between atoms: C_6  and  C_8
REMARK    7  A    between atoms: C_8  and  C_9
REMARK                            x       y       z     vdW  Elec       q    Type
REMARK                         _______ _______ _______ _____ _____    ______ ____
ROOT
ATOM      1  N   UNL     1       2.051   7.888  18.557  0.00  0.00    +0.000 N 
ATOM      2  C   UNL     1       1.751   9.220  18.386  0.00  0.00    +0.000 C 
ATOM      3  O   UNL     1       2.229   9.905  17.482  0.00  0.00    +0.000 OA
ATOM      4  H   UNL     1       1.684   7.365  19.352  0.00  0.00    +0.000 HD
ENDROOT
BRANCH   1   5
ATOM      5  C   UNL     1       3.017   7.220  17.702  0.00  0.00    +0.000 C 
BRANCH   5   7
ATOM      6  C   UNL     1       4.085   5.076  16.991  0.00  0.00    +0.000 C 
ATOM      7  C   UNL     1       3.455   5.803  18.211  0.00  0.00    +0.000 C 
ATOM      8  C   UNL     1       4.590   6.036  19.241  0.00  0.00    +0.000 C 
BRANCH   7   9
ATOM      9  N   UNL     1       2.303   5.000  18.771  0.00  0.00    +0.000 NA
ATOM     10  C   UNL     1       2.071   3.731  18.040  0.00  0.00    +0.000 C 
ATOM     11  C   UNL     1       0.905   2.907  18.591  0.00  0.00    +0.000 C 
ATOM     12  C   UNL     1       1.095   2.617  20.070  0.00  0.00    +0.000 C 
ATOM     13  C   UNL     1       1.277   3.928  20.811  0.00  0.00    +0.000 C 
ATOM     14  C   UNL     1       2.431   4.743  20.223  0.00  0.00    +0.000 C 
ENDBRANCH   7   9
ENDBRANCH   5   7
ENDBRANCH   1   5
BRANCH   2  15
ATOM     15  C   UNL     1       0.790   9.813  19.396  0.00  0.00    +0.000 C 
BRANCH  15  16
ATOM     16  C   UNL     1      -0.535  10.244  18.806  0.00  0.00    +0.000 A 
ATOM     17  C   UNL     1      -0.954   9.688  17.583  0.00  0.00    +0.000 A 
ATOM     18  C   UNL     1      -2.135  10.120  16.966  0.00  0.00    +0.000 A 
ATOM     19  C   UNL     1      -2.912  11.098  17.577  0.00  0.00    +0.000 A 
ATOM     20 CL   UNL     1      -4.339  11.665  16.799  0.00  0.00    +0.000 Cl
ATOM     21  C   UNL     1      -2.538  11.631  18.807  0.00  0.00    +0.000 A 
ATOM     22  C   UNL     1      -1.359  11.203  19.420  0.00  0.00    +0.000 A 
ATOM     23 CL   UNL     1      -0.951  11.913  20.942  0.00  0.00    +0.000 Cl
ENDBRANCH  15  16
ENDBRANCH   2  15
TORSDOF 5
ENDMDL
MODEL 8
REMARK VINA RESULT:      -6.9      6.244      8.596
REMARK  Name = 
REMARK  7 active torsions:
REMARK  status: ('A' for Active; 'I' for Inactive)
REMARK    1  A    between atoms: C_1  and  C_2
REMARK    2  A    between atoms: C_2  and  C_3
REMARK    3  A    between atoms: C_2  and  C_4
REMARK    4  A    between atoms: C_2  and  N_17
REMARK    5  A    between atoms: C_4  and  N_5
REMARK    6  A    between atoms: C_6  and  C_8
REMARK    7  A    between atoms: C_8  and  C_9
REMARK                            x       y       z     vdW  Elec       q    Type
REMARK                         _______ _______ _______ _____ _____    ______ ____
ROOT
ATOM      1  N   UNL     1       2.045   7.760  18.760  0.00  0.00    +0.000 N 
ATOM      2  C   UNL     1       1.771   9.066  18.423  0.00  0.00    +0.000 C 
ATOM      3  O   UNL     1       2.221   9.608  17.414  0.00  0.00    +0.000 OA
ATOM      4  H   UNL     1       1.705   7.361  19.634  0.00  0.00    +0.000 HD
ENDROOT
BRANCH   1   5
ATOM      5  C   UNL     1       2.950   6.954  17.960  0.00  0.00    +0.000 C 
BRANCH   5   7
ATOM      6  C   UNL     1       2.881   5.463  19.966  0.00  0.00    +0.000 C 
ATOM      7  C   UNL     1       3.058   5.458  18.422  0.00  0.00    +0.000 C 
ATOM      8  C   UNL     1       1.832   4.723  17.822  0.00  0.00    +0.000 C 
BRANCH   7   9
ATOM      9  N   UNL     1       4.376   4.823  18.041  0.00  0.00    +0.000 NA
ATOM     10  C   UNL     1       4.570   4.725  16.575  0.00  0.00    +0.000 C 
ATOM     11  C   UNL     1       5.898   4.079  16.172  0.00  0.00    +0.000 C 
ATOM     12  C   UNL     1       7.072   4.815  16.795  0.00  0.00    +0.000 C 
ATOM     13  C   UNL     1       6.885   4.859  18.299  0.00  0.00    +0.000 C 
ATOM     14  C   UNL     1       5.539   5.484  18.673  0.00  0.00    +0.000 C 
ENDBRANCH   7   9
ENDBRANCH   5   7
ENDBRANCH   1   5
BRANCH   2  15
ATOM     15  C   UNL     1       0.875   9.819  19.386  0.00  0.00    +0.000 C 
BRANCH  15  16
ATOM     16  C   UNL     1      -0.455  10.231  18.796  0.00  0.00    +0.000 A 
ATOM     17  C   UNL     1      -0.885   9.639  17.594  0.00  0.00    +0.000 A 
ATOM     18  C   UNL     1      -2.072  10.051  16.976  0.00  0.00    +0.000 A 
ATOM     19  C   UNL     1      -2.845  11.045  17.565  0.00  0.00    +0.000 A 
ATOM     20 CL   UNL     1      -4.280  11.587  16.784  0.00  0.00    +0.000 Cl
ATOM     21  C   UNL     1      -2.460  11.615  18.775  0.00  0.00    +0.000 A 
ATOM     22  C   UNL     1      -1.275  11.207  19.389  0.00  0.00    +0.000 A 
ATOM     23 CL   UNL     1      -0.854  11.963  20.885  0.00  0.00    +0.000 Cl
ENDBRANCH  15  16
ENDBRANCH   2  15
TORSDOF 5
ENDMDL
MODEL 9
REMARK VINA RESULT:      -6.8      4.579      6.499
REMARK  Name = 
REMARK  7 active torsions:
REMARK  status: ('A' for Active; 'I' for Inactive)
REMARK    1  A    between atoms: C_1  and  C_2
REMARK    2  A    between atoms: C_2  and  C_3
REMARK    3  A    between atoms: C_2  and  C_4
REMARK    4  A    between atoms: C_2  and  N_17
REMARK    5  A    between atoms: C_4  and  N_5
REMARK    6  A    between atoms: C_6  and  C_8
REMARK    7  A    between atoms: C_8  and  C_9
REMARK                            x       y       z     vdW  Elec       q    Type
REMARK                         _______ _______ _______ _____ _____    ______ ____
ROOT
ATOM      1  N   UNL     1       4.472   3.956  18.661  0.00  0.00    +0.000 N 
ATOM      2  C   UNL     1       4.563   3.281  17.464  0.00  0.00    +0.000 C 
ATOM      3  O   UNL     1       3.878   2.295  17.196  0.00  0.00    +0.000 OA
ATOM      4  H   UNL     1       5.096   4.733  18.874  0.00  0.00    +0.000 HD
ENDROOT
BRANCH   1   5
ATOM      5  C   UNL     1       3.590   3.493  19.718  0.00  0.00    +0.000 C 
BRANCH   5   7
ATOM      6  C   UNL     1       1.293   3.799  18.781  0.00  0.00    +0.000 C 
ATOM      7  C   UNL     1       2.270   4.328  19.867  0.00  0.00    +0.000 C 
ATOM      8  C   UNL     1       1.667   3.955  21.246  0.00  0.00    +0.000 C 
BRANCH   7   9
ATOM      9  N   UNL     1       2.495   5.813  19.701  0.00  0.00    +0.000 NA
ATOM     10  C   UNL     1       2.429   6.255  18.288  0.00  0.00    +0.000 C 
ATOM     11  C   UNL     1       2.660   7.757  18.100  0.00  0.00    +0.000 C 
ATOM     12  C   UNL     1       1.681   8.565  18.934  0.00  0.00    +0.000 C 
ATOM     13  C   UNL     1       1.799   8.139  20.385  0.00  0.00    +0.000 C 
ATOM     14  C   UNL     1       1.591   6.631  20.540  0.00  0.00    +0.000 C 
ENDBRANCH   7   9
ENDBRANCH   5   7
ENDBRANCH   1   5
BRANCH   2  15
ATOM     15  C   UNL     1       5.579   3.824  16.480  0.00  0.00    +0.000 C 
BRANCH  15  16
ATOM     16  C   UNL     1       6.367   5.006  16.998  0.00  0.00    +0.000 A 
ATOM     17  C   UNL     1       7.375   4.793  17.956  0.00  0.00    +0.000 A 
ATOM     18  C   UNL     1       8.071   5.870  18.517  0.00  0.00    +0.000 A 
ATOM     19  C   UNL     1       7.775   7.166  18.112  0.00  0.00    +0.000 A 
ATOM     20 CL   UNL     1       8.596   8.497  18.834  0.00  0.00    +0.000 Cl
ATOM     21  C   UNL     1       6.812   7.398  17.135  0.00  0.00    +0.000 A 
ATOM     22  C   UNL     1       6.115   6.324  16.578  0.00  0.00    +0.000 A 
ATOM     23 CL   UNL     1       4.927   6.685  15.377  0.00  0.00    +0.000 Cl
ENDBRANCH  15  16
ENDBRANCH   2  15
TORSDOF 5
ENDMDL
