MODEL 1
REMARK VINA RESULT:      -8.6      0.000      0.000
REMARK  Name = 
REMARK  10 active torsions:
REMARK  status: ('A' for Active; 'I' for Inactive)
REMARK    1  A    between atoms: C_1  and  C_2
REMARK    2  A    between atoms: C_4  and  N_5
REMARK    3  A    between atoms: N_5  and  C_6
REMARK    4  A    between atoms: C_6  and  C_7
REMARK    5  A    between atoms: C_6  and  C_14
REMARK    6  A    between atoms: C_7  and  C_8
REMARK    7  A    between atoms: N_16  and  C_17
REMARK    8  A    between atoms: N_25  and  C_26
REMARK    9  A    between atoms: C_26  and  C_27
REMARK   10  A    between atoms: C_27  and  C_28
REMARK                            x       y       z     vdW  Elec       q    Type
REMARK                         _______ _______ _______ _____ _____    ______ ____
ROOT
ATOM      1  N   UNL     1       3.976   6.405  18.994  0.00  0.00    +0.000 N 
ATOM      2  H   UNL     1       4.425   6.954  19.722  0.00  0.00    +0.000 HD
ENDROOT
BRANCH   1   6
ATOM      3  C   UNL     1       5.990   3.805  15.329  0.00  0.00    +0.000 C 
ATOM      4  C   UNL     1       5.841   5.030  16.176  0.00  0.00    +0.000 A 
ATOM      5  C   UNL     1       4.833   5.129  17.112  0.00  0.00    +0.000 A 
ATOM      6  C   UNL     1       4.859   6.219  17.951  0.00  0.00    +0.000 A 
ATOM      7  N   UNL     1       5.842   7.135  17.860  0.00  0.00    +0.000 NA
ATOM      8  C   UNL     1       6.782   6.973  16.914  0.00  0.00    +0.000 A 
ATOM      9  N   UNL     1       7.902   7.802  16.870  0.00  0.00    +0.000 N 
ATOM     10  N   UNL     1       6.794   5.967  16.040  0.00  0.00    +0.000 NA
ATOM     11  H   UNL     1       7.746   8.453  16.109  0.00  0.00    +0.000 HD
BRANCH   9  12
ATOM     12  C   UNL     1       8.263   8.435  18.133  0.00  0.00    +0.000 C 
BRANCH  12  13
ATOM     13  C   UNL     1       8.191   9.966  18.008  0.00  0.00    +0.000 C 
BRANCH  13  14
ATOM     14  C   UNL     1       9.273  10.668  18.767  0.00  0.00    +0.000 A 
ATOM     15  C   UNL     1       9.415  10.784  20.135  0.00  0.00    +0.000 A 
ATOM     16  C   UNL     1      10.525  11.601  20.493  0.00  0.00    +0.000 A 
ATOM     17  C   UNL     1      11.197  12.072  19.388  0.00  0.00    +0.000 A 
ATOM     18  S   UNL     1      10.500  11.520  17.928  0.00  0.00    +0.000 S 
ENDBRANCH  13  14
ENDBRANCH  12  13
ENDBRANCH   9  12
ENDBRANCH   1   6
BRANCH   1  19
ATOM     19  C   UNL     1       2.507   6.486  18.888  0.00  0.00    +0.000 C 
BRANCH  19  20
ATOM     20  C   UNL     1       1.910   7.848  19.333  0.00  0.00    +0.000 C 
ATOM     21  O   UNL     1       1.715   8.117  20.513  0.00  0.00    +0.000 OA
ATOM     22  N   UNL     1       1.640   8.720  18.271  0.00  0.00    +0.000 N 
ATOM     23  H   UNL     1       1.624   8.341  17.338  0.00  0.00    +0.000 HD
BRANCH  22  24
ATOM     24  C   UNL     1       1.083  10.012  18.420  0.00  0.00    +0.000 A 
ATOM     25  C   UNL     1      -0.293  10.240  18.486  0.00  0.00    +0.000 A 
ATOM     26  C   UNL     1      -0.799  11.536  18.594  0.00  0.00    +0.000 A 
ATOM     27  C   UNL     1       0.072  12.620  18.637  0.00  0.00    +0.000 A 
ATOM     28  C   UNL     1       1.448  12.408  18.593  0.00  0.00    +0.000 A 
ATOM     29  C   UNL     1       1.955  11.107  18.500  0.00  0.00    +0.000 A 
ENDBRANCH  22  24
ENDBRANCH  19  20
BRANCH  19  30
ATOM     30  C   UNL     1       1.847   5.301  19.641  0.00  0.00    +0.000 C 
BRANCH  30  31
ATOM     31  C   UNL     1       2.373   3.932  19.261  0.00  0.00    +0.000 A 
ATOM     32  C   UNL     1       3.357   3.300  20.040  0.00  0.00    +0.000 A 
ATOM     33  C   UNL     1       3.923   2.091  19.635  0.00  0.00    +0.000 A 
ATOM     34  C   UNL     1       3.489   1.481  18.462  0.00  0.00    +0.000 A 
ATOM     35  C   UNL     1       2.480   2.074  17.704  0.00  0.00    +0.000 A 
ATOM     36  C   UNL     1       1.924   3.292  18.100  0.00  0.00    +0.000 A 
ENDBRANCH  30  31
ENDBRANCH  19  30
ENDBRANCH   1  19
TORSDOF 9
ENDMDL
MODEL 2
REMARK VINA RESULT:      -8.6      1.093      1.195
REMARK  Name = 
REMARK  10 active torsions:
REMARK  status: ('A' for Active; 'I' for Inactive)
REMARK    1  A    between atoms: C_1  and  C_2
REMARK    2  A    between atoms: C_4  and  N_5
REMARK    3  A    between atoms: N_5  and  C_6
REMARK    4  A    between atoms: C_6  and  C_7
REMARK    5  A    between atoms: C_6  and  C_14
REMARK    6  A    between atoms: C_7  and  C_8
REMARK    7  A    between atoms: N_16  and  C_17
REMARK    8  A    between atoms: N_25  and  C_26
REMARK    9  A    between atoms: C_26  and  C_27
REMARK   10  A    between atoms: C_27  and  C_28
REMARK                            x       y       z     vdW  Elec       q    Type
REMARK                         _______ _______ _______ _____ _____    ______ ____
ROOT
ATOM      1  N   UNL     1       3.611   7.613  17.283  0.00  0.00    +0.000 N 
ATOM      2  H   UNL     1       3.270   8.204  16.530  0.00  0.00    +0.000 HD
ENDROOT
BRANCH   1   6
ATOM      3  C   UNL     1       6.077   3.698  15.597  0.00  0.00    +0.000 C 
ATOM      4  C   UNL     1       5.972   5.123  16.043  0.00  0.00    +0.000 A 
ATOM      5  C   UNL     1       4.747   5.693  16.319  0.00  0.00    +0.000 A 
ATOM      6  C   UNL     1       4.750   6.954  16.868  0.00  0.00    +0.000 A 
ATOM      7  N   UNL     1       5.908   7.588  17.132  0.00  0.00    +0.000 NA
ATOM      8  C   UNL     1       7.060   6.970  16.823  0.00  0.00    +0.000 A 
ATOM      9  N   UNL     1       8.287   7.508  17.210  0.00  0.00    +0.000 N 
ATOM     10  N   UNL     1       7.131   5.769  16.249  0.00  0.00    +0.000 NA
ATOM     11  H   UNL     1       8.692   7.922  16.378  0.00  0.00    +0.000 HD
BRANCH   9  12
ATOM     12  C   UNL     1       8.243   8.402  18.361  0.00  0.00    +0.000 C 
BRANCH  12  13
ATOM     13  C   UNL     1       8.385   9.866  17.912  0.00  0.00    +0.000 C 
BRANCH  13  14
ATOM     14  C   UNL     1       9.358  10.643  18.742  0.00  0.00    +0.000 A 
ATOM     15  C   UNL     1       9.398  10.765  20.117  0.00  0.00    +0.000 A 
ATOM     16  C   UNL     1      10.418  11.658  20.549  0.00  0.00    +0.000 A 
ATOM     17  C   UNL     1      11.129  12.180  19.492  0.00  0.00    +0.000 A 
ATOM     18  S   UNL     1      10.576  11.584  17.988  0.00  0.00    +0.000 S 
ENDBRANCH  13  14
ENDBRANCH  12  13
ENDBRANCH   9  12
ENDBRANCH   1   6
BRANCH   1  19
ATOM     19  C   UNL     1       2.624   7.115  18.260  0.00  0.00    +0.000 C 
BRANCH  19  20
ATOM     20  C   UNL     1       1.826   8.231  18.985  0.00  0.00    +0.000 C 
ATOM     21  O   UNL     1       1.678   8.238  20.201  0.00  0.00    +0.000 OA
ATOM     22  N   UNL     1       1.321   9.214  18.124  0.00  0.00    +0.000 N 
ATOM     23  H   UNL     1       1.303   9.016  17.136  0.00  0.00    +0.000 HD
BRANCH  22  24
ATOM     24  C   UNL     1       0.553  10.325  18.544  0.00  0.00    +0.000 A 
ATOM     25  C   UNL     1      -0.840  10.288  18.643  0.00  0.00    +0.000 A 
ATOM     26  C   UNL     1      -1.560  11.421  19.023  0.00  0.00    +0.000 A 
ATOM     27  C   UNL     1      -0.890  12.606  19.309  0.00  0.00    +0.000 A 
ATOM     28  C   UNL     1       0.500  12.654  19.234  0.00  0.00    +0.000 A 
ATOM     29  C   UNL     1       1.223  11.513  18.867  0.00  0.00    +0.000 A 
ENDBRANCH  22  24
ENDBRANCH  19  20
BRANCH  19  30
ATOM     30  C   UNL     1       3.305   6.153  19.269  0.00  0.00    +0.000 C 
BRANCH  30  31
ATOM     31  C   UNL     1       2.493   4.926  19.629  0.00  0.00    +0.000 A 
ATOM     32  C   UNL     1       2.342   4.532  20.969  0.00  0.00    +0.000 A 
ATOM     33  C   UNL     1       1.691   3.343  21.296  0.00  0.00    +0.000 A 
ATOM     34  C   UNL     1       1.150   2.549  20.290  0.00  0.00    +0.000 A 
ATOM     35  C   UNL     1       1.251   2.951  18.959  0.00  0.00    +0.000 A 
ATOM     36  C   UNL     1       1.918   4.133  18.629  0.00  0.00    +0.000 A 
ENDBRANCH  30  31
ENDBRANCH  19  30
ENDBRANCH   1  19
TORSDOF 9
ENDMDL
MODEL 3
REMARK VINA RESULT:      -8.5      1.230      1.555
REMARK  Name = 
REMARK  10 active torsions:
REMARK  status: ('A' for Active; 'I' for Inactive)
REMARK    1  A    between atoms: C_1  and  C_2
REMARK    2  A    between atoms: C_4  and  N_5
REMARK    3  A    between atoms: N_5  and  C_6
REMARK    4  A    between atoms: C_6  and  C_7
REMARK    5  A    between atoms: C_6  and  C_14
REMARK    6  A    between atoms: C_7  and  C_8
REMARK    7  A    between atoms: N_16  and  C_17
REMARK    8  A    between atoms: N_25  and  C_26
REMARK    9  A    between atoms: C_26  and  C_27
REMARK   10  A    between atoms: C_27  and  C_28
REMARK                            x       y       z     vdW  Elec       q    Type
REMARK                         _______ _______ _______ _____ _____    ______ ____
ROOT
ATOM      1  N   UNL     1       3.992   6.595  18.767  0.00  0.00    +0.000 N 
ATOM      2  H   UNL     1       4.407   7.130  19.526  0.00  0.00    +0.000 HD
ENDROOT
BRANCH   1   6
ATOM      3  C   UNL     1       6.228   3.782  15.400  0.00  0.00    +0.000 C 
ATOM      4  C   UNL     1       6.044   5.048  16.176  0.00  0.00    +0.000 A 
ATOM      5  C   UNL     1       4.966   5.214  17.021  0.00  0.00    +0.000 A 
ATOM      6  C   UNL     1       4.952   6.341  17.809  0.00  0.00    +0.000 A 
ATOM      7  N   UNL     1       5.962   7.229  17.759  0.00  0.00    +0.000 NA
ATOM      8  C   UNL     1       6.972   7.002  16.901  0.00  0.00    +0.000 A 
ATOM      9  N   UNL     1       8.113   7.803  16.912  0.00  0.00    +0.000 N 
ATOM     10  N   UNL     1       7.028   5.956  16.077  0.00  0.00    +0.000 NA
ATOM     11  H   UNL     1       8.036   8.421  16.113  0.00  0.00    +0.000 HD
BRANCH   9  12
ATOM     12  C   UNL     1       8.386   8.486  18.171  0.00  0.00    +0.000 C 
BRANCH  12  13
ATOM     13  C   UNL     1       8.268  10.009  17.994  0.00  0.00    +0.000 C 
BRANCH  13  14
ATOM     14  C   UNL     1       9.416  10.760  18.592  0.00  0.00    +0.000 A 
ATOM     15  C   UNL     1      10.538  11.250  17.955  0.00  0.00    +0.000 A 
ATOM     16  C   UNL     1      11.460  11.839  18.866  0.00  0.00    +0.000 A 
ATOM     17  C   UNL     1      11.007  11.789  20.164  0.00  0.00    +0.000 A 
ATOM     18  S   UNL     1       9.472  11.046  20.281  0.00  0.00    +0.000 S 
ENDBRANCH  13  14
ENDBRANCH  12  13
ENDBRANCH   9  12
ENDBRANCH   1   6
BRANCH   1  19
ATOM     19  C   UNL     1       2.546   6.757  18.529  0.00  0.00    +0.000 C 
BRANCH  19  20
ATOM     20  C   UNL     1       2.115   8.210  18.190  0.00  0.00    +0.000 C 
ATOM     21  O   UNL     1       2.526   8.793  17.194  0.00  0.00    +0.000 OA
ATOM     22  N   UNL     1       1.216   8.761  19.112  0.00  0.00    +0.000 N 
ATOM     23  H   UNL     1       1.106   8.301  20.001  0.00  0.00    +0.000 HD
BRANCH  22  24
ATOM     24  C   UNL     1       0.689  10.072  19.026  0.00  0.00    +0.000 A 
ATOM     25  C   UNL     1       1.338  11.185  19.564  0.00  0.00    +0.000 A 
ATOM     26  C   UNL     1       0.761  12.453  19.491  0.00  0.00    +0.000 A 
ATOM     27  C   UNL     1      -0.476  12.619  18.877  0.00  0.00    +0.000 A 
ATOM     28  C   UNL     1      -1.127  11.521  18.318  0.00  0.00    +0.000 A 
ATOM     29  C   UNL     1      -0.541  10.253  18.379  0.00  0.00    +0.000 A 
ENDBRANCH  22  24
ENDBRANCH  19  20
BRANCH  19  30
ATOM     30  C   UNL     1       1.737   6.188  19.724  0.00  0.00    +0.000 C 
BRANCH  30  31
ATOM     31  C   UNL     1       1.572   4.682  19.724  0.00  0.00    +0.000 A 
ATOM     32  C   UNL     1       1.567   3.960  20.929  0.00  0.00    +0.000 A 
ATOM     33  C   UNL     1       1.528   2.566  20.928  0.00  0.00    +0.000 A 
ATOM     34  C   UNL     1       1.458   1.876  19.722  0.00  0.00    +0.000 A 
ATOM     35  C   UNL     1       1.416   2.580  18.520  0.00  0.00    +0.000 A 
ATOM     36  C   UNL     1       1.472   3.976  18.519  0.00  0.00    +0.000 A 
ENDBRANCH  30  31
ENDBRANCH  19  30
ENDBRANCH   1  19
TORSDOF 9
ENDMDL
MODEL 4
REMARK VINA RESULT:      -8.5      1.820      2.037
REMARK  Name = 
REMARK  10 active torsions:
REMARK  status: ('A' for Active; 'I' for Inactive)
REMARK    1  A    between atoms: C_1  and  C_2
REMARK    2  A    between atoms: C_4  and  N_5
REMARK    3  A    between atoms: N_5  and  C_6
REMARK    4  A    between atoms: C_6  and  C_7
REMARK    5  A    between atoms: C_6  and  C_14
REMARK    6  A    between atoms: C_7  and  C_8
REMARK    7  A    between atoms: N_16  and  C_17
REMARK    8  A    between atoms: N_25  and  C_26
REMARK    9  A    between atoms: C_26  and  C_27
REMARK   10  A    between atoms: C_27  and  C_28
REMARK                            x       y       z     vdW  Elec       q    Type
REMARK                         _______ _______ _______ _____ _____    ______ ____
ROOT
ATOM      1  N   UNL     1       3.497   7.847  17.528  0.00  0.00    +0.000 N 
ATOM      2  H   UNL     1       3.280   8.563  16.841  0.00  0.00    +0.000 HD
ENDROOT
BRANCH   1   6
ATOM      3  C   UNL     1       5.652   3.715  15.936  0.00  0.00    +0.000 C 
ATOM      4  C   UNL     1       5.648   5.165  16.305  0.00  0.00    +0.000 A 
ATOM      5  C   UNL     1       4.473   5.817  16.615  0.00  0.00    +0.000 A 
ATOM      6  C   UNL     1       4.574   7.104  17.090  0.00  0.00    +0.000 A 
ATOM      7  N   UNL     1       5.777   7.684  17.256  0.00  0.00    +0.000 NA
ATOM      8  C   UNL     1       6.876   6.987  16.922  0.00  0.00    +0.000 A 
ATOM      9  N   UNL     1       8.149   7.475  17.211  0.00  0.00    +0.000 N 
ATOM     10  N   UNL     1       6.850   5.754  16.413  0.00  0.00    +0.000 NA
ATOM     11  H   UNL     1       8.528   7.821  16.337  0.00  0.00    +0.000 HD
BRANCH   9  12
ATOM     12  C   UNL     1       8.218   8.430  18.311  0.00  0.00    +0.000 C 
BRANCH  12  13
ATOM     13  C   UNL     1       8.482   9.848  17.777  0.00  0.00    +0.000 C 
BRANCH  13  14
ATOM     14  C   UNL     1       9.375  10.654  18.668  0.00  0.00    +0.000 A 
ATOM     15  C   UNL     1       9.400  10.683  20.048  0.00  0.00    +0.000 A 
ATOM     16  C   UNL     1      10.330  11.636  20.549  0.00  0.00    +0.000 A 
ATOM     17  C   UNL     1      10.990  12.296  19.537  0.00  0.00    +0.000 A 
ATOM     18  S   UNL     1      10.499  11.756  17.991  0.00  0.00    +0.000 S 
ENDBRANCH  13  14
ENDBRANCH  12  13
ENDBRANCH   9  12
ENDBRANCH   1   6
BRANCH   1  19
ATOM     19  C   UNL     1       2.395   7.363  18.381  0.00  0.00    +0.000 C 
BRANCH  19  20
ATOM     20  C   UNL     1       1.518   8.491  18.989  0.00  0.00    +0.000 C 
ATOM     21  O   UNL     1       0.933   9.308  18.288  0.00  0.00    +0.000 OA
ATOM     22  N   UNL     1       1.456   8.464  20.389  0.00  0.00    +0.000 N 
ATOM     23  H   UNL     1       2.132   7.904  20.883  0.00  0.00    +0.000 HD
BRANCH  22  24
ATOM     24  C   UNL     1       0.733   9.393  21.174  0.00  0.00    +0.000 A 
ATOM     25  C   UNL     1      -0.019   9.017  22.289  0.00  0.00    +0.000 A 
ATOM     26  C   UNL     1      -0.749   9.962  23.010  0.00  0.00    +0.000 A 
ATOM     27  C   UNL     1      -0.734  11.297  22.620  0.00  0.00    +0.000 A 
ATOM     28  C   UNL     1       0.027  11.691  21.521  0.00  0.00    +0.000 A 
ATOM     29  C   UNL     1       0.771  10.745  20.808  0.00  0.00    +0.000 A 
ENDBRANCH  22  24
ENDBRANCH  19  20
BRANCH  19  30
ATOM     30  C   UNL     1       2.941   6.412  19.478  0.00  0.00    +0.000 C 
BRANCH  30  31
ATOM     31  C   UNL     1       2.198   5.098  19.611  0.00  0.00    +0.000 A 
ATOM     32  C   UNL     1       1.957   4.535  20.875  0.00  0.00    +0.000 A 
ATOM     33  C   UNL     1       1.374   3.274  20.997  0.00  0.00    +0.000 A 
ATOM     34  C   UNL     1       0.992   2.573  19.857  0.00  0.00    +0.000 A 
ATOM     35  C   UNL     1       1.183   3.140  18.598  0.00  0.00    +0.000 A 
ATOM     36  C   UNL     1       1.782   4.396  18.474  0.00  0.00    +0.000 A 
ENDBRANCH  30  31
ENDBRANCH  19  30
ENDBRANCH   1  19
TORSDOF 9
ENDMDL
MODEL 5
REMARK VINA RESULT:      -8.5      1.118      1.667
REMARK  Name = 
REMARK  10 active torsions:
REMARK  status: ('A' for Active; 'I' for Inactive)
REMARK    1  A    between atoms: C_1  and  C_2
REMARK    2  A    between atoms: C_4  and  N_5
REMARK    3  A    between atoms: N_5  and  C_6
REMARK    4  A    between atoms: C_6  and  C_7
REMARK    5  A    between atoms: C_6  and  C_14
REMARK    6  A    between atoms: C_7  and  C_8
REMARK    7  A    between atoms: N_16  and  C_17
REMARK    8  A    between atoms: N_25  and  C_26
REMARK    9  A    between atoms: C_26  and  C_27
REMARK   10  A    between atoms: C_27  and  C_28
REMARK                            x       y       z     vdW  Elec       q    Type
REMARK                         _______ _______ _______ _____ _____    ______ ____
ROOT
ATOM      1  N   UNL     1       3.605   7.572  17.268  0.00  0.00    +0.000 N 
ATOM      2  H   UNL     1       3.250   8.142  16.504  0.00  0.00    +0.000 HD
ENDROOT
BRANCH   1   6
ATOM      3  C   UNL     1       6.097   3.642  15.656  0.00  0.00    +0.000 C 
ATOM      4  C   UNL     1       5.981   5.077  16.065  0.00  0.00    +0.000 A 
ATOM      5  C   UNL     1       4.752   5.640  16.342  0.00  0.00    +0.000 A 
ATOM      6  C   UNL     1       4.747   6.916  16.856  0.00  0.00    +0.000 A 
ATOM      7  N   UNL     1       5.900   7.570  17.088  0.00  0.00    +0.000 NA
ATOM      8  C   UNL     1       7.056   6.957  16.782  0.00  0.00    +0.000 A 
ATOM      9  N   UNL     1       8.281   7.520  17.138  0.00  0.00    +0.000 N 
ATOM     10  N   UNL     1       7.134   5.742  16.240  0.00  0.00    +0.000 NA
ATOM     11  H   UNL     1       8.671   7.916  16.290  0.00  0.00    +0.000 HD
BRANCH   9  12
ATOM     12  C   UNL     1       8.240   8.444  18.265  0.00  0.00    +0.000 C 
BRANCH  12  13
ATOM     13  C   UNL     1       8.343   9.898  17.773  0.00  0.00    +0.000 C 
BRANCH  13  14
ATOM     14  C   UNL     1       9.194  10.757  18.654  0.00  0.00    +0.000 A 
ATOM     15  C   UNL     1       9.539  10.545  19.974  0.00  0.00    +0.000 A 
ATOM     16  C   UNL     1      10.296  11.624  20.512  0.00  0.00    +0.000 A 
ATOM     17  C   UNL     1      10.512  12.617  19.584  0.00  0.00    +0.000 A 
ATOM     18  S   UNL     1       9.816  12.242  18.068  0.00  0.00    +0.000 S 
ENDBRANCH  13  14
ENDBRANCH  12  13
ENDBRANCH   9  12
ENDBRANCH   1   6
BRANCH   1  19
ATOM     19  C   UNL     1       2.634   7.087  18.266  0.00  0.00    +0.000 C 
BRANCH  19  20
ATOM     20  C   UNL     1       1.854   8.213  18.995  0.00  0.00    +0.000 C 
ATOM     21  O   UNL     1       1.671   8.197  20.207  0.00  0.00    +0.000 OA
ATOM     22  N   UNL     1       1.407   9.233  18.144  0.00  0.00    +0.000 N 
ATOM     23  H   UNL     1       1.411   9.058  17.152  0.00  0.00    +0.000 HD
BRANCH  22  24
ATOM     24  C   UNL     1       0.665  10.360  18.569  0.00  0.00    +0.000 A 
ATOM     25  C   UNL     1       1.267  11.555  18.971  0.00  0.00    +0.000 A 
ATOM     26  C   UNL     1       0.496  12.627  19.420  0.00  0.00    +0.000 A 
ATOM     27  C   UNL     1      -0.889  12.514  19.472  0.00  0.00    +0.000 A 
ATOM     28  C   UNL     1      -1.505  11.336  19.056  0.00  0.00    +0.000 A 
ATOM     29  C   UNL     1      -0.733  10.266  18.591  0.00  0.00    +0.000 A 
ENDBRANCH  22  24
ENDBRANCH  19  20
BRANCH  19  30
ATOM     30  C   UNL     1       3.328   6.132  19.272  0.00  0.00    +0.000 C 
BRANCH  30  31
ATOM     31  C   UNL     1       2.565   4.858  19.574  0.00  0.00    +0.000 A 
ATOM     32  C   UNL     1       2.015   4.088  18.536  0.00  0.00    +0.000 A 
ATOM     33  C   UNL     1       1.218   2.978  18.814  0.00  0.00    +0.000 A 
ATOM     34  C   UNL     1       0.989   2.602  20.134  0.00  0.00    +0.000 A 
ATOM     35  C   UNL     1       1.566   3.330  21.174  0.00  0.00    +0.000 A 
ATOM     36  C   UNL     1       2.351   4.452  20.897  0.00  0.00    +0.000 A 
ENDBRANCH  30  31
ENDBRANCH  19  30
ENDBRANCH   1  19
TORSDOF 9
ENDMDL
MODEL 6
REMARK VINA RESULT:      -8.5      0.910      1.388
REMARK  Name = 
REMARK  10 active torsions:
REMARK  status: ('A' for Active; 'I' for Inactive)
REMARK    1  A    between atoms: C_1  and  C_2
REMARK    2  A    between atoms: C_4  and  N_5
REMARK    3  A    between atoms: N_5  and  C_6
REMARK    4  A    between atoms: C_6  and  C_7
REMARK    5  A    between atoms: C_6  and  C_14
REMARK    6  A    between atoms: C_7  and  C_8
REMARK    7  A    between atoms: N_16  and  C_17
REMARK    8  A    between atoms: N_25  and  C_26
REMARK    9  A    between atoms: C_26  and  C_27
REMARK   10  A    between atoms: C_27  and  C_28
REMARK                            x       y       z     vdW  Elec       q    Type
REMARK                         _______ _______ _______ _____ _____    ______ ____
ROOT
ATOM      1  N   UNL     1       3.922   6.366  18.387  0.00  0.00    +0.000 N 
ATOM      2  H   UNL     1       4.293   6.702  19.272  0.00  0.00    +0.000 HD
ENDROOT
BRANCH   1   6
ATOM      3  C   UNL     1       6.498   3.734  15.118  0.00  0.00    +0.000 C 
ATOM      4  C   UNL     1       6.214   4.968  15.916  0.00  0.00    +0.000 A 
ATOM      5  C   UNL     1       5.070   5.073  16.680  0.00  0.00    +0.000 A 
ATOM      6  C   UNL     1       4.960   6.172  17.499  0.00  0.00    +0.000 A 
ATOM      7  N   UNL     1       5.941   7.091  17.554  0.00  0.00    +0.000 NA
ATOM      8  C   UNL     1       7.020   6.924  16.771  0.00  0.00    +0.000 A 
ATOM      9  N   UNL     1       8.131   7.757  16.895  0.00  0.00    +0.000 N 
ATOM     10  N   UNL     1       7.173   5.908  15.921  0.00  0.00    +0.000 NA
ATOM     11  H   UNL     1       8.095   8.399  16.111  0.00  0.00    +0.000 HD
BRANCH   9  12
ATOM     12  C   UNL     1       8.285   8.406  18.191  0.00  0.00    +0.000 C 
BRANCH  12  13
ATOM     13  C   UNL     1       8.132   9.930  18.052  0.00  0.00    +0.000 C 
BRANCH  13  14
ATOM     14  C   UNL     1       9.303  10.689  18.591  0.00  0.00    +0.000 A 
ATOM     15  C   UNL     1      10.363  11.230  17.891  0.00  0.00    +0.000 A 
ATOM     16  C   UNL     1      11.337  11.811  18.751  0.00  0.00    +0.000 A 
ATOM     17  C   UNL     1      10.984  11.702  20.078  0.00  0.00    +0.000 A 
ATOM     18  S   UNL     1       9.480  10.917  20.280  0.00  0.00    +0.000 S 
ENDBRANCH  13  14
ENDBRANCH  12  13
ENDBRANCH   9  12
ENDBRANCH   1   6
BRANCH   1  19
ATOM     19  C   UNL     1       2.538   6.743  18.041  0.00  0.00    +0.000 C 
BRANCH  19  20
ATOM     20  C   UNL     1       1.996   7.967  18.825  0.00  0.00    +0.000 C 
ATOM     21  O   UNL     1       1.985   8.001  20.050  0.00  0.00    +0.000 OA
ATOM     22  N   UNL     1       1.549   9.010  18.004  0.00  0.00    +0.000 N 
ATOM     23  H   UNL     1       1.393   8.813  17.028  0.00  0.00    +0.000 HD
BRANCH  22  24
ATOM     24  C   UNL     1       1.002  10.225  18.482  0.00  0.00    +0.000 A 
ATOM     25  C   UNL     1      -0.292  10.319  18.999  0.00  0.00    +0.000 A 
ATOM     26  C   UNL     1      -0.804  11.546  19.422  0.00  0.00    +0.000 A 
ATOM     27  C   UNL     1      -0.024  12.694  19.331  0.00  0.00    +0.000 A 
ATOM     28  C   UNL     1       1.276  12.612  18.835  0.00  0.00    +0.000 A 
ATOM     29  C   UNL     1       1.794  11.379  18.425  0.00  0.00    +0.000 A 
ENDBRANCH  22  24
ENDBRANCH  19  20
BRANCH  19  30
ATOM     30  C   UNL     1       1.597   5.517  18.178  0.00  0.00    +0.000 C 
BRANCH  30  31
ATOM     31  C   UNL     1       2.013   4.507  19.227  0.00  0.00    +0.000 A 
ATOM     32  C   UNL     1       2.614   3.292  18.856  0.00  0.00    +0.000 A 
ATOM     33  C   UNL     1       2.896   2.313  19.809  0.00  0.00    +0.000 A 
ATOM     34  C   UNL     1       2.613   2.549  21.150  0.00  0.00    +0.000 A 
ATOM     35  C   UNL     1       2.059   3.768  21.539  0.00  0.00    +0.000 A 
ATOM     36  C   UNL     1       1.761   4.743  20.584  0.00  0.00    +0.000 A 
ENDBRANCH  30  31
ENDBRANCH  19  30
ENDBRANCH   1  19
TORSDOF 9
ENDMDL
MODEL 7
REMARK VINA RESULT:      -8.4      0.587      1.401
REMARK  Name = 
REMARK  10 active torsions:
REMARK  status: ('A' for Active; 'I' for Inactive)
REMARK    1  A    between atoms: C_1  and  C_2
REMARK    2  A    between atoms: C_4  and  N_5
REMARK    3  A    between atoms: N_5  and  C_6
REMARK    4  A    between atoms: C_6  and  C_7
REMARK    5  A    between atoms: C_6  and  C_14
REMARK    6  A    between atoms: C_7  and  C_8
REMARK    7  A    between atoms: N_16  and  C_17
REMARK    8  A    between atoms: N_25  and  C_26
REMARK    9  A    between atoms: C_26  and  C_27
REMARK   10  A    between atoms: C_27  and  C_28
REMARK                            x       y       z     vdW  Elec       q    Type
REMARK                         _______ _______ _______ _____ _____    ______ ____
ROOT
ATOM      1  N   UNL     1       4.081   6.418  18.855  0.00  0.00    +0.000 N 
ATOM      2  H   UNL     1       4.500   6.959  19.607  0.00  0.00    +0.000 HD
ENDROOT
BRANCH   1   6
ATOM      3  C   UNL     1       6.256   3.835  15.270  0.00  0.00    +0.000 C 
ATOM      4  C   UNL     1       6.069   5.057  16.114  0.00  0.00    +0.000 A 
ATOM      5  C   UNL     1       5.022   5.151  17.007  0.00  0.00    +0.000 A 
ATOM      6  C   UNL     1       5.009   6.238  17.850  0.00  0.00    +0.000 A 
ATOM      7  N   UNL     1       5.992   7.156  17.805  0.00  0.00    +0.000 NA
ATOM      8  C   UNL     1       6.973   6.999  16.899  0.00  0.00    +0.000 A 
ATOM      9  N   UNL     1       8.092   7.830  16.906  0.00  0.00    +0.000 N 
ATOM     10  N   UNL     1       7.024   5.996  16.023  0.00  0.00    +0.000 NA
ATOM     11  H   UNL     1       7.968   8.484  16.141  0.00  0.00    +0.000 HD
BRANCH   9  12
ATOM     12  C   UNL     1       8.397   8.459  18.186  0.00  0.00    +0.000 C 
BRANCH  12  13
ATOM     13  C   UNL     1       8.225   9.985  18.090  0.00  0.00    +0.000 C 
BRANCH  13  14
ATOM     14  C   UNL     1       9.386  10.743  18.654  0.00  0.00    +0.000 A 
ATOM     15  C   UNL     1      10.483  11.243  17.982  0.00  0.00    +0.000 A 
ATOM     16  C   UNL     1      11.429  11.837  18.864  0.00  0.00    +0.000 A 
ATOM     17  C   UNL     1      11.019  11.778  20.177  0.00  0.00    +0.000 A 
ATOM     18  S   UNL     1       9.494  11.023  20.341  0.00  0.00    +0.000 S 
ENDBRANCH  13  14
ENDBRANCH  12  13
ENDBRANCH   9  12
ENDBRANCH   1   6
BRANCH   1  19
ATOM     19  C   UNL     1       2.619   6.507  18.684  0.00  0.00    +0.000 C 
BRANCH  19  20
ATOM     20  C   UNL     1       2.003   7.853  19.151  0.00  0.00    +0.000 C 
ATOM     21  O   UNL     1       1.753   8.079  20.329  0.00  0.00    +0.000 OA
ATOM     22  N   UNL     1       1.787   8.765  18.110  0.00  0.00    +0.000 N 
ATOM     23  H   UNL     1       1.815   8.421  17.164  0.00  0.00    +0.000 HD
BRANCH  22  24
ATOM     24  C   UNL     1       1.226  10.053  18.280  0.00  0.00    +0.000 A 
ATOM     25  C   UNL     1       2.002  11.210  18.373  0.00  0.00    +0.000 A 
ATOM     26  C   UNL     1       1.408  12.455  18.581  0.00  0.00    +0.000 A 
ATOM     27  C   UNL     1       0.025  12.554  18.699  0.00  0.00    +0.000 A 
ATOM     28  C   UNL     1      -0.764  11.412  18.588  0.00  0.00    +0.000 A 
ATOM     29  C   UNL     1      -0.169  10.166  18.364  0.00  0.00    +0.000 A 
ENDBRANCH  22  24
ENDBRANCH  19  20
BRANCH  19  30
ATOM     30  C   UNL     1       1.924   5.298  19.364  0.00  0.00    +0.000 C 
BRANCH  30  31
ATOM     31  C   UNL     1       2.528   3.947  19.035  0.00  0.00    +0.000 A 
ATOM     32  C   UNL     1       2.153   3.258  17.869  0.00  0.00    +0.000 A 
ATOM     33  C   UNL     1       2.621   1.968  17.619  0.00  0.00    +0.000 A 
ATOM     34  C   UNL     1       3.497   1.363  18.514  0.00  0.00    +0.000 A 
ATOM     35  C   UNL     1       3.914   2.053  19.652  0.00  0.00    +0.000 A 
ATOM     36  C   UNL     1       3.433   3.338  19.912  0.00  0.00    +0.000 A 
ENDBRANCH  30  31
ENDBRANCH  19  30
ENDBRANCH   1  19
TORSDOF 9
ENDMDL
MODEL 8
REMARK VINA RESULT:      -8.3      1.136      1.586
REMARK  Name = 
REMARK  10 active torsions:
REMARK  status: ('A' for Active; 'I' for Inactive)
REMARK    1  A    between atoms: C_1  and  C_2
REMARK    2  A    between atoms: C_4  and  N_5
REMARK    3  A    between atoms: N_5  and  C_6
REMARK    4  A    between atoms: C_6  and  C_7
REMARK    5  A    between atoms: C_6  and  C_14
REMARK    6  A    between atoms: C_7  and  C_8
REMARK    7  A    between atoms: N_16  and  C_17
REMARK    8  A    between atoms: N_25  and  C_26
REMARK    9  A    between atoms: C_26  and  C_27
REMARK   10  A    between atoms: C_27  and  C_28
REMARK                            x       y       z     vdW  Elec       q    Type
REMARK                         _______ _______ _______ _____ _____    ______ ____
ROOT
ATOM      1  N   UNL     1       3.968   6.437  18.748  0.00  0.00    +0.000 N 
ATOM      2  H   UNL     1       4.412   6.884  19.546  0.00  0.00    +0.000 HD
ENDROOT
BRANCH   1   6
ATOM      3  C   UNL     1       6.157   3.705  15.285  0.00  0.00    +0.000 C 
ATOM      4  C   UNL     1       5.980   4.955  16.090  0.00  0.00    +0.000 A 
ATOM      5  C   UNL     1       4.917   5.097  16.957  0.00  0.00    +0.000 A 
ATOM      6  C   UNL     1       4.912   6.207  17.768  0.00  0.00    +0.000 A 
ATOM      7  N   UNL     1       5.916   7.102  17.719  0.00  0.00    +0.000 NA
ATOM      8  C   UNL     1       6.912   6.898  16.839  0.00  0.00    +0.000 A 
ATOM      9  N   UNL     1       8.049   7.704  16.846  0.00  0.00    +0.000 N 
ATOM     10  N   UNL     1       6.958   5.870  15.992  0.00  0.00    +0.000 NA
ATOM     11  H   UNL     1       7.955   8.338  16.060  0.00  0.00    +0.000 HD
BRANCH   9  12
ATOM     12  C   UNL     1       8.341   8.363  18.113  0.00  0.00    +0.000 C 
BRANCH  12  13
ATOM     13  C   UNL     1       8.247   9.890  17.960  0.00  0.00    +0.000 C 
BRANCH  13  14
ATOM     14  C   UNL     1       9.278  10.625  18.759  0.00  0.00    +0.000 A 
ATOM     15  C   UNL     1       9.383  10.720  20.132  0.00  0.00    +0.000 A 
ATOM     16  C   UNL     1      10.447  11.577  20.533  0.00  0.00    +0.000 A 
ATOM     17  C   UNL     1      11.123  12.099  19.453  0.00  0.00    +0.000 A 
ATOM     18  S   UNL     1      10.486  11.546  17.967  0.00  0.00    +0.000 S 
ENDBRANCH  13  14
ENDBRANCH  12  13
ENDBRANCH   9  12
ENDBRANCH   1   6
BRANCH   1  19
ATOM     19  C   UNL     1       2.533   6.702  18.530  0.00  0.00    +0.000 C 
BRANCH  19  20
ATOM     20  C   UNL     1       2.192   8.195  18.278  0.00  0.00    +0.000 C 
ATOM     21  O   UNL     1       2.558   8.782  17.267  0.00  0.00    +0.000 OA
ATOM     22  N   UNL     1       1.426   8.778  19.296  0.00  0.00    +0.000 N 
ATOM     23  H   UNL     1       1.359   8.294  20.176  0.00  0.00    +0.000 HD
BRANCH  22  24
ATOM     24  C   UNL     1       0.999  10.127  19.300  0.00  0.00    +0.000 A 
ATOM     25  C   UNL     1       1.657  11.131  18.586  0.00  0.00    +0.000 A 
ATOM     26  C   UNL     1       1.225  12.456  18.652  0.00  0.00    +0.000 A 
ATOM     27  C   UNL     1       0.125  12.790  19.436  0.00  0.00    +0.000 A 
ATOM     28  C   UNL     1      -0.554  11.796  20.139  0.00  0.00    +0.000 A 
ATOM     29  C   UNL     1      -0.129  10.466  20.060  0.00  0.00    +0.000 A 
ENDBRANCH  22  24
ENDBRANCH  19  20
BRANCH  19  30
ATOM     30  C   UNL     1       1.695   6.115  19.697  0.00  0.00    +0.000 C 
BRANCH  30  31
ATOM     31  C   UNL     1       1.643   4.602  19.747  0.00  0.00    +0.000 A 
ATOM     32  C   UNL     1       1.445   3.851  18.576  0.00  0.00    +0.000 A 
ATOM     33  C   UNL     1       1.285   2.467  18.633  0.00  0.00    +0.000 A 
ATOM     34  C   UNL     1       1.355   1.810  19.858  0.00  0.00    +0.000 A 
ATOM     35  C   UNL     1       1.597   2.537  21.022  0.00  0.00    +0.000 A 
ATOM     36  C   UNL     1       1.741   3.925  20.969  0.00  0.00    +0.000 A 
ENDBRANCH  30  31
ENDBRANCH  19  30
ENDBRANCH   1  19
TORSDOF 9
ENDMDL
MODEL 9
REMARK VINA RESULT:      -8.2      1.775      1.981
REMARK  Name = 
REMARK  10 active torsions:
REMARK  status: ('A' for Active; 'I' for Inactive)
REMARK    1  A    between atoms: C_1  and  C_2
REMARK    2  A    between atoms: C_4  and  N_5
REMARK    3  A    between atoms: N_5  and  C_6
REMARK    4  A    between atoms: C_6  and  C_7
REMARK    5  A    between atoms: C_6  and  C_14
REMARK    6  A    between atoms: C_7  and  C_8
REMARK    7  A    between atoms: N_16  and  C_17
REMARK    8  A    between atoms: N_25  and  C_26
REMARK    9  A    between atoms: C_26  and  C_27
REMARK   10  A    between atoms: C_27  and  C_28
REMARK                            x       y       z     vdW  Elec       q    Type
REMARK                         _______ _______ _______ _____ _____    ______ ____
ROOT
ATOM      1  N   UNL     1       3.654   7.678  17.243  0.00  0.00    +0.000 N 
ATOM      2  H   UNL     1       3.344   8.297  16.498  0.00  0.00    +0.000 HD
ENDROOT
BRANCH   1   6
ATOM      3  C   UNL     1       6.123   3.746  15.601  0.00  0.00    +0.000 C 
ATOM      4  C   UNL     1       6.019   5.174  16.038  0.00  0.00    +0.000 A 
ATOM      5  C   UNL     1       4.793   5.749  16.300  0.00  0.00    +0.000 A 
ATOM      6  C   UNL     1       4.795   7.014  16.842  0.00  0.00    +0.000 A 
ATOM      7  N   UNL     1       5.952   7.645  17.113  0.00  0.00    +0.000 NA
ATOM      8  C   UNL     1       7.105   7.022  16.819  0.00  0.00    +0.000 A 
ATOM      9  N   UNL     1       8.330   7.559  17.214  0.00  0.00    +0.000 N 
ATOM     10  N   UNL     1       7.178   5.817  16.252  0.00  0.00    +0.000 NA
ATOM     11  H   UNL     1       8.744   7.967  16.384  0.00  0.00    +0.000 HD
BRANCH   9  12
ATOM     12  C   UNL     1       8.277   8.459  18.360  0.00  0.00    +0.000 C 
BRANCH  12  13
ATOM     13  C   UNL     1       8.305   9.925  17.895  0.00  0.00    +0.000 C 
BRANCH  13  14
ATOM     14  C   UNL     1       9.425  10.712  18.500  0.00  0.00    +0.000 A 
ATOM     15  C   UNL     1      10.520  11.260  17.863  0.00  0.00    +0.000 A 
ATOM     16  C   UNL     1      11.424  11.870  18.778  0.00  0.00    +0.000 A 
ATOM     17  C   UNL     1      10.984  11.776  20.079  0.00  0.00    +0.000 A 
ATOM     18  S   UNL     1       9.482  10.968  20.193  0.00  0.00    +0.000 S 
ENDBRANCH  13  14
ENDBRANCH  12  13
ENDBRANCH   9  12
ENDBRANCH   1   6
BRANCH   1  19
ATOM     19  C   UNL     1       2.630   7.166  18.174  0.00  0.00    +0.000 C 
BRANCH  19  20
ATOM     20  C   UNL     1       1.741   8.268  18.810  0.00  0.00    +0.000 C 
ATOM     21  O   UNL     1       1.170   9.114  18.132  0.00  0.00    +0.000 OA
ATOM     22  N   UNL     1       1.649   8.183  20.206  0.00  0.00    +0.000 N 
ATOM     23  H   UNL     1       2.314   7.602  20.691  0.00  0.00    +0.000 HD
BRANCH  22  24
ATOM     24  C   UNL     1       0.908   9.078  21.013  0.00  0.00    +0.000 A 
ATOM     25  C   UNL     1       0.167   8.661  22.121  0.00  0.00    +0.000 A 
ATOM     26  C   UNL     1      -0.581   9.574  22.865  0.00  0.00    +0.000 A 
ATOM     27  C   UNL     1      -0.594  10.918  22.506  0.00  0.00    +0.000 A 
ATOM     28  C   UNL     1       0.157  11.353  21.416  0.00  0.00    +0.000 A 
ATOM     29  C   UNL     1       0.919  10.439  20.679  0.00  0.00    +0.000 A 
ENDBRANCH  22  24
ENDBRANCH  19  20
BRANCH  19  30
ATOM     30  C   UNL     1       3.287   6.270  19.256  0.00  0.00    +0.000 C 
BRANCH  30  31
ATOM     31  C   UNL     1       3.069   4.782  19.071  0.00  0.00    +0.000 A 
ATOM     32  C   UNL     1       4.009   3.853  19.548  0.00  0.00    +0.000 A 
ATOM     33  C   UNL     1       3.868   2.492  19.282  0.00  0.00    +0.000 A 
ATOM     34  C   UNL     1       2.765   2.036  18.567  0.00  0.00    +0.000 A 
ATOM     35  C   UNL     1       1.800   2.941  18.128  0.00  0.00    +0.000 A 
ATOM     36  C   UNL     1       1.949   4.306  18.378  0.00  0.00    +0.000 A 
ENDBRANCH  30  31
ENDBRANCH  19  30
ENDBRANCH   1  19
TORSDOF 9
ENDMDL
