MODEL 1
REMARK VINA RESULT:      -4.5      0.000      0.000
REMARK  Name = 
REMARK  3 active torsions:
REMARK  status: ('A' for Active; 'I' for Inactive)
REMARK    1  A    between atoms: C_2  and  O_3
REMARK    2  A    between atoms: C_2  and  C_4
REMARK    3  A    between atoms: C_4  and  C_5
REMARK                            x       y       z     vdW  Elec       q    Type
REMARK                         _______ _______ _______ _____ _____    ______ ____
ROOT
ATOM      1  C   UNL     1       7.188   5.212  18.629  0.00  0.00    +0.000 C 
ATOM      2  C   UNL     1       7.915   6.551  18.692  0.00  0.00    +0.000 C 
ATOM      3  C   UNL     1       7.495   7.239  17.410  0.00  0.00    +0.000 C 
ATOM      4  N   UNL     1       7.334   6.168  16.422  0.00  0.00    +0.000 NA
ATOM      5  C   UNL     1       7.294   4.886  17.141  0.00  0.00    +0.000 C 
ATOM      6  H   UNL     1       8.145   6.165  15.799  0.00  0.00    +0.000 HD
ENDROOT
BRANCH   1   7
ATOM      7  C   UNL     1       5.721   5.291  19.081  0.00  0.00    +0.000 C 
BRANCH   7   9
ATOM      8  O   UNL     1       4.012   3.975  17.953  0.00  0.00    +0.000 OA
ATOM      9  C   UNL     1       4.934   4.043  18.751  0.00  0.00    +0.000 C 
BRANCH   9  10
ATOM     10  O   UNL     1       5.362   2.967  19.451  0.00  0.00    +0.000 OA
ATOM     11  H   UNL     1       5.492   3.144  20.402  0.00  0.00    +0.000 HD
ENDBRANCH   9  10
ENDBRANCH   7   9
ENDBRANCH   1   7
TORSDOF 3
ENDMDL
MODEL 2
REMARK VINA RESULT:      -4.5      3.844      4.871
REMARK  Name = 
REMARK  3 active torsions:
REMARK  status: ('A' for Active; 'I' for Inactive)
REMARK    1  A    between atoms: C_2  and  O_3
REMARK    2  A    between atoms: C_2  and  C_4
REMARK    3  A    between atoms: C_4  and  C_5
REMARK                            x       y       z     vdW  Elec       q    Type
REMARK                         _______ _______ _______ _____ _____    ______ ____
ROOT
ATOM      1  C   UNL     1       3.110   2.888  17.897  0.00  0.00    +0.000 C 
ATOM      2  C   UNL     1       3.484   1.660  18.720  0.00  0.00    +0.000 C 
ATOM      3  C   UNL     1       4.407   2.219  19.783  0.00  0.00    +0.000 C 
ATOM      4  N   UNL     1       5.128   3.321  19.140  0.00  0.00    +0.000 NA
ATOM      5  C   UNL     1       4.430   3.655  17.889  0.00  0.00    +0.000 C 
ATOM      6  H   UNL     1       6.074   3.011  18.910  0.00  0.00    +0.000 HD
ENDROOT
BRANCH   1   7
ATOM      7  C   UNL     1       1.982   3.723  18.523  0.00  0.00    +0.000 C 
BRANCH   7   9
ATOM      8  O   UNL     1       0.190   2.078  18.433  0.00  0.00    +0.000 OA
ATOM      9  C   UNL     1       0.856   2.877  19.073  0.00  0.00    +0.000 C 
BRANCH   9  10
ATOM     10  O   UNL     1       0.645   3.098  20.391  0.00  0.00    +0.000 OA
ATOM     11  H   UNL     1       0.893   3.996  20.683  0.00  0.00    +0.000 HD
ENDBRANCH   9  10
ENDBRANCH   7   9
ENDBRANCH   1   7
TORSDOF 3
ENDMDL
MODEL 3
REMARK VINA RESULT:      -4.4      2.992      3.932
REMARK  Name = 
REMARK  3 active torsions:
REMARK  status: ('A' for Active; 'I' for Inactive)
REMARK    1  A    between atoms: C_2  and  O_3
REMARK    2  A    between atoms: C_2  and  C_4
REMARK    3  A    between atoms: C_4  and  C_5
REMARK                            x       y       z     vdW  Elec       q    Type
REMARK                         _______ _______ _______ _____ _____    ______ ____
ROOT
ATOM      1  C   UNL     1       4.658   4.662  16.926  0.00  0.00    +0.000 C 
ATOM      2  C   UNL     1       4.970   5.072  18.361  0.00  0.00    +0.000 C 
ATOM      3  C   UNL     1       4.816   3.780  19.136  0.00  0.00    +0.000 C 
ATOM      4  N   UNL     1       3.750   3.037  18.456  0.00  0.00    +0.000 NA
ATOM      5  C   UNL     1       3.527   3.659  17.142  0.00  0.00    +0.000 C 
ATOM      6  H   UNL     1       2.889   3.115  19.001  0.00  0.00    +0.000 HD
ENDROOT
BRANCH   1   7
ATOM      7  C   UNL     1       5.849   4.015  16.202  0.00  0.00    +0.000 C 
BRANCH   7   9
ATOM      8  O   UNL     1       7.384   5.877  15.885  0.00  0.00    +0.000 OA
ATOM      9  C   UNL     1       7.137   4.787  16.376  0.00  0.00    +0.000 C 
BRANCH   9  10
ATOM     10  O   UNL     1       8.026   4.130  17.156  0.00  0.00    +0.000 OA
ATOM     11  H   UNL     1       8.350   4.657  17.912  0.00  0.00    +0.000 HD
ENDBRANCH   9  10
ENDBRANCH   7   9
ENDBRANCH   1   7
TORSDOF 3
ENDMDL
MODEL 4
REMARK VINA RESULT:      -4.4      2.622      3.694
REMARK  Name = 
REMARK  3 active torsions:
REMARK  status: ('A' for Active; 'I' for Inactive)
REMARK    1  A    between atoms: C_2  and  O_3
REMARK    2  A    between atoms: C_2  and  C_4
REMARK    3  A    between atoms: C_4  and  C_5
REMARK                            x       y       z     vdW  Elec       q    Type
REMARK                         _______ _______ _______ _____ _____    ______ ____
ROOT
ATOM      1  C   UNL     1       4.991   5.304  18.183  0.00  0.00    +0.000 C 
ATOM      2  C   UNL     1       4.147   4.877  19.379  0.00  0.00    +0.000 C 
ATOM      3  C   UNL     1       4.309   3.372  19.403  0.00  0.00    +0.000 C 
ATOM      4  N   UNL     1       4.438   2.966  18.000  0.00  0.00    +0.000 NA
ATOM      5  C   UNL     1       4.711   4.170  17.200  0.00  0.00    +0.000 C 
ATOM      6  H   UNL     1       3.552   2.563  17.687  0.00  0.00    +0.000 HD
ENDROOT
BRANCH   1   7
ATOM      7  C   UNL     1       6.491   5.411  18.500  0.00  0.00    +0.000 C 
BRANCH   7   9
ATOM      8  O   UNL     1       7.439   6.103  16.368  0.00  0.00    +0.000 OA
ATOM      9  C   UNL     1       7.365   5.286  17.273  0.00  0.00    +0.000 C 
BRANCH   9  10
ATOM     10  O   UNL     1       8.084   4.139  17.269  0.00  0.00    +0.000 OA
ATOM     11  H   UNL     1       7.783   3.490  16.605  0.00  0.00    +0.000 HD
ENDBRANCH   9  10
ENDBRANCH   7   9
ENDBRANCH   1   7
TORSDOF 3
ENDMDL
MODEL 5
REMARK VINA RESULT:      -4.3      2.562      3.363
REMARK  Name = 
REMARK  3 active torsions:
REMARK  status: ('A' for Active; 'I' for Inactive)
REMARK    1  A    between atoms: C_2  and  O_3
REMARK    2  A    between atoms: C_2  and  C_4
REMARK    3  A    between atoms: C_4  and  C_5
REMARK                            x       y       z     vdW  Elec       q    Type
REMARK                         _______ _______ _______ _____ _____    ______ ____
ROOT
ATOM      1  C   UNL     1       6.932   5.575  16.713  0.00  0.00    +0.000 C 
ATOM      2  C   UNL     1       5.429   5.708  16.933  0.00  0.00    +0.000 C 
ATOM      3  C   UNL     1       4.895   4.349  16.533  0.00  0.00    +0.000 C 
ATOM      4  N   UNL     1       5.769   3.884  15.452  0.00  0.00    +0.000 NA
ATOM      5  C   UNL     1       6.974   4.728  15.444  0.00  0.00    +0.000 C 
ATOM      6  H   UNL     1       5.286   4.002  14.558  0.00  0.00    +0.000 HD
ENDROOT
BRANCH   1   7
ATOM      7  C   UNL     1       7.660   4.881  17.874  0.00  0.00    +0.000 C 
BRANCH   7   9
ATOM      8  O   UNL     1       7.420   5.432  20.233  0.00  0.00    +0.000 OA
ATOM      9  C   UNL     1       7.769   5.749  19.107  0.00  0.00    +0.000 C 
BRANCH   9  10
ATOM     10  O   UNL     1       8.309   6.960  18.835  0.00  0.00    +0.000 OA
ATOM     11  H   UNL     1       9.278   6.993  18.949  0.00  0.00    +0.000 HD
ENDBRANCH   9  10
ENDBRANCH   7   9
ENDBRANCH   1   7
TORSDOF 3
ENDMDL
MODEL 6
REMARK VINA RESULT:      -4.3      4.127      5.099
REMARK  Name = 
REMARK  3 active torsions:
REMARK  status: ('A' for Active; 'I' for Inactive)
REMARK    1  A    between atoms: C_2  and  O_3
REMARK    2  A    between atoms: C_2  and  C_4
REMARK    3  A    between atoms: C_4  and  C_5
REMARK                            x       y       z     vdW  Elec       q    Type
REMARK                         _______ _______ _______ _____ _____    ______ ____
ROOT
ATOM      1  C   UNL     1       2.912   3.662  18.817  0.00  0.00    +0.000 C 
ATOM      2  C   UNL     1       2.959   2.571  17.752  0.00  0.00    +0.000 C 
ATOM      3  C   UNL     1       3.676   1.433  18.448  0.00  0.00    +0.000 C 
ATOM      4  N   UNL     1       4.636   2.068  19.356  0.00  0.00    +0.000 NA
ATOM      5  C   UNL     1       4.275   3.488  19.483  0.00  0.00    +0.000 C 
ATOM      6  H   UNL     1       5.572   2.007  18.948  0.00  0.00    +0.000 HD
ENDROOT
BRANCH   1   7
ATOM      7  C   UNL     1       1.769   3.481  19.828  0.00  0.00    +0.000 C 
BRANCH   7   9
ATOM      8  O   UNL     1       2.236   3.293  22.209  0.00  0.00    +0.000 OA
ATOM      9  C   UNL     1       2.117   3.984  21.210  0.00  0.00    +0.000 C 
BRANCH   9  10
ATOM     10  O   UNL     1       2.289   5.327  21.238  0.00  0.00    +0.000 OA
ATOM     11  H   UNL     1       2.939   5.625  21.903  0.00  0.00    +0.000 HD
ENDBRANCH   9  10
ENDBRANCH   7   9
ENDBRANCH   1   7
TORSDOF 3
ENDMDL
MODEL 7
REMARK VINA RESULT:      -4.3      5.089      5.732
REMARK  Name = 
REMARK  3 active torsions:
REMARK  status: ('A' for Active; 'I' for Inactive)
REMARK    1  A    between atoms: C_2  and  O_3
REMARK    2  A    between atoms: C_2  and  C_4
REMARK    3  A    between atoms: C_4  and  C_5
REMARK                            x       y       z     vdW  Elec       q    Type
REMARK                         _______ _______ _______ _____ _____    ______ ____
ROOT
ATOM      1  C   UNL     1       1.179   3.288  19.229  0.00  0.00    +0.000 C 
ATOM      2  C   UNL     1       1.679   1.918  18.780  0.00  0.00    +0.000 C 
ATOM      3  C   UNL     1       2.893   2.247  17.937  0.00  0.00    +0.000 C 
ATOM      4  N   UNL     1       2.589   3.527  17.290  0.00  0.00    +0.000 NA
ATOM      5  C   UNL     1       1.432   4.122  17.975  0.00  0.00    +0.000 C 
ATOM      6  H   UNL     1       2.334   3.354  16.315  0.00  0.00    +0.000 HD
ENDROOT
BRANCH   1   7
ATOM      7  C   UNL     1       1.942   3.850  20.439  0.00  0.00    +0.000 C 
BRANCH   7   9
ATOM      8  O   UNL     1       3.104   2.337  21.951  0.00  0.00    +0.000 OA
ATOM      9  C   UNL     1       2.066   2.858  21.572  0.00  0.00    +0.000 C 
BRANCH   9  10
ATOM     10  O   UNL     1       0.872   2.586  22.148  0.00  0.00    +0.000 OA
ATOM     11  H   UNL     1       0.857   1.745  22.644  0.00  0.00    +0.000 HD
ENDBRANCH   9  10
ENDBRANCH   7   9
ENDBRANCH   1   7
TORSDOF 3
ENDMDL
MODEL 8
REMARK VINA RESULT:      -4.3      1.680      2.437
REMARK  Name = 
REMARK  3 active torsions:
REMARK  status: ('A' for Active; 'I' for Inactive)
REMARK    1  A    between atoms: C_2  and  O_3
REMARK    2  A    between atoms: C_2  and  C_4
REMARK    3  A    between atoms: C_4  and  C_5
REMARK                            x       y       z     vdW  Elec       q    Type
REMARK                         _______ _______ _______ _____ _____    ______ ____
ROOT
ATOM      1  C   UNL     1       5.504   5.345  16.694  0.00  0.00    +0.000 C 
ATOM      2  C   UNL     1       5.558   5.296  15.170  0.00  0.00    +0.000 C 
ATOM      3  C   UNL     1       6.741   4.395  14.890  0.00  0.00    +0.000 C 
ATOM      4  N   UNL     1       7.695   4.647  15.974  0.00  0.00    +0.000 NA
ATOM      5  C   UNL     1       6.991   5.371  17.043  0.00  0.00    +0.000 C 
ATOM      6  H   UNL     1       8.450   5.242  15.623  0.00  0.00    +0.000 HD
ENDROOT
BRANCH   1   7
ATOM      7  C   UNL     1       4.804   4.128  17.320  0.00  0.00    +0.000 C 
BRANCH   7   9
ATOM      8  O   UNL     1       4.507   5.094  19.535  0.00  0.00    +0.000 OA
ATOM      9  C   UNL     1       4.826   4.148  18.831  0.00  0.00    +0.000 C 
BRANCH   9  10
ATOM     10  O   UNL     1       5.250   2.973  19.353  0.00  0.00    +0.000 OA
ATOM     11  H   UNL     1       5.860   3.077  20.108  0.00  0.00    +0.000 HD
ENDBRANCH   9  10
ENDBRANCH   7   9
ENDBRANCH   1   7
TORSDOF 3
ENDMDL
MODEL 9
REMARK VINA RESULT:      -4.3      2.472      3.273
REMARK  Name = 
REMARK  3 active torsions:
REMARK  status: ('A' for Active; 'I' for Inactive)
REMARK    1  A    between atoms: C_2  and  O_3
REMARK    2  A    between atoms: C_2  and  C_4
REMARK    3  A    between atoms: C_4  and  C_5
REMARK                            x       y       z     vdW  Elec       q    Type
REMARK                         _______ _______ _______ _____ _____    ______ ____
ROOT
ATOM      1  C   UNL     1       6.032   4.584  17.110  0.00  0.00    +0.000 C 
ATOM      2  C   UNL     1       5.931   3.863  15.770  0.00  0.00    +0.000 C 
ATOM      3  C   UNL     1       6.196   4.960  14.761  0.00  0.00    +0.000 C 
ATOM      4  N   UNL     1       5.638   6.181  15.349  0.00  0.00    +0.000 NA
ATOM      5  C   UNL     1       5.384   5.926  16.775  0.00  0.00    +0.000 C 
ATOM      6  H   UNL     1       4.747   6.393  14.894  0.00  0.00    +0.000 HD
ENDROOT
BRANCH   1   7
ATOM      7  C   UNL     1       7.477   4.768  17.599  0.00  0.00    +0.000 C 
BRANCH   7   9
ATOM      8  O   UNL     1       8.122   6.869  18.645  0.00  0.00    +0.000 OA
ATOM      9  C   UNL     1       7.597   5.769  18.725  0.00  0.00    +0.000 C 
BRANCH   9  10
ATOM     10  O   UNL     1       7.048   5.315  19.876  0.00  0.00    +0.000 OA
ATOM     11  H   UNL     1       6.100   5.096  19.799  0.00  0.00    +0.000 HD
ENDBRANCH   9  10
ENDBRANCH   7   9
ENDBRANCH   1   7
TORSDOF 3
ENDMDL
