MODEL 1
REMARK VINA RESULT:      -8.4      0.000      0.000
REMARK  Name = 
REMARK  7 active torsions:
REMARK  status: ('A' for Active; 'I' for Inactive)
REMARK    1  A    between atoms: C_1  and  C_2
REMARK    2  A    between atoms: C_4  and  C_5
REMARK    3  A    between atoms: C_6  and  C_7
REMARK    4  A    between atoms: C_11  and  N_12
REMARK    5  A    between atoms: C_21  and  C_22
REMARK    6  A    between atoms: C_27  and  C_28
REMARK    7  A    between atoms: C_31  and  C_32
REMARK                            x       y       z     vdW  Elec       q    Type
REMARK                         _______ _______ _______ _____ _____    ______ ____
ROOT
ATOM      1  C   UNL     1      -0.910  14.749  19.503  0.00  0.00    +0.000 C 
ATOM      2  C   UNL     1      -0.251  13.402  19.387  0.00  0.00    +0.000 A 
ATOM      3  C   UNL     1      -0.981  12.374  18.758  0.00  0.00    +0.000 A 
ATOM      4  C   UNL     1      -0.465  11.075  18.609  0.00  0.00    +0.000 A 
ATOM      5  C   UNL     1      -1.308  10.044  17.906  0.00  0.00    +0.000 C 
ATOM      6  C   UNL     1       0.803  10.776  19.138  0.00  0.00    +0.000 A 
ATOM      7  C   UNL     1       1.471  11.775  19.861  0.00  0.00    +0.000 A 
ATOM      8  C   UNL     1       1.016  13.100  19.919  0.00  0.00    +0.000 A 
ENDROOT
BRANCH   6   9
ATOM      9  C   UNL     1       1.472   9.489  18.902  0.00  0.00    +0.000 A 
ATOM     10  N   UNL     1       2.234   9.196  17.864  0.00  0.00    +0.000 NA
ATOM     11  C   UNL     1       2.683   7.919  18.060  0.00  0.00    +0.000 A 
ATOM     12  C   UNL     1       3.495   7.134  17.253  0.00  0.00    +0.000 A 
ATOM     13  C   UNL     1       3.792   5.853  17.706  0.00  0.00    +0.000 A 
ATOM     14  N   UNL     1       3.336   5.376  18.893  0.00  0.00    +0.000 NA
ATOM     15  C   UNL     1       2.542   6.139  19.685  0.00  0.00    +0.000 A 
ATOM     16  C   UNL     1       2.216   7.410  19.256  0.00  0.00    +0.000 A 
ATOM     17  N   UNL     1       1.450   8.418  19.775  0.00  0.00    +0.000 N 
ATOM     18  H   UNL     1       0.941   8.381  20.644  0.00  0.00    +0.000 HD
BRANCH  13  19
ATOM     19  N   UNL     1       4.636   5.053  16.930  0.00  0.00    +0.000 N 
ATOM     20  C   UNL     1       4.779   3.640  16.862  0.00  0.00    +0.000 C 
ATOM     21  C   UNL     1       5.898   3.912  15.841  0.00  0.00    +0.000 C 
ATOM     22  C   UNL     1       5.227   5.277  15.654  0.00  0.00    +0.000 C 
ENDBRANCH  13  19
ENDBRANCH   6   9
BRANCH   8  23
ATOM     23  C   UNL     1       1.869  14.125  20.613  0.00  0.00    +0.000 C 
ATOM     24  O   UNL     1       1.581  14.401  21.778  0.00  0.00    +0.000 OA
ATOM     25  N   UNL     1       2.971  14.723  19.962  0.00  0.00    +0.000 N 
ATOM     26  C   UNL     1       3.922  15.462  20.793  0.00  0.00    +0.000 C 
ATOM     27  C   UNL     1       4.455  16.717  20.098  0.00  0.00    +0.000 C 
ATOM     28  C   UNL     1       5.022  16.441  18.692  0.00  0.00    +0.000 C 
ATOM     29  C   UNL     1       3.923  15.729  17.886  0.00  0.00    +0.000 C 
ATOM     30  C   UNL     1       3.407  14.482  18.584  0.00  0.00    +0.000 C 
BRANCH  28  31
ATOM     31  C   UNL     1       6.383  15.745  18.615  0.00  0.00    +0.000 A 
ATOM     32  C   UNL     1       6.619  14.613  17.821  0.00  0.00    +0.000 A 
ATOM     33  C   UNL     1       7.864  13.973  17.814  0.00  0.00    +0.000 A 
ATOM     34  C   UNL     1       8.900  14.444  18.623  0.00  0.00    +0.000 A 
ATOM     35  C   UNL     1       8.685  15.556  19.432  0.00  0.00    +0.000 A 
ATOM     36  C   UNL     1       7.439  16.195  19.431  0.00  0.00    +0.000 A 
BRANCH  34  37
ATOM     37  C   UNL     1      10.171  13.775  18.628  0.00  0.00    +0.000 C 
ATOM     38  N   UNL     1      11.194  13.239  18.626  0.00  0.00    +0.000 NA
ENDBRANCH  34  37
ENDBRANCH  28  31
ENDBRANCH   8  23
TORSDOF 5
ENDMDL
MODEL 2
REMARK VINA RESULT:      -8.2      1.038      1.271
REMARK  Name = 
REMARK  7 active torsions:
REMARK  status: ('A' for Active; 'I' for Inactive)
REMARK    1  A    between atoms: C_1  and  C_2
REMARK    2  A    between atoms: C_4  and  C_5
REMARK    3  A    between atoms: C_6  and  C_7
REMARK    4  A    between atoms: C_11  and  N_12
REMARK    5  A    between atoms: C_21  and  C_22
REMARK    6  A    between atoms: C_27  and  C_28
REMARK    7  A    between atoms: C_31  and  C_32
REMARK                            x       y       z     vdW  Elec       q    Type
REMARK                         _______ _______ _______ _____ _____    ______ ____
ROOT
ATOM      1  C   UNL     1      -0.238  15.109  19.379  0.00  0.00    +0.000 C 
ATOM      2  C   UNL     1       0.160  13.662  19.484  0.00  0.00    +0.000 A 
ATOM      3  C   UNL     1      -0.718  12.707  18.936  0.00  0.00    +0.000 A 
ATOM      4  C   UNL     1      -0.450  11.328  18.991  0.00  0.00    +0.000 A 
ATOM      5  C   UNL     1      -1.436  10.379  18.361  0.00  0.00    +0.000 C 
ATOM      6  C   UNL     1       0.709  10.880  19.649  0.00  0.00    +0.000 A 
ATOM      7  C   UNL     1       1.515  11.831  20.290  0.00  0.00    +0.000 A 
ATOM      8  C   UNL     1       1.317  13.213  20.145  0.00  0.00    +0.000 A 
ENDROOT
BRANCH   6   9
ATOM      9  C   UNL     1       1.133   9.473  19.629  0.00  0.00    +0.000 A 
ATOM     10  N   UNL     1       1.786   8.880  18.646  0.00  0.00    +0.000 NA
ATOM     11  C   UNL     1       2.015   7.594  19.053  0.00  0.00    +0.000 A 
ATOM     12  C   UNL     1       2.643   6.554  18.382  0.00  0.00    +0.000 A 
ATOM     13  C   UNL     1       2.733   5.333  19.044  0.00  0.00    +0.000 A 
ATOM     14  N   UNL     1       2.254   5.151  20.302  0.00  0.00    +0.000 NA
ATOM     15  C   UNL     1       1.640   6.164  20.962  0.00  0.00    +0.000 A 
ATOM     16  C   UNL     1       1.520   7.384  20.325  0.00  0.00    +0.000 A 
ATOM     17  N   UNL     1       0.965   8.585  20.674  0.00  0.00    +0.000 N 
ATOM     18  H   UNL     1       0.496   8.784  21.543  0.00  0.00    +0.000 HD
BRANCH  13  19
ATOM     19  N   UNL     1       3.390   4.277  18.406  0.00  0.00    +0.000 N 
ATOM     20  C   UNL     1       3.973   4.187  17.113  0.00  0.00    +0.000 C 
ATOM     21  C   UNL     1       4.291   2.726  17.478  0.00  0.00    +0.000 C 
ATOM     22  C   UNL     1       4.137   3.185  18.932  0.00  0.00    +0.000 C 
ENDBRANCH  13  19
ENDBRANCH   6   9
BRANCH   8  23
ATOM     23  C   UNL     1       2.312  14.152  20.768  0.00  0.00    +0.000 C 
ATOM     24  O   UNL     1       2.093  14.519  21.922  0.00  0.00    +0.000 OA
ATOM     25  N   UNL     1       3.462  14.572  20.063  0.00  0.00    +0.000 N 
ATOM     26  C   UNL     1       4.522  15.222  20.836  0.00  0.00    +0.000 C 
ATOM     27  C   UNL     1       5.191  16.363  20.067  0.00  0.00    +0.000 C 
ATOM     28  C   UNL     1       5.680  15.950  18.665  0.00  0.00    +0.000 C 
ATOM     29  C   UNL     1       4.478  15.347  17.920  0.00  0.00    +0.000 C 
ATOM     30  C   UNL     1       3.827  14.211  18.691  0.00  0.00    +0.000 C 
BRANCH  28  31
ATOM     31  C   UNL     1       6.939  15.083  18.595  0.00  0.00    +0.000 A 
ATOM     32  C   UNL     1       7.123  14.078  17.633  0.00  0.00    +0.000 A 
ATOM     33  C   UNL     1       8.267  13.272  17.631  0.00  0.00    +0.000 A 
ATOM     34  C   UNL     1       9.248  13.439  18.611  0.00  0.00    +0.000 A 
ATOM     35  C   UNL     1       9.079  14.418  19.587  0.00  0.00    +0.000 A 
ATOM     36  C   UNL     1       7.935  15.226  19.581  0.00  0.00    +0.000 A 
BRANCH  34  37
ATOM     37  C   UNL     1      10.411  12.598  18.618  0.00  0.00    +0.000 C 
ATOM     38  N   UNL     1      11.351  11.927  18.623  0.00  0.00    +0.000 NA
ENDBRANCH  34  37
ENDBRANCH  28  31
ENDBRANCH   8  23
TORSDOF 5
ENDMDL
MODEL 3
REMARK VINA RESULT:      -8.2      1.038      1.656
REMARK  Name = 
REMARK  7 active torsions:
REMARK  status: ('A' for Active; 'I' for Inactive)
REMARK    1  A    between atoms: C_1  and  C_2
REMARK    2  A    between atoms: C_4  and  C_5
REMARK    3  A    between atoms: C_6  and  C_7
REMARK    4  A    between atoms: C_11  and  N_12
REMARK    5  A    between atoms: C_21  and  C_22
REMARK    6  A    between atoms: C_27  and  C_28
REMARK    7  A    between atoms: C_31  and  C_32
REMARK                            x       y       z     vdW  Elec       q    Type
REMARK                         _______ _______ _______ _____ _____    ______ ____
ROOT
ATOM      1  C   UNL     1      -1.050  14.749  19.940  0.00  0.00    +0.000 C 
ATOM      2  C   UNL     1      -0.363  13.419  19.789  0.00  0.00    +0.000 A 
ATOM      3  C   UNL     1      -1.099  12.374  19.198  0.00  0.00    +0.000 A 
ATOM      4  C   UNL     1      -0.558  11.088  19.021  0.00  0.00    +0.000 A 
ATOM      5  C   UNL     1      -1.411  10.036  18.361  0.00  0.00    +0.000 C 
ATOM      6  C   UNL     1       0.742  10.821  19.483  0.00  0.00    +0.000 A 
ATOM      7  C   UNL     1       1.421  11.836  20.172  0.00  0.00    +0.000 A 
ATOM      8  C   UNL     1       0.937  13.150  20.255  0.00  0.00    +0.000 A 
ENDROOT
BRANCH   6   9
ATOM      9  C   UNL     1       1.431   9.551  19.211  0.00  0.00    +0.000 A 
ATOM     10  N   UNL     1       1.408   8.482  19.986  0.00  0.00    +0.000 NA
ATOM     11  C   UNL     1       2.140   7.521  19.342  0.00  0.00    +0.000 A 
ATOM     12  C   UNL     1       2.441   6.227  19.741  0.00  0.00    +0.000 A 
ATOM     13  C   UNL     1       3.219   5.461  18.877  0.00  0.00    +0.000 A 
ATOM     14  N   UNL     1       3.656   5.932  17.681  0.00  0.00    +0.000 NA
ATOM     15  C   UNL     1       3.364   7.197  17.287  0.00  0.00    +0.000 A 
ATOM     16  C   UNL     1       2.607   7.987  18.130  0.00  0.00    +0.000 A 
ATOM     17  N   UNL     1       2.149   9.275  18.063  0.00  0.00    +0.000 N 
ATOM     18  H   UNL     1       2.320   9.921  17.309  0.00  0.00    +0.000 HD
BRANCH  13  19
ATOM     19  N   UNL     1       3.510   4.142  19.237  0.00  0.00    +0.000 N 
ATOM     20  C   UNL     1       4.753   3.474  19.406  0.00  0.00    +0.000 C 
ATOM     21  C   UNL     1       3.914   2.220  19.707  0.00  0.00    +0.000 C 
ATOM     22  C   UNL     1       2.782   3.204  20.023  0.00  0.00    +0.000 C 
ENDBRANCH  13  19
ENDBRANCH   6   9
BRANCH   8  23
ATOM     23  C   UNL     1       1.798  14.196  20.905  0.00  0.00    +0.000 C 
ATOM     24  O   UNL     1       1.570  14.458  22.086  0.00  0.00    +0.000 OA
ATOM     25  N   UNL     1       2.842  14.830  20.194  0.00  0.00    +0.000 N 
ATOM     26  C   UNL     1       3.818  15.592  20.974  0.00  0.00    +0.000 C 
ATOM     27  C   UNL     1       4.273  16.866  20.258  0.00  0.00    +0.000 C 
ATOM     28  C   UNL     1       4.764  16.614  18.819  0.00  0.00    +0.000 C 
ATOM     29  C   UNL     1       3.642  15.875  18.074  0.00  0.00    +0.000 C 
ATOM     30  C   UNL     1       3.204  14.609  18.792  0.00  0.00    +0.000 C 
BRANCH  28  31
ATOM     31  C   UNL     1       6.138  15.960  18.658  0.00  0.00    +0.000 A 
ATOM     32  C   UNL     1       6.362  14.845  17.836  0.00  0.00    +0.000 A 
ATOM     33  C   UNL     1       7.623  14.243  17.752  0.00  0.00    +0.000 A 
ATOM     34  C   UNL     1       8.688  14.733  18.511  0.00  0.00    +0.000 A 
ATOM     35  C   UNL     1       8.486  15.828  19.347  0.00  0.00    +0.000 A 
ATOM     36  C   UNL     1       7.224  16.429  19.423  0.00  0.00    +0.000 A 
BRANCH  34  37
ATOM     37  C   UNL     1       9.976  14.102  18.437  0.00  0.00    +0.000 C 
ATOM     38  N   UNL     1      11.010  13.588  18.383  0.00  0.00    +0.000 NA
ENDBRANCH  34  37
ENDBRANCH  28  31
ENDBRANCH   8  23
TORSDOF 5
ENDMDL
MODEL 4
REMARK VINA RESULT:      -8.1      1.294      1.791
REMARK  Name = 
REMARK  7 active torsions:
REMARK  status: ('A' for Active; 'I' for Inactive)
REMARK    1  A    between atoms: C_1  and  C_2
REMARK    2  A    between atoms: C_4  and  C_5
REMARK    3  A    between atoms: C_6  and  C_7
REMARK    4  A    between atoms: C_11  and  N_12
REMARK    5  A    between atoms: C_21  and  C_22
REMARK    6  A    between atoms: C_27  and  C_28
REMARK    7  A    between atoms: C_31  and  C_32
REMARK                            x       y       z     vdW  Elec       q    Type
REMARK                         _______ _______ _______ _____ _____    ______ ____
ROOT
ATOM      1  C   UNL     1       0.248  16.118  18.981  0.00  0.00    +0.000 C 
ATOM      2  C   UNL     1       0.539  14.648  19.115  0.00  0.00    +0.000 A 
ATOM      3  C   UNL     1      -0.399  13.749  18.571  0.00  0.00    +0.000 A 
ATOM      4  C   UNL     1      -0.231  12.356  18.652  0.00  0.00    +0.000 A 
ATOM      5  C   UNL     1      -1.276  11.470  18.025  0.00  0.00    +0.000 C 
ATOM      6  C   UNL     1       0.885  11.838  19.331  0.00  0.00    +0.000 A 
ATOM      7  C   UNL     1       1.751  12.739  19.966  0.00  0.00    +0.000 A 
ATOM      8  C   UNL     1       1.654  14.129  19.797  0.00  0.00    +0.000 A 
ENDROOT
BRANCH   6   9
ATOM      9  C   UNL     1       1.208  10.403  19.338  0.00  0.00    +0.000 A 
ATOM     10  N   UNL     1       1.754   9.732  18.342  0.00  0.00    +0.000 NA
ATOM     11  C   UNL     1       1.917   8.447  18.782  0.00  0.00    +0.000 A 
ATOM     12  C   UNL     1       2.427   7.343  18.114  0.00  0.00    +0.000 A 
ATOM     13  C   UNL     1       2.473   6.142  18.816  0.00  0.00    +0.000 A 
ATOM     14  N   UNL     1       2.062   6.037  20.106  0.00  0.00    +0.000 NA
ATOM     15  C   UNL     1       1.563   7.113  20.763  0.00  0.00    +0.000 A 
ATOM     16  C   UNL     1       1.490   8.316  20.089  0.00  0.00    +0.000 A 
ATOM     17  N   UNL     1       1.042   9.565  20.425  0.00  0.00    +0.000 N 
ATOM     18  H   UNL     1       0.645   9.827  21.312  0.00  0.00    +0.000 HD
BRANCH  13  19
ATOM     19  N   UNL     1       3.012   5.020  18.180  0.00  0.00    +0.000 N 
ATOM     20  C   UNL     1       4.285   4.400  18.304  0.00  0.00    +0.000 C 
ATOM     21  C   UNL     1       3.797   3.429  17.214  0.00  0.00    +0.000 C 
ATOM     22  C   UNL     1       2.388   3.864  17.632  0.00  0.00    +0.000 C 
ENDBRANCH  13  19
ENDBRANCH   6   9
BRANCH   8  23
ATOM     23  C   UNL     1       2.706  15.005  20.417  0.00  0.00    +0.000 C 
ATOM     24  O   UNL     1       2.425  15.554  21.482  0.00  0.00    +0.000 OA
ATOM     25  N   UNL     1       3.973  15.167  19.812  0.00  0.00    +0.000 N 
ATOM     26  C   UNL     1       5.031  15.771  20.623  0.00  0.00    +0.000 C 
ATOM     27  C   UNL     1       5.938  16.696  19.807  0.00  0.00    +0.000 C 
ATOM     28  C   UNL     1       6.503  16.031  18.537  0.00  0.00    +0.000 C 
ATOM     29  C   UNL     1       5.309  15.495  17.730  0.00  0.00    +0.000 C 
ATOM     30  C   UNL     1       4.421  14.574  18.550  0.00  0.00    +0.000 C 
BRANCH  28  31
ATOM     31  C   UNL     1       7.620  15.003  18.728  0.00  0.00    +0.000 A 
ATOM     32  C   UNL     1       8.529  15.053  19.796  0.00  0.00    +0.000 A 
ATOM     33  C   UNL     1       9.570  14.124  19.912  0.00  0.00    +0.000 A 
ATOM     34  C   UNL     1       9.738  13.132  18.943  0.00  0.00    +0.000 A 
ATOM     35  C   UNL     1       8.859  13.073  17.865  0.00  0.00    +0.000 A 
ATOM     36  C   UNL     1       7.816  14.002  17.757  0.00  0.00    +0.000 A 
BRANCH  34  37
ATOM     37  C   UNL     1      10.817  12.192  19.053  0.00  0.00    +0.000 C 
ATOM     38  N   UNL     1      11.683  11.433  19.148  0.00  0.00    +0.000 NA
ENDBRANCH  34  37
ENDBRANCH  28  31
ENDBRANCH   8  23
TORSDOF 5
ENDMDL
MODEL 5
REMARK VINA RESULT:      -7.6      1.789      2.578
REMARK  Name = 
REMARK  7 active torsions:
REMARK  status: ('A' for Active; 'I' for Inactive)
REMARK    1  A    between atoms: C_1  and  C_2
REMARK    2  A    between atoms: C_4  and  C_5
REMARK    3  A    between atoms: C_6  and  C_7
REMARK    4  A    between atoms: C_11  and  N_12
REMARK    5  A    between atoms: C_21  and  C_22
REMARK    6  A    between atoms: C_27  and  C_28
REMARK    7  A    between atoms: C_31  and  C_32
REMARK                            x       y       z     vdW  Elec       q    Type
REMARK                         _______ _______ _______ _____ _____    ______ ____
ROOT
ATOM      1  C   UNL     1      -0.058  15.838  20.201  0.00  0.00    +0.000 C 
ATOM      2  C   UNL     1       0.280  14.372  20.191  0.00  0.00    +0.000 A 
ATOM      3  C   UNL     1      -0.684  13.487  19.671  0.00  0.00    +0.000 A 
ATOM      4  C   UNL     1      -0.475  12.098  19.627  0.00  0.00    +0.000 A 
ATOM      5  C   UNL     1      -1.554  11.228  19.035  0.00  0.00    +0.000 C 
ATOM      6  C   UNL     1       0.715  11.566  20.154  0.00  0.00    +0.000 A 
ATOM      7  C   UNL     1       1.615  12.444  20.773  0.00  0.00    +0.000 A 
ATOM      8  C   UNL     1       1.469  13.839  20.722  0.00  0.00    +0.000 A 
ENDROOT
BRANCH   6   9
ATOM      9  C   UNL     1       1.071  10.146  20.020  0.00  0.00    +0.000 A 
ATOM     10  N   UNL     1       0.802   9.198  20.898  0.00  0.00    +0.000 NA
ATOM     11  C   UNL     1       1.270   8.029  20.363  0.00  0.00    +0.000 A 
ATOM     12  C   UNL     1       1.255   6.747  20.894  0.00  0.00    +0.000 A 
ATOM     13  C   UNL     1       1.812   5.733  20.120  0.00  0.00    +0.000 A 
ATOM     14  N   UNL     1       2.333   5.961  18.887  0.00  0.00    +0.000 NA
ATOM     15  C   UNL     1       2.350   7.212  18.364  0.00  0.00    +0.000 A 
ATOM     16  C   UNL     1       1.819   8.243  19.114  0.00  0.00    +0.000 A 
ATOM     17  N   UNL     1       1.685   9.590  18.913  0.00  0.00    +0.000 N 
ATOM     18  H   UNL     1       1.996  10.096  18.100  0.00  0.00    +0.000 HD
BRANCH  13  19
ATOM     19  N   UNL     1       1.781   4.426  20.615  0.00  0.00    +0.000 N 
ATOM     20  C   UNL     1       1.514   3.189  19.967  0.00  0.00    +0.000 C 
ATOM     21  C   UNL     1       1.688   2.549  21.355  0.00  0.00    +0.000 C 
ATOM     22  C   UNL     1       2.464   3.823  21.710  0.00  0.00    +0.000 C 
ENDBRANCH  13  19
ENDBRANCH   6   9
BRANCH   8  23
ATOM     23  C   UNL     1       2.555  14.699  21.305  0.00  0.00    +0.000 C 
ATOM     24  O   UNL     1       2.475  14.970  22.503  0.00  0.00    +0.000 OA
ATOM     25  N   UNL     1       3.634  15.152  20.513  0.00  0.00    +0.000 N 
ATOM     26  C   UNL     1       4.792  15.709  21.214  0.00  0.00    +0.000 C 
ATOM     27  C   UNL     1       5.409  16.897  20.471  0.00  0.00    +0.000 C 
ATOM     28  C   UNL     1       5.728  16.593  18.994  0.00  0.00    +0.000 C 
ATOM     29  C   UNL     1       4.434  16.083  18.341  0.00  0.00    +0.000 C 
ATOM     30  C   UNL     1       3.835  14.900  19.084  0.00  0.00    +0.000 C 
BRANCH  28  31
ATOM     31  C   UNL     1       6.944  15.708  18.713  0.00  0.00    +0.000 A 
ATOM     32  C   UNL     1       8.244  16.042  19.121  0.00  0.00    +0.000 A 
ATOM     33  C   UNL     1       9.340  15.231  18.803  0.00  0.00    +0.000 A 
ATOM     34  C   UNL     1       9.160  14.072  18.046  0.00  0.00    +0.000 A 
ATOM     35  C   UNL     1       7.881  13.727  17.615  0.00  0.00    +0.000 A 
ATOM     36  C   UNL     1       6.788  14.540  17.940  0.00  0.00    +0.000 A 
BRANCH  34  37
ATOM     37  C   UNL     1      10.287  13.251  17.704  0.00  0.00    +0.000 C 
ATOM     38  N   UNL     1      11.194  12.592  17.423  0.00  0.00    +0.000 NA
ENDBRANCH  34  37
ENDBRANCH  28  31
ENDBRANCH   8  23
TORSDOF 5
ENDMDL
MODEL 6
REMARK VINA RESULT:      -7.4      1.102      1.374
REMARK  Name = 
REMARK  7 active torsions:
REMARK  status: ('A' for Active; 'I' for Inactive)
REMARK    1  A    between atoms: C_1  and  C_2
REMARK    2  A    between atoms: C_4  and  C_5
REMARK    3  A    between atoms: C_6  and  C_7
REMARK    4  A    between atoms: C_11  and  N_12
REMARK    5  A    between atoms: C_21  and  C_22
REMARK    6  A    between atoms: C_27  and  C_28
REMARK    7  A    between atoms: C_31  and  C_32
REMARK                            x       y       z     vdW  Elec       q    Type
REMARK                         _______ _______ _______ _____ _____    ______ ____
ROOT
ATOM      1  C   UNL     1      -1.634  14.270  19.810  0.00  0.00    +0.000 C 
ATOM      2  C   UNL     1      -0.835  13.004  19.659  0.00  0.00    +0.000 A 
ATOM      3  C   UNL     1      -1.347  12.013  18.799  0.00  0.00    +0.000 A 
ATOM      4  C   UNL     1      -0.687  10.788  18.596  0.00  0.00    +0.000 A 
ATOM      5  C   UNL     1      -1.298   9.794  17.643  0.00  0.00    +0.000 C 
ATOM      6  C   UNL     1       0.499  10.523  19.302  0.00  0.00    +0.000 A 
ATOM      7  C   UNL     1       0.937  11.468  20.240  0.00  0.00    +0.000 A 
ATOM      8  C   UNL     1       0.351  12.736  20.368  0.00  0.00    +0.000 A 
ENDROOT
BRANCH   6   9
ATOM      9  C   UNL     1       1.321   9.332  19.041  0.00  0.00    +0.000 A 
ATOM     10  N   UNL     1       2.053   9.123  17.963  0.00  0.00    +0.000 NA
ATOM     11  C   UNL     1       2.682   7.921  18.147  0.00  0.00    +0.000 A 
ATOM     12  C   UNL     1       3.544   7.237  17.302  0.00  0.00    +0.000 A 
ATOM     13  C   UNL     1       4.038   6.017  17.752  0.00  0.00    +0.000 A 
ATOM     14  N   UNL     1       3.722   5.508  18.971  0.00  0.00    +0.000 NA
ATOM     15  C   UNL     1       2.880   6.174  19.801  0.00  0.00    +0.000 A 
ATOM     16  C   UNL     1       2.360   7.380  19.376  0.00  0.00    +0.000 A 
ATOM     17  N   UNL     1       1.496   8.287  19.929  0.00  0.00    +0.000 N 
ATOM     18  H   UNL     1       1.050   8.200  20.827  0.00  0.00    +0.000 HD
BRANCH  13  19
ATOM     19  N   UNL     1       4.935   5.321  16.937  0.00  0.00    +0.000 N 
ATOM     20  C   UNL     1       4.782   4.118  16.196  0.00  0.00    +0.000 C 
ATOM     21  C   UNL     1       6.258   4.299  15.803  0.00  0.00    +0.000 C 
ATOM     22  C   UNL     1       6.047   5.773  16.169  0.00  0.00    +0.000 C 
ENDBRANCH  13  19
ENDBRANCH   6   9
BRANCH   8  23
ATOM     23  C   UNL     1       0.972  13.726  21.313  0.00  0.00    +0.000 C 
ATOM     24  O   UNL     1       0.615  13.680  22.490  0.00  0.00    +0.000 OA
ATOM     25  N   UNL     1       1.946  14.649  20.870  0.00  0.00    +0.000 N 
ATOM     26  C   UNL     1       2.718  15.352  21.894  0.00  0.00    +0.000 C 
ATOM     27  C   UNL     1       3.006  16.807  21.514  0.00  0.00    +0.000 C 
ATOM     28  C   UNL     1       3.641  16.958  20.118  0.00  0.00    +0.000 C 
ATOM     29  C   UNL     1       2.718  16.246  19.115  0.00  0.00    +0.000 C 
ATOM     30  C   UNL     1       2.446  14.802  19.501  0.00  0.00    +0.000 C 
BRANCH  28  31
ATOM     31  C   UNL     1       5.113  16.566  19.977  0.00  0.00    +0.000 A 
ATOM     32  C   UNL     1       5.914  16.976  18.900  0.00  0.00    +0.000 A 
ATOM     33  C   UNL     1       7.244  16.557  18.780  0.00  0.00    +0.000 A 
ATOM     34  C   UNL     1       7.799  15.694  19.728  0.00  0.00    +0.000 A 
ATOM     35  C   UNL     1       7.018  15.259  20.796  0.00  0.00    +0.000 A 
ATOM     36  C   UNL     1       5.690  15.686  20.914  0.00  0.00    +0.000 A 
BRANCH  34  37
ATOM     37  C   UNL     1       9.157  15.250  19.592  0.00  0.00    +0.000 C 
ATOM     38  N   UNL     1      10.250  14.890  19.488  0.00  0.00    +0.000 NA
ENDBRANCH  34  37
ENDBRANCH  28  31
ENDBRANCH   8  23
TORSDOF 5
ENDMDL
MODEL 7
REMARK VINA RESULT:      -7.4      1.827      2.554
REMARK  Name = 
REMARK  7 active torsions:
REMARK  status: ('A' for Active; 'I' for Inactive)
REMARK    1  A    between atoms: C_1  and  C_2
REMARK    2  A    between atoms: C_4  and  C_5
REMARK    3  A    between atoms: C_6  and  C_7
REMARK    4  A    between atoms: C_11  and  N_12
REMARK    5  A    between atoms: C_21  and  C_22
REMARK    6  A    between atoms: C_27  and  C_28
REMARK    7  A    between atoms: C_31  and  C_32
REMARK                            x       y       z     vdW  Elec       q    Type
REMARK                         _______ _______ _______ _____ _____    ______ ____
ROOT
ATOM      1  C   UNL     1       0.408  16.443  19.267  0.00  0.00    +0.000 C 
ATOM      2  C   UNL     1       0.692  14.967  19.334  0.00  0.00    +0.000 A 
ATOM      3  C   UNL     1      -0.203  14.103  18.673  0.00  0.00    +0.000 A 
ATOM      4  C   UNL     1      -0.038  12.707  18.684  0.00  0.00    +0.000 A 
ATOM      5  C   UNL     1      -1.033  11.861  17.933  0.00  0.00    +0.000 C 
ATOM      6  C   UNL     1       1.029  12.148  19.409  0.00  0.00    +0.000 A 
ATOM      7  C   UNL     1       1.844  13.009  20.156  0.00  0.00    +0.000 A 
ATOM      8  C   UNL     1       1.757  14.406  20.063  0.00  0.00    +0.000 A 
ENDROOT
BRANCH   6   9
ATOM      9  C   UNL     1       1.353  10.715  19.355  0.00  0.00    +0.000 A 
ATOM     10  N   UNL     1       1.111   9.835  20.309  0.00  0.00    +0.000 NA
ATOM     11  C   UNL     1       1.532   8.622  19.833  0.00  0.00    +0.000 A 
ATOM     12  C   UNL     1       1.521   7.380  20.451  0.00  0.00    +0.000 A 
ATOM     13  C   UNL     1       2.020   6.304  19.723  0.00  0.00    +0.000 A 
ATOM     14  N   UNL     1       2.484   6.437  18.453  0.00  0.00    +0.000 NA
ATOM     15  C   UNL     1       2.496   7.650  17.846  0.00  0.00    +0.000 A 
ATOM     16  C   UNL     1       2.021   8.740  18.548  0.00  0.00    +0.000 A 
ATOM     17  N   UNL     1       1.902  10.073  18.261  0.00  0.00    +0.000 N 
ATOM     18  H   UNL     1       2.181  10.516  17.401  0.00  0.00    +0.000 HD
BRANCH  13  19
ATOM     19  N   UNL     1       1.991   5.035  20.307  0.00  0.00    +0.000 N 
ATOM     20  C   UNL     1       0.938   4.088  20.429  0.00  0.00    +0.000 C 
ATOM     21  C   UNL     1       1.950   3.224  21.201  0.00  0.00    +0.000 C 
ATOM     22  C   UNL     1       3.020   4.069  20.500  0.00  0.00    +0.000 C 
ENDBRANCH  13  19
ENDBRANCH   6   9
BRANCH   8  23
ATOM     23  C   UNL     1       2.760  15.242  20.806  0.00  0.00    +0.000 C 
ATOM     24  O   UNL     1       2.412  15.706  21.892  0.00  0.00    +0.000 OA
ATOM     25  N   UNL     1       4.057  15.462  20.290  0.00  0.00    +0.000 N 
ATOM     26  C   UNL     1       5.059  16.012  21.203  0.00  0.00    +0.000 C 
ATOM     27  C   UNL     1       5.997  17.004  20.513  0.00  0.00    +0.000 C 
ATOM     28  C   UNL     1       6.643  16.443  19.231  0.00  0.00    +0.000 C 
ATOM     29  C   UNL     1       5.504  15.960  18.319  0.00  0.00    +0.000 C 
ATOM     30  C   UNL     1       4.583  14.970  19.014  0.00  0.00    +0.000 C 
BRANCH  28  31
ATOM     31  C   UNL     1       7.761  15.415  19.408  0.00  0.00    +0.000 A 
ATOM     32  C   UNL     1       8.077  14.453  18.436  0.00  0.00    +0.000 A 
ATOM     33  C   UNL     1       9.075  13.497  18.654  0.00  0.00    +0.000 A 
ATOM     34  C   UNL     1       9.768  13.466  19.866  0.00  0.00    +0.000 A 
ATOM     35  C   UNL     1       9.461  14.399  20.853  0.00  0.00    +0.000 A 
ATOM     36  C   UNL     1       8.465  15.358  20.627  0.00  0.00    +0.000 A 
BRANCH  34  37
ATOM     37  C   UNL     1      10.778  12.472  20.095  0.00  0.00    +0.000 C 
ATOM     38  N   UNL     1      11.596  11.676  20.276  0.00  0.00    +0.000 NA
ENDBRANCH  34  37
ENDBRANCH  28  31
ENDBRANCH   8  23
TORSDOF 5
ENDMDL
MODEL 8
REMARK VINA RESULT:      -7.3      1.932      8.602
REMARK  Name = 
REMARK  7 active torsions:
REMARK  status: ('A' for Active; 'I' for Inactive)
REMARK    1  A    between atoms: C_1  and  C_2
REMARK    2  A    between atoms: C_4  and  C_5
REMARK    3  A    between atoms: C_6  and  C_7
REMARK    4  A    between atoms: C_11  and  N_12
REMARK    5  A    between atoms: C_21  and  C_22
REMARK    6  A    between atoms: C_27  and  C_28
REMARK    7  A    between atoms: C_31  and  C_32
REMARK                            x       y       z     vdW  Elec       q    Type
REMARK                         _______ _______ _______ _____ _____    ______ ____
ROOT
ATOM      1  C   UNL     1      -0.220  15.436  22.212  0.00  0.00    +0.000 C 
ATOM      2  C   UNL     1       1.139  15.583  21.583  0.00  0.00    +0.000 A 
ATOM      3  C   UNL     1       2.083  16.381  22.257  0.00  0.00    +0.000 A 
ATOM      4  C   UNL     1       3.377  16.595  21.751  0.00  0.00    +0.000 A 
ATOM      5  C   UNL     1       4.328  17.447  22.550  0.00  0.00    +0.000 C 
ATOM      6  C   UNL     1       3.731  16.031  20.513  0.00  0.00    +0.000 A 
ATOM      7  C   UNL     1       2.747  15.336  19.796  0.00  0.00    +0.000 A 
ATOM      8  C   UNL     1       1.493  15.022  20.341  0.00  0.00    +0.000 A 
ENDROOT
BRANCH   6   9
ATOM      9  C   UNL     1       5.101  16.089  19.983  0.00  0.00    +0.000 A 
ATOM     10  N   UNL     1       5.926  15.064  19.869  0.00  0.00    +0.000 NA
ATOM     11  C   UNL     1       7.070  15.549  19.297  0.00  0.00    +0.000 A 
ATOM     12  C   UNL     1       8.250  14.888  18.983  0.00  0.00    +0.000 A 
ATOM     13  C   UNL     1       9.265  15.642  18.404  0.00  0.00    +0.000 A 
ATOM     14  N   UNL     1       9.124  16.964  18.128  0.00  0.00    +0.000 NA
ATOM     15  C   UNL     1       7.974  17.614  18.432  0.00  0.00    +0.000 A 
ATOM     16  C   UNL     1       6.952  16.897  19.023  0.00  0.00    +0.000 A 
ATOM     17  N   UNL     1       5.698  17.223  19.465  0.00  0.00    +0.000 N 
ATOM     18  H   UNL     1       5.284  18.140  19.433  0.00  0.00    +0.000 HD
BRANCH  13  19
ATOM     19  N   UNL     1      10.452  14.995  18.046  0.00  0.00    +0.000 N 
ATOM     20  C   UNL     1      10.892  13.662  18.270  0.00  0.00    +0.000 C 
ATOM     21  C   UNL     1      12.193  14.089  17.568  0.00  0.00    +0.000 C 
ATOM     22  C   UNL     1      11.351  15.220  16.965  0.00  0.00    +0.000 C 
ENDBRANCH  13  19
ENDBRANCH   6   9
BRANCH   8  23
ATOM     23  C   UNL     1       0.554  14.163  19.543  0.00  0.00    +0.000 C 
ATOM     24  O   UNL     1      -0.138  14.725  18.693  0.00  0.00    +0.000 OA
ATOM     25  N   UNL     1       0.492  12.765  19.742  0.00  0.00    +0.000 N 
ATOM     26  C   UNL     1      -0.203  11.973  18.727  0.00  0.00    +0.000 C 
ATOM     27  C   UNL     1      -0.997  10.813  19.332  0.00  0.00    +0.000 C 
ATOM     28  C   UNL     1      -0.158   9.925  20.272  0.00  0.00    +0.000 C 
ATOM     29  C   UNL     1       0.466  10.844  21.334  0.00  0.00    +0.000 C 
ATOM     30  C   UNL     1       1.257  11.988  20.720  0.00  0.00    +0.000 C 
BRANCH  28  31
ATOM     31  C   UNL     1       0.847   8.976  19.618  0.00  0.00    +0.000 A 
ATOM     32  C   UNL     1       1.487   7.940  20.316  0.00  0.00    +0.000 A 
ATOM     33  C   UNL     1       2.439   7.122  19.696  0.00  0.00    +0.000 A 
ATOM     34  C   UNL     1       2.790   7.338  18.362  0.00  0.00    +0.000 A 
ATOM     35  C   UNL     1       2.182   8.371  17.653  0.00  0.00    +0.000 A 
ATOM     36  C   UNL     1       1.227   9.183  18.277  0.00  0.00    +0.000 A 
BRANCH  34  37
ATOM     37  C   UNL     1       3.781   6.511  17.734  0.00  0.00    +0.000 C 
ATOM     38  N   UNL     1       4.577   5.847  17.223  0.00  0.00    +0.000 NA
ENDBRANCH  34  37
ENDBRANCH  28  31
ENDBRANCH   8  23
TORSDOF 5
ENDMDL
MODEL 9
REMARK VINA RESULT:      -7.2      1.729      2.291
REMARK  Name = 
REMARK  7 active torsions:
REMARK  status: ('A' for Active; 'I' for Inactive)
REMARK    1  A    between atoms: C_1  and  C_2
REMARK    2  A    between atoms: C_4  and  C_5
REMARK    3  A    between atoms: C_6  and  C_7
REMARK    4  A    between atoms: C_11  and  N_12
REMARK    5  A    between atoms: C_21  and  C_22
REMARK    6  A    between atoms: C_27  and  C_28
REMARK    7  A    between atoms: C_31  and  C_32
REMARK                            x       y       z     vdW  Elec       q    Type
REMARK                         _______ _______ _______ _____ _____    ______ ____
ROOT
ATOM      1  C   UNL     1      -0.714  15.899  20.958  0.00  0.00    +0.000 C 
ATOM      2  C   UNL     1      -0.229  14.486  20.777  0.00  0.00    +0.000 A 
ATOM      3  C   UNL     1      -1.156  13.537  20.305  0.00  0.00    +0.000 A 
ATOM      4  C   UNL     1      -0.811  12.188  20.114  0.00  0.00    +0.000 A 
ATOM      5  C   UNL     1      -1.862  11.247  19.586  0.00  0.00    +0.000 C 
ATOM      6  C   UNL     1       0.487  11.759  20.440  0.00  0.00    +0.000 A 
ATOM      7  C   UNL     1       1.366  12.687  21.017  0.00  0.00    +0.000 A 
ATOM      8  C   UNL     1       1.069  14.055  21.108  0.00  0.00    +0.000 A 
ENDROOT
BRANCH   6   9
ATOM      9  C   UNL     1       0.969  10.403  20.138  0.00  0.00    +0.000 A 
ATOM     10  N   UNL     1       0.973   9.383  20.976  0.00  0.00    +0.000 NA
ATOM     11  C   UNL     1       1.462   8.311  20.280  0.00  0.00    +0.000 A 
ATOM     12  C   UNL     1       1.688   7.010  20.707  0.00  0.00    +0.000 A 
ATOM     13  C   UNL     1       2.202   6.116  19.773  0.00  0.00    +0.000 A 
ATOM     14  N   UNL     1       2.460   6.473  18.488  0.00  0.00    +0.000 NA
ATOM     15  C   UNL     1       2.240   7.743  18.067  0.00  0.00    +0.000 A 
ATOM     16  C   UNL     1       1.745   8.659  18.974  0.00  0.00    +0.000 A 
ATOM     17  N   UNL     1       1.427   9.988  18.902  0.00  0.00    +0.000 N 
ATOM     18  H   UNL     1       1.525  10.572  18.087  0.00  0.00    +0.000 HD
BRANCH  13  19
ATOM     19  N   UNL     1       2.408   4.790  20.165  0.00  0.00    +0.000 N 
ATOM     20  C   UNL     1       1.539   3.857  20.793  0.00  0.00    +0.000 C 
ATOM     21  C   UNL     1       2.738   2.892  20.774  0.00  0.00    +0.000 C 
ATOM     22  C   UNL     1       3.283   3.788  19.656  0.00  0.00    +0.000 C 
ENDBRANCH  13  19
ENDBRANCH   6   9
BRANCH   8  23
ATOM     23  C   UNL     1       2.127  14.989  21.625  0.00  0.00    +0.000 C 
ATOM     24  O   UNL     1       2.109  15.249  22.828  0.00  0.00    +0.000 OA
ATOM     25  N   UNL     1       3.116  15.522  20.767  0.00  0.00    +0.000 N 
ATOM     26  C   UNL     1       4.275  16.158  21.394  0.00  0.00    +0.000 C 
ATOM     27  C   UNL     1       4.754  17.391  20.623  0.00  0.00    +0.000 C 
ATOM     28  C   UNL     1       4.994  17.118  19.125  0.00  0.00    +0.000 C 
ATOM     29  C   UNL     1       3.698  16.518  18.555  0.00  0.00    +0.000 C 
ATOM     30  C   UNL     1       3.238  15.292  19.326  0.00  0.00    +0.000 C 
BRANCH  28  31
ATOM     31  C   UNL     1       6.248  16.323  18.756  0.00  0.00    +0.000 A 
ATOM     32  C   UNL     1       6.203  15.094  18.080  0.00  0.00    +0.000 A 
ATOM     33  C   UNL     1       7.370  14.371  17.803  0.00  0.00    +0.000 A 
ATOM     34  C   UNL     1       8.612  14.856  18.217  0.00  0.00    +0.000 A 
ATOM     35  C   UNL     1       8.681  16.065  18.904  0.00  0.00    +0.000 A 
ATOM     36  C   UNL     1       7.511  16.786  19.174  0.00  0.00    +0.000 A 
BRANCH  34  37
ATOM     37  C   UNL     1       9.805  14.104  17.948  0.00  0.00    +0.000 C 
ATOM     38  N   UNL     1      10.764  13.498  17.725  0.00  0.00    +0.000 NA
ENDBRANCH  34  37
ENDBRANCH  28  31
ENDBRANCH   8  23
TORSDOF 5
ENDMDL
