MODEL 1
REMARK VINA RESULT:      -8.2      0.000      0.000
REMARK  Name = 
REMARK  7 active torsions:
REMARK  status: ('A' for Active; 'I' for Inactive)
REMARK    1  A    between atoms: C_1  and  C_2
REMARK    2  A    between atoms: C_4  and  O_5
REMARK    3  A    between atoms: O_5  and  C_6
REMARK    4  A    between atoms: C_13  and  S_14
REMARK    5  A    between atoms: S_14  and  C_15
REMARK    6  A    between atoms: C_19  and  C_20
REMARK    7  A    between atoms: C_20  and  N_22
REMARK                            x       y       z     vdW  Elec       q    Type
REMARK                         _______ _______ _______ _____ _____    ______ ____
ROOT
ATOM      1  C   UNL     1       1.491   4.221  17.618  0.00  0.00    +0.000 C 
ATOM      2  C   UNL     1       2.928   4.597  17.862  0.00  0.00    +0.000 A 
ATOM      3  C   UNL     1       3.902   4.064  16.998  0.00  0.00    +0.000 A 
ATOM      4  C   UNL     1       5.284   4.190  17.240  0.00  0.00    +0.000 A 
ATOM      5  C   UNL     1       5.679   5.012  18.296  0.00  0.00    +0.000 A 
ATOM      6  C   UNL     1       4.708   5.616  19.131  0.00  0.00    +0.000 A 
ATOM      7  C   UNL     1       3.338   5.406  18.930  0.00  0.00    +0.000 A 
ENDROOT
BRANCH   5   8
ATOM      8  S   UNL     1       7.347   5.439  18.720  0.00  0.00    +0.000 S 
ATOM      9  C   UNL     1       7.789   7.014  18.070  0.00  0.00    +0.000 C 
ATOM     10  O   UNL     1       7.359   5.572  20.166  0.00  0.00    +0.000 OA
ATOM     11  O   UNL     1       8.189   4.454  18.065  0.00  0.00    +0.000 OA
ENDBRANCH   5   8
BRANCH   7  12
ATOM     12  C   UNL     1       2.348   6.078  19.834  0.00  0.00    +0.000 C 
ATOM     13  O   UNL     1       2.003   5.522  20.869  0.00  0.00    +0.000 OA
BRANCH  12  14
ATOM     14  N   UNL     1       1.913   7.322  19.418  0.00  0.00    +0.000 NA
ATOM     15  C   UNL     1       1.645   8.219  20.306  0.00  0.00    +0.000 C 
ATOM     16  N   UNL     1       1.664   8.135  21.656  0.00  0.00    +0.000 N 
ATOM     17  N   UNL     1       1.267   9.464  19.938  0.00  0.00    +0.000 N 
ATOM     18  H   UNL     1       2.097   7.262  21.969  0.00  0.00    +0.000 HD
ATOM     19  H   UNL     1       2.112   8.929  22.095  0.00  0.00    +0.000 HD
ATOM     20  H   UNL     1       0.997   9.504  18.962  0.00  0.00    +0.000 HD
ATOM     21  H   UNL     1       0.556   9.859  20.543  0.00  0.00    +0.000 HD
ENDBRANCH  12  14
ENDBRANCH   7  12
BRANCH   4  22
ATOM     22  O   UNL     1       6.204   3.527  16.447  0.00  0.00    +0.000 OA
BRANCH  22  23
ATOM     23  C   UNL     1       6.383   3.963  15.147  0.00  0.00    +0.000 A 
ATOM     24  C   UNL     1       7.259   4.994  14.801  0.00  0.00    +0.000 A 
ATOM     25  N   UNL     1       7.561   5.340  13.524  0.00  0.00    +0.000 NA
ATOM     26  C   UNL     1       6.916   4.661  12.549  0.00  0.00    +0.000 A 
ATOM     27  C   UNL     1       5.960   3.684  12.796  0.00  0.00    +0.000 A 
ATOM     28 CL   UNL     1       5.154   2.907  11.495  0.00  0.00    +0.000 Cl
ATOM     29  C   UNL     1       5.682   3.334  14.119  0.00  0.00    +0.000 A 
ENDBRANCH  22  23
ENDBRANCH   4  22
TORSDOF 5
ENDMDL
MODEL 2
REMARK VINA RESULT:      -8.2      3.423      7.430
REMARK  Name = 
REMARK  7 active torsions:
REMARK  status: ('A' for Active; 'I' for Inactive)
REMARK    1  A    between atoms: C_1  and  C_2
REMARK    2  A    between atoms: C_4  and  O_5
REMARK    3  A    between atoms: O_5  and  C_6
REMARK    4  A    between atoms: C_13  and  S_14
REMARK    5  A    between atoms: S_14  and  C_15
REMARK    6  A    between atoms: C_19  and  C_20
REMARK    7  A    between atoms: C_20  and  N_22
REMARK                            x       y       z     vdW  Elec       q    Type
REMARK                         _______ _______ _______ _____ _____    ______ ____
ROOT
ATOM      1  C   UNL     1       6.736   7.141  17.171  0.00  0.00    +0.000 C 
ATOM      2  C   UNL     1       5.590   6.178  17.335  0.00  0.00    +0.000 A 
ATOM      3  C   UNL     1       4.448   6.627  18.022  0.00  0.00    +0.000 A 
ATOM      4  C   UNL     1       3.400   5.766  18.400  0.00  0.00    +0.000 A 
ATOM      5  C   UNL     1       3.445   4.453  17.928  0.00  0.00    +0.000 A 
ATOM      6  C   UNL     1       4.555   4.005  17.171  0.00  0.00    +0.000 A 
ATOM      7  C   UNL     1       5.632   4.852  16.881  0.00  0.00    +0.000 A 
ENDROOT
BRANCH   5   8
ATOM      8  S   UNL     1       2.190   3.220  18.148  0.00  0.00    +0.000 S 
ATOM      9  C   UNL     1       1.872   2.926  19.853  0.00  0.00    +0.000 C 
ATOM     10  O   UNL     1       0.977   3.799  17.596  0.00  0.00    +0.000 OA
ATOM     11  O   UNL     1       2.736   1.993  17.596  0.00  0.00    +0.000 OA
ENDBRANCH   5   8
BRANCH   7  12
ATOM     12  C   UNL     1       6.779   4.335  16.067  0.00  0.00    +0.000 C 
ATOM     13  O   UNL     1       7.906   4.329  16.547  0.00  0.00    +0.000 OA
BRANCH  12  14
ATOM     14  N   UNL     1       6.451   3.871  14.807  0.00  0.00    +0.000 NA
ATOM     15  C   UNL     1       6.967   4.447  13.774  0.00  0.00    +0.000 C 
ATOM     16  N   UNL     1       7.778   5.528  13.701  0.00  0.00    +0.000 N 
ATOM     17  N   UNL     1       6.713   3.989  12.528  0.00  0.00    +0.000 N 
ATOM     18  H   UNL     1       8.119   5.802  14.625  0.00  0.00    +0.000 HD
ATOM     19  H   UNL     1       8.552   5.397  13.062  0.00  0.00    +0.000 HD
ATOM     20  H   UNL     1       5.925   3.352  12.513  0.00  0.00    +0.000 HD
ATOM     21  H   UNL     1       6.611   4.731  11.845  0.00  0.00    +0.000 HD
ENDBRANCH  12  14
ENDBRANCH   7  12
BRANCH   4  22
ATOM     22  O   UNL     1       2.366   6.218  19.200  0.00  0.00    +0.000 OA
BRANCH  22  23
ATOM     23  C   UNL     1       2.019   7.555  19.128  0.00  0.00    +0.000 A 
ATOM     24  C   UNL     1       2.028   8.283  17.937  0.00  0.00    +0.000 A 
ATOM     25  N   UNL     1       1.553   9.548  17.814  0.00  0.00    +0.000 NA
ATOM     26  C   UNL     1       1.098  10.132  18.946  0.00  0.00    +0.000 A 
ATOM     27  C   UNL     1       1.135   9.521  20.193  0.00  0.00    +0.000 A 
ATOM     28 CL   UNL     1       0.581  10.357  21.586  0.00  0.00    +0.000 Cl
ATOM     29  C   UNL     1       1.610   8.212  20.288  0.00  0.00    +0.000 A 
ENDBRANCH  22  23
ENDBRANCH   4  22
TORSDOF 5
ENDMDL
MODEL 3
REMARK VINA RESULT:      -7.9      2.632      3.859
REMARK  Name = 
REMARK  7 active torsions:
REMARK  status: ('A' for Active; 'I' for Inactive)
REMARK    1  A    between atoms: C_1  and  C_2
REMARK    2  A    between atoms: C_4  and  O_5
REMARK    3  A    between atoms: O_5  and  C_6
REMARK    4  A    between atoms: C_13  and  S_14
REMARK    5  A    between atoms: S_14  and  C_15
REMARK    6  A    between atoms: C_19  and  C_20
REMARK    7  A    between atoms: C_20  and  N_22
REMARK                            x       y       z     vdW  Elec       q    Type
REMARK                         _______ _______ _______ _____ _____    ______ ____
ROOT
ATOM      1  C   UNL     1       2.273   8.949  18.177  0.00  0.00    +0.000 C 
ATOM      2  C   UNL     1       2.351   7.595  18.831  0.00  0.00    +0.000 A 
ATOM      3  C   UNL     1       2.961   6.552  18.111  0.00  0.00    +0.000 A 
ATOM      4  C   UNL     1       2.923   5.210  18.536  0.00  0.00    +0.000 A 
ATOM      5  C   UNL     1       2.390   4.952  19.800  0.00  0.00    +0.000 A 
ATOM      6  C   UNL     1       1.838   6.004  20.570  0.00  0.00    +0.000 A 
ATOM      7  C   UNL     1       1.803   7.320  20.091  0.00  0.00    +0.000 A 
ENDROOT
BRANCH   5   8
ATOM      8  S   UNL     1       2.351   3.377  20.615  0.00  0.00    +0.000 S 
ATOM      9  C   UNL     1       3.874   2.517  20.420  0.00  0.00    +0.000 C 
ATOM     10  O   UNL     1       2.226   3.676  22.031  0.00  0.00    +0.000 OA
ATOM     11  O   UNL     1       1.330   2.601  19.934  0.00  0.00    +0.000 OA
ENDBRANCH   5   8
BRANCH   7  12
ATOM     12  C   UNL     1       1.218   8.402  20.949  0.00  0.00    +0.000 C 
ATOM     13  O   UNL     1       1.774   8.706  21.998  0.00  0.00    +0.000 OA
BRANCH  12  14
ATOM     14  N   UNL     1       0.076   9.000  20.454  0.00  0.00    +0.000 NA
ATOM     15  C   UNL     1       0.006  10.289  20.427  0.00  0.00    +0.000 C 
ATOM     16  N   UNL     1       0.886  11.213  20.876  0.00  0.00    +0.000 N 
ATOM     17  N   UNL     1      -1.072  10.912  19.901  0.00  0.00    +0.000 N 
ATOM     18  H   UNL     1       1.780  10.784  21.132  0.00  0.00    +0.000 HD
ATOM     19  H   UNL     1       1.033  11.970  20.220  0.00  0.00    +0.000 HD
ATOM     20  H   UNL     1      -1.855  10.279  19.785  0.00  0.00    +0.000 HD
ATOM     21  H   UNL     1      -1.335  11.748  20.411  0.00  0.00    +0.000 HD
ENDBRANCH  12  14
ENDBRANCH   7  12
BRANCH   4  22
ATOM     22  O   UNL     1       3.407   4.197  17.727  0.00  0.00    +0.000 OA
BRANCH  22  23
ATOM     23  C   UNL     1       4.678   4.332  17.200  0.00  0.00    +0.000 A 
ATOM     24  C   UNL     1       5.811   4.557  17.984  0.00  0.00    +0.000 A 
ATOM     25  N   UNL     1       7.081   4.546  17.508  0.00  0.00    +0.000 NA
ATOM     26  C   UNL     1       7.222   4.355  16.177  0.00  0.00    +0.000 A 
ATOM     27  C   UNL     1       6.152   4.215  15.303  0.00  0.00    +0.000 A 
ATOM     28 CL   UNL     1       6.423   4.026  13.619  0.00  0.00    +0.000 Cl
ATOM     29  C   UNL     1       4.855   4.211  15.822  0.00  0.00    +0.000 A 
ENDBRANCH  22  23
ENDBRANCH   4  22
TORSDOF 5
ENDMDL
MODEL 4
REMARK VINA RESULT:      -7.9      3.374      7.430
REMARK  Name = 
REMARK  7 active torsions:
REMARK  status: ('A' for Active; 'I' for Inactive)
REMARK    1  A    between atoms: C_1  and  C_2
REMARK    2  A    between atoms: C_4  and  O_5
REMARK    3  A    between atoms: O_5  and  C_6
REMARK    4  A    between atoms: C_13  and  S_14
REMARK    5  A    between atoms: S_14  and  C_15
REMARK    6  A    between atoms: C_19  and  C_20
REMARK    7  A    between atoms: C_20  and  N_22
REMARK                            x       y       z     vdW  Elec       q    Type
REMARK                         _______ _______ _______ _____ _____    ______ ____
ROOT
ATOM      1  C   UNL     1       6.253   7.197  17.099  0.00  0.00    +0.000 C 
ATOM      2  C   UNL     1       5.359   6.096  17.605  0.00  0.00    +0.000 A 
ATOM      3  C   UNL     1       4.255   6.460  18.397  0.00  0.00    +0.000 A 
ATOM      4  C   UNL     1       3.465   5.514  19.079  0.00  0.00    +0.000 A 
ATOM      5  C   UNL     1       3.710   4.165  18.819  0.00  0.00    +0.000 A 
ATOM      6  C   UNL     1       4.772   3.785  17.965  0.00  0.00    +0.000 A 
ATOM      7  C   UNL     1       5.606   4.738  17.365  0.00  0.00    +0.000 A 
ENDROOT
BRANCH   5   8
ATOM      8  S   UNL     1       2.772   2.794  19.442  0.00  0.00    +0.000 S 
ATOM      9  C   UNL     1       1.063   2.959  19.055  0.00  0.00    +0.000 C 
ATOM     10  O   UNL     1       3.249   1.633  18.711  0.00  0.00    +0.000 OA
ATOM     11  O   UNL     1       2.891   2.854  20.887  0.00  0.00    +0.000 OA
ENDBRANCH   5   8
BRANCH   7  12
ATOM     12  C   UNL     1       6.710   4.286  16.458  0.00  0.00    +0.000 C 
ATOM     13  O   UNL     1       7.871   4.342  16.847  0.00  0.00    +0.000 OA
BRANCH  12  14
ATOM     14  N   UNL     1       6.309   3.805  15.226  0.00  0.00    +0.000 NA
ATOM     15  C   UNL     1       6.776   4.358  14.158  0.00  0.00    +0.000 C 
ATOM     16  N   UNL     1       7.595   5.425  14.022  0.00  0.00    +0.000 N 
ATOM     17  N   UNL     1       6.449   3.883  12.935  0.00  0.00    +0.000 N 
ATOM     18  H   UNL     1       7.990   5.710  14.922  0.00  0.00    +0.000 HD
ATOM     19  H   UNL     1       8.333   5.273  13.346  0.00  0.00    +0.000 HD
ATOM     20  H   UNL     1       5.652   3.256  12.973  0.00  0.00    +0.000 HD
ATOM     21  H   UNL     1       6.320   4.615  12.245  0.00  0.00    +0.000 HD
ENDBRANCH  12  14
ENDBRANCH   7  12
BRANCH   4  22
ATOM     22  O   UNL     1       2.481   5.920  19.963  0.00  0.00    +0.000 OA
BRANCH  22  23
ATOM     23  C   UNL     1       2.031   7.226  19.888  0.00  0.00    +0.000 A 
ATOM     24  C   UNL     1       2.063   7.978  18.711  0.00  0.00    +0.000 A 
ATOM     25  N   UNL     1       1.496   9.203  18.575  0.00  0.00    +0.000 NA
ATOM     26  C   UNL     1       0.918   9.724  19.682  0.00  0.00    +0.000 A 
ATOM     27  C   UNL     1       0.918   9.092  20.918  0.00  0.00    +0.000 A 
ATOM     28 CL   UNL     1       0.203   9.850  22.282  0.00  0.00    +0.000 Cl
ATOM     29  C   UNL     1       1.492   7.823  21.027  0.00  0.00    +0.000 A 
ENDBRANCH  22  23
ENDBRANCH   4  22
TORSDOF 5
ENDMDL
MODEL 5
REMARK VINA RESULT:      -7.7      2.832      7.278
REMARK  Name = 
REMARK  7 active torsions:
REMARK  status: ('A' for Active; 'I' for Inactive)
REMARK    1  A    between atoms: C_1  and  C_2
REMARK    2  A    between atoms: C_4  and  O_5
REMARK    3  A    between atoms: O_5  and  C_6
REMARK    4  A    between atoms: C_13  and  S_14
REMARK    5  A    between atoms: S_14  and  C_15
REMARK    6  A    between atoms: C_19  and  C_20
REMARK    7  A    between atoms: C_20  and  N_22
REMARK                            x       y       z     vdW  Elec       q    Type
REMARK                         _______ _______ _______ _____ _____    ______ ____
ROOT
ATOM      1  C   UNL     1       7.076   6.548  18.110  0.00  0.00    +0.000 C 
ATOM      2  C   UNL     1       5.830   5.705  18.073  0.00  0.00    +0.000 A 
ATOM      3  C   UNL     1       4.791   6.030  18.964  0.00  0.00    +0.000 A 
ATOM      4  C   UNL     1       3.665   5.205  19.152  0.00  0.00    +0.000 A 
ATOM      5  C   UNL     1       3.521   4.110  18.298  0.00  0.00    +0.000 A 
ATOM      6  C   UNL     1       4.524   3.812  17.345  0.00  0.00    +0.000 A 
ATOM      7  C   UNL     1       5.682   4.592  17.233  0.00  0.00    +0.000 A 
ENDROOT
BRANCH   5   8
ATOM      8  S   UNL     1       2.135   3.005  18.242  0.00  0.00    +0.000 S 
ATOM      9  C   UNL     1       1.671   2.475  19.855  0.00  0.00    +0.000 C 
ATOM     10  O   UNL     1       1.028   3.798  17.735  0.00  0.00    +0.000 OA
ATOM     11  O   UNL     1       2.590   1.831  17.520  0.00  0.00    +0.000 OA
ENDBRANCH   5   8
BRANCH   7  12
ATOM     12  C   UNL     1       6.710   4.243  16.200  0.00  0.00    +0.000 C 
ATOM     13  O   UNL     1       7.898   4.410  16.450  0.00  0.00    +0.000 OA
BRANCH  12  14
ATOM     14  N   UNL     1       6.214   3.722  15.021  0.00  0.00    +0.000 NA
ATOM     15  C   UNL     1       6.606   4.227  13.900  0.00  0.00    +0.000 C 
ATOM     16  N   UNL     1       7.424   5.278  13.663  0.00  0.00    +0.000 N 
ATOM     17  N   UNL     1       6.185   3.711  12.724  0.00  0.00    +0.000 N 
ATOM     18  H   UNL     1       7.886   5.592  14.521  0.00  0.00    +0.000 HD
ATOM     19  H   UNL     1       8.108   5.092  12.941  0.00  0.00    +0.000 HD
ATOM     20  H   UNL     1       5.387   3.096  12.845  0.00  0.00    +0.000 HD
ATOM     21  H   UNL     1       6.013   4.418  12.018  0.00  0.00    +0.000 HD
ENDBRANCH  12  14
ENDBRANCH   7  12
BRANCH   4  22
ATOM     22  O   UNL     1       2.740   5.486  20.141  0.00  0.00    +0.000 OA
BRANCH  22  23
ATOM     23  C   UNL     1       2.094   6.708  20.106  0.00  0.00    +0.000 A 
ATOM     24  C   UNL     1       1.323   7.196  21.163  0.00  0.00    +0.000 A 
ATOM     25  N   UNL     1       0.803   8.449  21.212  0.00  0.00    +0.000 NA
ATOM     26  C   UNL     1       1.018   9.231  20.130  0.00  0.00    +0.000 A 
ATOM     27  C   UNL     1       1.692   8.803  18.994  0.00  0.00    +0.000 A 
ATOM     28 CL   UNL     1       1.876   9.849  17.646  0.00  0.00    +0.000 Cl
ATOM     29  C   UNL     1       2.234   7.516  18.977  0.00  0.00    +0.000 A 
ENDBRANCH  22  23
ENDBRANCH   4  22
TORSDOF 5
ENDMDL
MODEL 6
REMARK VINA RESULT:      -7.7      3.138      4.376
REMARK  Name = 
REMARK  7 active torsions:
REMARK  status: ('A' for Active; 'I' for Inactive)
REMARK    1  A    between atoms: C_1  and  C_2
REMARK    2  A    between atoms: C_4  and  O_5
REMARK    3  A    between atoms: O_5  and  C_6
REMARK    4  A    between atoms: C_13  and  S_14
REMARK    5  A    between atoms: S_14  and  C_15
REMARK    6  A    between atoms: C_19  and  C_20
REMARK    7  A    between atoms: C_20  and  N_22
REMARK                            x       y       z     vdW  Elec       q    Type
REMARK                         _______ _______ _______ _____ _____    ______ ____
ROOT
ATOM      1  C   UNL     1       2.225   9.068  18.262  0.00  0.00    +0.000 C 
ATOM      2  C   UNL     1       2.285   7.703  18.893  0.00  0.00    +0.000 A 
ATOM      3  C   UNL     1       2.886   6.666  18.158  0.00  0.00    +0.000 A 
ATOM      4  C   UNL     1       2.831   5.317  18.560  0.00  0.00    +0.000 A 
ATOM      5  C   UNL     1       2.290   5.044  19.818  0.00  0.00    +0.000 A 
ATOM      6  C   UNL     1       1.747   6.089  20.603  0.00  0.00    +0.000 A 
ATOM      7  C   UNL     1       1.729   7.413  20.147  0.00  0.00    +0.000 A 
ENDROOT
BRANCH   5   8
ATOM      8  S   UNL     1       2.231   3.456  20.606  0.00  0.00    +0.000 S 
ATOM      9  C   UNL     1       3.715   2.551  20.336  0.00  0.00    +0.000 C 
ATOM     10  O   UNL     1       2.171   3.733  22.031  0.00  0.00    +0.000 OA
ATOM     11  O   UNL     1       1.159   2.727  19.953  0.00  0.00    +0.000 OA
ENDBRANCH   5   8
BRANCH   7  12
ATOM     12  C   UNL     1       1.154   8.487  21.020  0.00  0.00    +0.000 C 
ATOM     13  O   UNL     1       1.717   8.778  22.069  0.00  0.00    +0.000 OA
BRANCH  12  14
ATOM     14  N   UNL     1       0.009   9.094  20.540  0.00  0.00    +0.000 NA
ATOM     15  C   UNL     1      -0.057  10.383  20.530  0.00  0.00    +0.000 C 
ATOM     16  N   UNL     1       0.827  11.299  20.985  0.00  0.00    +0.000 N 
ATOM     17  N   UNL     1      -1.137  11.015  20.018  0.00  0.00    +0.000 N 
ATOM     18  H   UNL     1       1.721  10.865  21.231  0.00  0.00    +0.000 HD
ATOM     19  H   UNL     1       0.972  12.065  20.339  0.00  0.00    +0.000 HD
ATOM     20  H   UNL     1      -1.923  10.385  19.899  0.00  0.00    +0.000 HD
ATOM     21  H   UNL     1      -1.396  11.845  20.541  0.00  0.00    +0.000 HD
ENDBRANCH  12  14
ENDBRANCH   7  12
BRANCH   4  22
ATOM     22  O   UNL     1       3.307   4.313  17.736  0.00  0.00    +0.000 OA
BRANCH  22  23
ATOM     23  C   UNL     1       4.645   4.332  17.386  0.00  0.00    +0.000 A 
ATOM     24  C   UNL     1       5.111   3.938  16.130  0.00  0.00    +0.000 A 
ATOM     25  N   UNL     1       6.394   4.086  15.714  0.00  0.00    +0.000 NA
ATOM     26  C   UNL     1       7.262   4.601  16.614  0.00  0.00    +0.000 A 
ATOM     27  C   UNL     1       6.912   4.934  17.916  0.00  0.00    +0.000 A 
ATOM     28 CL   UNL     1       8.092   5.536  19.007  0.00  0.00    +0.000 Cl
ATOM     29  C   UNL     1       5.580   4.791  18.313  0.00  0.00    +0.000 A 
ENDBRANCH  22  23
ENDBRANCH   4  22
TORSDOF 5
ENDMDL
MODEL 7
REMARK VINA RESULT:      -7.5      2.761      7.197
REMARK  Name = 
REMARK  7 active torsions:
REMARK  status: ('A' for Active; 'I' for Inactive)
REMARK    1  A    between atoms: C_1  and  C_2
REMARK    2  A    between atoms: C_4  and  O_5
REMARK    3  A    between atoms: O_5  and  C_6
REMARK    4  A    between atoms: C_13  and  S_14
REMARK    5  A    between atoms: S_14  and  C_15
REMARK    6  A    between atoms: C_19  and  C_20
REMARK    7  A    between atoms: C_20  and  N_22
REMARK                            x       y       z     vdW  Elec       q    Type
REMARK                         _______ _______ _______ _____ _____    ______ ____
ROOT
ATOM      1  C   UNL     1       6.320   7.093  17.333  0.00  0.00    +0.000 C 
ATOM      2  C   UNL     1       5.424   5.950  17.730  0.00  0.00    +0.000 A 
ATOM      3  C   UNL     1       4.348   6.229  18.592  0.00  0.00    +0.000 A 
ATOM      4  C   UNL     1       3.563   5.218  19.179  0.00  0.00    +0.000 A 
ATOM      5  C   UNL     1       3.780   3.906  18.752  0.00  0.00    +0.000 A 
ATOM      6  C   UNL     1       4.812   3.619  17.827  0.00  0.00    +0.000 A 
ATOM      7  C   UNL     1       5.643   4.627  17.322  0.00  0.00    +0.000 A 
ENDROOT
BRANCH   5   8
ATOM      8  S   UNL     1       2.839   2.482  19.233  0.00  0.00    +0.000 S 
ATOM      9  C   UNL     1       1.160   2.620  18.723  0.00  0.00    +0.000 C 
ATOM     10  O   UNL     1       3.406   1.372  18.488  0.00  0.00    +0.000 OA
ATOM     11  O   UNL     1       2.846   2.473  20.685  0.00  0.00    +0.000 OA
ENDBRANCH   5   8
BRANCH   7  12
ATOM     12  C   UNL     1       6.715   4.275  16.336  0.00  0.00    +0.000 C 
ATOM     13  O   UNL     1       7.892   4.380  16.660  0.00  0.00    +0.000 OA
BRANCH  12  14
ATOM     14  N   UNL     1       6.269   3.823  15.109  0.00  0.00    +0.000 NA
ATOM     15  C   UNL     1       6.740   4.361  14.035  0.00  0.00    +0.000 C 
ATOM     16  N   UNL     1       7.607   5.390  13.890  0.00  0.00    +0.000 N 
ATOM     17  N   UNL     1       6.369   3.911  12.815  0.00  0.00    +0.000 N 
ATOM     18  H   UNL     1       8.031   5.649  14.785  0.00  0.00    +0.000 HD
ATOM     19  H   UNL     1       8.323   5.209  13.199  0.00  0.00    +0.000 HD
ATOM     20  H   UNL     1       5.545   3.322  12.865  0.00  0.00    +0.000 HD
ATOM     21  H   UNL     1       6.262   4.653  12.133  0.00  0.00    +0.000 HD
ENDBRANCH  12  14
ENDBRANCH   7  12
BRANCH   4  22
ATOM     22  O   UNL     1       2.610   5.526  20.133  0.00  0.00    +0.000 OA
BRANCH  22  23
ATOM     23  C   UNL     1       2.023   6.778  20.092  0.00  0.00    +0.000 A 
ATOM     24  C   UNL     1       1.314   7.325  21.163  0.00  0.00    +0.000 A 
ATOM     25  N   UNL     1       0.858   8.602  21.202  0.00  0.00    +0.000 NA
ATOM     26  C   UNL     1       1.073   9.350  20.096  0.00  0.00    +0.000 A 
ATOM     27  C   UNL     1       1.687   8.866  18.948  0.00  0.00    +0.000 A 
ATOM     28 CL   UNL     1       1.875   9.874  17.572  0.00  0.00    +0.000 Cl
ATOM     29  C   UNL     1       2.164   7.554  18.942  0.00  0.00    +0.000 A 
ENDBRANCH  22  23
ENDBRANCH   4  22
TORSDOF 5
ENDMDL
MODEL 8
REMARK VINA RESULT:      -7.4      2.684      4.101
REMARK  Name = 
REMARK  7 active torsions:
REMARK  status: ('A' for Active; 'I' for Inactive)
REMARK    1  A    between atoms: C_1  and  C_2
REMARK    2  A    between atoms: C_4  and  O_5
REMARK    3  A    between atoms: O_5  and  C_6
REMARK    4  A    between atoms: C_13  and  S_14
REMARK    5  A    between atoms: S_14  and  C_15
REMARK    6  A    between atoms: C_19  and  C_20
REMARK    7  A    between atoms: C_20  and  N_22
REMARK                            x       y       z     vdW  Elec       q    Type
REMARK                         _______ _______ _______ _____ _____    ______ ____
ROOT
ATOM      1  C   UNL     1       2.410   9.138  17.812  0.00  0.00    +0.000 C 
ATOM      2  C   UNL     1       2.401   7.839  18.572  0.00  0.00    +0.000 A 
ATOM      3  C   UNL     1       3.063   6.738  17.999  0.00  0.00    +0.000 A 
ATOM      4  C   UNL     1       2.961   5.434  18.520  0.00  0.00    +0.000 A 
ATOM      5  C   UNL     1       2.301   5.279  19.740  0.00  0.00    +0.000 A 
ATOM      6  C   UNL     1       1.693   6.392  20.368  0.00  0.00    +0.000 A 
ATOM      7  C   UNL     1       1.727   7.668  19.789  0.00  0.00    +0.000 A 
ENDROOT
BRANCH   5   8
ATOM      8  S   UNL     1       2.157   3.773  20.666  0.00  0.00    +0.000 S 
ATOM      9  C   UNL     1       3.471   2.663  20.294  0.00  0.00    +0.000 C 
ATOM     10  O   UNL     1       2.323   4.156  22.058  0.00  0.00    +0.000 OA
ATOM     11  O   UNL     1       0.927   3.146  20.218  0.00  0.00    +0.000 OA
ENDBRANCH   5   8
BRANCH   7  12
ATOM     12  C   UNL     1       1.078   8.817  20.498  0.00  0.00    +0.000 C 
ATOM     13  O   UNL     1       0.670   9.774  19.849  0.00  0.00    +0.000 OA
BRANCH  12  14
ATOM     14  N   UNL     1       0.969   8.685  21.869  0.00  0.00    +0.000 NA
ATOM     15  C   UNL     1       0.142   9.443  22.507  0.00  0.00    +0.000 C 
ATOM     16  N   UNL     1      -0.645  10.444  22.048  0.00  0.00    +0.000 N 
ATOM     17  N   UNL     1      -0.033   9.308  23.840  0.00  0.00    +0.000 N 
ATOM     18  H   UNL     1      -0.660  10.469  21.026  0.00  0.00    +0.000 HD
ATOM     19  H   UNL     1      -1.588  10.405  22.415  0.00  0.00    +0.000 HD
ATOM     20  H   UNL     1       0.705   8.756  24.264  0.00  0.00    +0.000 HD
ATOM     21  H   UNL     1      -0.161  10.195  24.316  0.00  0.00    +0.000 HD
ENDBRANCH  12  14
ENDBRANCH   7  12
BRANCH   4  22
ATOM     22  O   UNL     1       3.507   4.357  17.844  0.00  0.00    +0.000 OA
BRANCH  22  23
ATOM     23  C   UNL     1       4.813   4.455  17.401  0.00  0.00    +0.000 A 
ATOM     24  C   UNL     1       5.908   4.540  18.264  0.00  0.00    +0.000 A 
ATOM     25  N   UNL     1       7.202   4.490  17.860  0.00  0.00    +0.000 NA
ATOM     26  C   UNL     1       7.412   4.405  16.527  0.00  0.00    +0.000 A 
ATOM     27  C   UNL     1       6.390   4.408  15.586  0.00  0.00    +0.000 A 
ATOM     28 CL   UNL     1       6.751   4.347  13.910  0.00  0.00    +0.000 Cl
ATOM     29  C   UNL     1       5.066   4.441  16.030  0.00  0.00    +0.000 A 
ENDBRANCH  22  23
ENDBRANCH   4  22
TORSDOF 5
ENDMDL
MODEL 9
REMARK VINA RESULT:      -7.4      2.439      3.590
REMARK  Name = 
REMARK  7 active torsions:
REMARK  status: ('A' for Active; 'I' for Inactive)
REMARK    1  A    between atoms: C_1  and  C_2
REMARK    2  A    between atoms: C_4  and  O_5
REMARK    3  A    between atoms: O_5  and  C_6
REMARK    4  A    between atoms: C_13  and  S_14
REMARK    5  A    between atoms: S_14  and  C_15
REMARK    6  A    between atoms: C_19  and  C_20
REMARK    7  A    between atoms: C_20  and  N_22
REMARK                            x       y       z     vdW  Elec       q    Type
REMARK                         _______ _______ _______ _____ _____    ______ ____
ROOT
ATOM      1  C   UNL     1       2.577   8.763  17.897  0.00  0.00    +0.000 C 
ATOM      2  C   UNL     1       2.639   7.396  18.525  0.00  0.00    +0.000 A 
ATOM      3  C   UNL     1       3.291   6.374  17.811  0.00  0.00    +0.000 A 
ATOM      4  C   UNL     1       3.248   5.024  18.206  0.00  0.00    +0.000 A 
ATOM      5  C   UNL     1       2.662   4.733  19.439  0.00  0.00    +0.000 A 
ATOM      6  C   UNL     1       2.065   5.763  20.205  0.00  0.00    +0.000 A 
ATOM      7  C   UNL     1       2.038   7.089  19.754  0.00  0.00    +0.000 A 
ENDROOT
BRANCH   5   8
ATOM      8  S   UNL     1       2.603   3.141  20.219  0.00  0.00    +0.000 S 
ATOM      9  C   UNL     1       2.091   3.268  21.898  0.00  0.00    +0.000 C 
ATOM     10  O   UNL     1       1.560   2.407  19.524  0.00  0.00    +0.000 OA
ATOM     11  O   UNL     1       3.970   2.650  20.224  0.00  0.00    +0.000 OA
ENDBRANCH   5   8
BRANCH   7  12
ATOM     12  C   UNL     1       1.405   8.147  20.606  0.00  0.00    +0.000 C 
ATOM     13  O   UNL     1       1.870   8.386  21.715  0.00  0.00    +0.000 OA
BRANCH  12  14
ATOM     14  N   UNL     1       0.328   8.801  20.040  0.00  0.00    +0.000 NA
ATOM     15  C   UNL     1       0.116  10.036  20.345  0.00  0.00    +0.000 C 
ATOM     16  N   UNL     1       0.770  10.837  21.217  0.00  0.00    +0.000 N 
ATOM     17  N   UNL     1      -0.896  10.726  19.772  0.00  0.00    +0.000 N 
ATOM     18  H   UNL     1       1.635  10.402  21.548  0.00  0.00    +0.000 HD
ATOM     19  H   UNL     1       0.959  11.758  20.842  0.00  0.00    +0.000 HD
ATOM     20  H   UNL     1      -1.559  10.112  19.313  0.00  0.00    +0.000 HD
ATOM     21  H   UNL     1      -1.355  11.364  20.413  0.00  0.00    +0.000 HD
ENDBRANCH  12  14
ENDBRANCH   7  12
BRANCH   4  22
ATOM     22  O   UNL     1       3.778   4.033  17.399  0.00  0.00    +0.000 OA
BRANCH  22  23
ATOM     23  C   UNL     1       4.994   4.270  16.784  0.00  0.00    +0.000 A 
ATOM     24  C   UNL     1       6.160   4.574  17.489  0.00  0.00    +0.000 A 
ATOM     25  N   UNL     1       7.390   4.665  16.924  0.00  0.00    +0.000 NA
ATOM     26  C   UNL     1       7.449   4.498  15.583  0.00  0.00    +0.000 A 
ATOM     27  C   UNL     1       6.332   4.285  14.786  0.00  0.00    +0.000 A 
ATOM     28 CL   UNL     1       6.495   4.133  13.084  0.00  0.00    +0.000 Cl
ATOM     29  C   UNL     1       5.080   4.176  15.395  0.00  0.00    +0.000 A 
ENDBRANCH  22  23
ENDBRANCH   4  22
TORSDOF 5
ENDMDL
