MODEL 1
REMARK VINA RESULT:      -8.4      0.000      0.000
REMARK  Name = 
REMARK  15 active torsions:
REMARK  status: ('A' for Active; 'I' for Inactive)
REMARK    1  A    between atoms: C_1  and  C_2
REMARK    2  A    between atoms: C_2  and  C_3
REMARK    3  A    between atoms: C_3  and  C_4
REMARK    4  A    between atoms: C_4  and  C_5
REMARK    5  A    between atoms: C_5  and  N_6
REMARK    6  A    between atoms: N_9  and  C_10
REMARK    7  A    between atoms: C_11  and  C_12
REMARK    8  A    between atoms: C_16  and  O_17
REMARK    9  A    between atoms: O_17  and  C_18
REMARK   10  A    between atoms: C_18  and  C_19
REMARK   11  A    between atoms: C_19  and  C_20
REMARK   12  A    between atoms: C_20  and  N_21
REMARK   13  A    between atoms: C_24  and  C_25
REMARK   14  A    between atoms: C_31  and  C_32
REMARK   15  A    between atoms: C_32  and  O_34
REMARK                            x       y       z     vdW  Elec       q    Type
REMARK                         _______ _______ _______ _____ _____    ______ ____
ROOT
ATOM      1  O   UNL     1       3.143   6.499  19.866  0.00  0.00    +0.000 OA
ENDROOT
BRANCH   1   8
ATOM      2  C   UNL     1       2.749   4.394  18.688  0.00  0.00    +0.000 A 
ATOM      3  C   UNL     1       2.227   3.076  18.744  0.00  0.00    +0.000 A 
ATOM      4  C   UNL     1       2.488   2.027  17.690  0.00  0.00    +0.000 C 
ATOM      5  C   UNL     1       1.486   2.661  19.868  0.00  0.00    +0.000 A 
ATOM      6  C   UNL     1       1.262   3.514  20.930  0.00  0.00    +0.000 A 
ATOM      7  C   UNL     1       1.801   4.789  20.888  0.00  0.00    +0.000 A 
ATOM      8  C   UNL     1       2.584   5.236  19.812  0.00  0.00    +0.000 A 
BRANCH   2  12
ATOM      9  N   UNL     1       5.138   5.053  16.022  0.00  0.00    +0.000 N 
ATOM     10  C   UNL     1       4.731   4.676  17.291  0.00  0.00    +0.000 C 
ATOM     11  O   UNL     1       5.504   4.203  18.118  0.00  0.00    +0.000 OA
ATOM     12  N   UNL     1       3.371   4.838  17.483  0.00  0.00    +0.000 N 
ATOM     13  H   UNL     1       4.494   5.490  15.393  0.00  0.00    +0.000 HD
ATOM     14  H   UNL     1       2.824   4.742  16.642  0.00  0.00    +0.000 HD
BRANCH   9  15
ATOM     15  C   UNL     1       6.551   5.001  15.683  0.00  0.00    +0.000 C 
BRANCH  15  16
ATOM     16  C   UNL     1       6.818   4.398  14.305  0.00  0.00    +0.000 C 
BRANCH  16  17
ATOM     17  C   UNL     1       5.523   3.967  13.617  0.00  0.00    +0.000 C 
BRANCH  17  19
ATOM     18  C   UNL     1       4.503   3.120  11.483  0.00  0.00    +0.000 C 
ATOM     19  C   UNL     1       5.795   3.325  12.259  0.00  0.00    +0.000 C 
ENDBRANCH  17  19
ENDBRANCH  16  17
ENDBRANCH  15  16
ENDBRANCH   9  15
ENDBRANCH   2  12
ENDBRANCH   1   8
BRANCH   1  20
ATOM     20  C   UNL     1       2.203   7.516  19.485  0.00  0.00    +0.000 C 
BRANCH  20  21
ATOM     21  C   UNL     1       1.364   7.991  20.652  0.00  0.00    +0.000 C 
BRANCH  21  22
ATOM     22  C   UNL     1       0.772   9.333  20.250  0.00  0.00    +0.000 C 
BRANCH  22  23
ATOM     23  N   UNL     1       0.185  10.081  21.330  0.00  0.00    +0.000 N 
ATOM     24  C   UNL     1       0.321   9.670  22.630  0.00  0.00    +0.000 A 
ATOM     25  N   UNL     1      -0.334  10.444  23.449  0.00  0.00    +0.000 NA
ATOM     26  C   UNL     1      -0.917  11.394  22.642  0.00  0.00    +0.000 A 
ATOM     27  C   UNL     1      -0.593  11.230  21.301  0.00  0.00    +0.000 A 
BRANCH  26  28
ATOM     28  C   UNL     1      -1.801  12.401  23.225  0.00  0.00    +0.000 A 
ATOM     29  C   UNL     1      -3.130  12.096  23.497  0.00  0.00    +0.000 A 
ATOM     30  C   UNL     1      -3.986  13.051  24.056  0.00  0.00    +0.000 A 
ATOM     31  C   UNL     1      -3.489  14.311  24.386  0.00  0.00    +0.000 A 
ATOM     32  C   UNL     1      -2.164  14.629  24.115  0.00  0.00    +0.000 A 
ATOM     33  C   UNL     1      -1.338  13.683  23.505  0.00  0.00    +0.000 A 
ENDBRANCH  26  28
BRANCH  27  34
ATOM     34  C   UNL     1      -0.928  12.134  20.207  0.00  0.00    +0.000 C 
ATOM     35  O   UNL     1      -2.055  12.531  19.945  0.00  0.00    +0.000 OA
BRANCH  34  36
ATOM     36  O   UNL     1       0.085  12.499  19.390  0.00  0.00    +0.000 OA
ATOM     37  H   UNL     1      -0.081  13.123  18.678  0.00  0.00    +0.000 HD
ENDBRANCH  34  36
ENDBRANCH  27  34
ENDBRANCH  22  23
ENDBRANCH  21  22
ENDBRANCH  20  21
ENDBRANCH   1  20
TORSDOF 13
ENDMDL
MODEL 2
REMARK VINA RESULT:      -8.0      5.998     11.011
REMARK  Name = 
REMARK  15 active torsions:
REMARK  status: ('A' for Active; 'I' for Inactive)
REMARK    1  A    between atoms: C_1  and  C_2
REMARK    2  A    between atoms: C_2  and  C_3
REMARK    3  A    between atoms: C_3  and  C_4
REMARK    4  A    between atoms: C_4  and  C_5
REMARK    5  A    between atoms: C_5  and  N_6
REMARK    6  A    between atoms: N_9  and  C_10
REMARK    7  A    between atoms: C_11  and  C_12
REMARK    8  A    between atoms: C_16  and  O_17
REMARK    9  A    between atoms: O_17  and  C_18
REMARK   10  A    between atoms: C_18  and  C_19
REMARK   11  A    between atoms: C_19  and  C_20
REMARK   12  A    between atoms: C_20  and  N_21
REMARK   13  A    between atoms: C_24  and  C_25
REMARK   14  A    between atoms: C_31  and  C_32
REMARK   15  A    between atoms: C_32  and  O_34
REMARK                            x       y       z     vdW  Elec       q    Type
REMARK                         _______ _______ _______ _____ _____    ______ ____
ROOT
ATOM      1  O   UNL     1       8.501  10.833  18.659  0.00  0.00    +0.000 OA
ENDROOT
BRANCH   1   8
ATOM      2  C   UNL     1       9.529  12.886  17.819  0.00  0.00    +0.000 A 
ATOM      3  C   UNL     1      10.714  13.650  17.666  0.00  0.00    +0.000 A 
ATOM      4  C   UNL     1      10.728  15.096  17.232  0.00  0.00    +0.000 C 
ATOM      5  C   UNL     1      11.961  13.087  18.005  0.00  0.00    +0.000 A 
ATOM      6  C   UNL     1      12.054  11.800  18.494  0.00  0.00    +0.000 A 
ATOM      7  C   UNL     1      10.892  11.068  18.675  0.00  0.00    +0.000 A 
ATOM      8  C   UNL     1       9.622  11.598  18.396  0.00  0.00    +0.000 A 
BRANCH   2  12
ATOM      9  N   UNL     1       6.373  14.675  17.515  0.00  0.00    +0.000 N 
ATOM     10  C   UNL     1       7.460  14.130  18.180  0.00  0.00    +0.000 C 
ATOM     11  O   UNL     1       7.661  14.314  19.375  0.00  0.00    +0.000 OA
ATOM     12  N   UNL     1       8.297  13.422  17.338  0.00  0.00    +0.000 N 
ATOM     13  H   UNL     1       6.207  14.456  16.553  0.00  0.00    +0.000 HD
ATOM     14  H   UNL     1       8.303  13.758  16.387  0.00  0.00    +0.000 HD
BRANCH   9  15
ATOM     15  C   UNL     1       5.365  15.398  18.273  0.00  0.00    +0.000 C 
BRANCH  15  16
ATOM     16  C   UNL     1       3.996  15.412  17.594  0.00  0.00    +0.000 C 
BRANCH  16  17
ATOM     17  C   UNL     1       3.059  14.362  18.190  0.00  0.00    +0.000 C 
BRANCH  17  19
ATOM     18  C   UNL     1       1.309  14.255  19.988  0.00  0.00    +0.000 C 
ATOM     19  C   UNL     1       1.788  14.996  18.751  0.00  0.00    +0.000 C 
ENDBRANCH  17  19
ENDBRANCH  16  17
ENDBRANCH  15  16
ENDBRANCH   9  15
ENDBRANCH   2  12
ENDBRANCH   1   8
BRANCH   1  20
ATOM     20  C   UNL     1       8.743   9.436  18.435  0.00  0.00    +0.000 C 
BRANCH  20  21
ATOM     21  C   UNL     1       7.594   8.759  17.721  0.00  0.00    +0.000 C 
BRANCH  21  22
ATOM     22  C   UNL     1       7.933   7.278  17.647  0.00  0.00    +0.000 C 
BRANCH  22  23
ATOM     23  N   UNL     1       6.924   6.401  18.178  0.00  0.00    +0.000 N 
ATOM     24  C   UNL     1       7.170   5.628  19.282  0.00  0.00    +0.000 A 
ATOM     25  N   UNL     1       6.156   4.859  19.565  0.00  0.00    +0.000 NA
ATOM     26  C   UNL     1       5.217   5.150  18.602  0.00  0.00    +0.000 A 
ATOM     27  C   UNL     1       5.639   6.140  17.724  0.00  0.00    +0.000 A 
BRANCH  26  28
ATOM     28  C   UNL     1       3.958   4.409  18.566  0.00  0.00    +0.000 A 
ATOM     29  C   UNL     1       3.764   3.398  17.633  0.00  0.00    +0.000 A 
ATOM     30  C   UNL     1       2.563   2.682  17.589  0.00  0.00    +0.000 A 
ATOM     31  C   UNL     1       1.565   2.954  18.524  0.00  0.00    +0.000 A 
ATOM     32  C   UNL     1       1.745   3.965  19.459  0.00  0.00    +0.000 A 
ATOM     33  C   UNL     1       2.927   4.709  19.452  0.00  0.00    +0.000 A 
ENDBRANCH  26  28
BRANCH  27  34
ATOM     34  C   UNL     1       4.843   6.775  16.680  0.00  0.00    +0.000 C 
ATOM     35  O   UNL     1       5.126   6.785  15.490  0.00  0.00    +0.000 OA
BRANCH  34  36
ATOM     36  O   UNL     1       3.748   7.457  17.083  0.00  0.00    +0.000 OA
ATOM     37  H   UNL     1       3.564   8.323  16.708  0.00  0.00    +0.000 HD
ENDBRANCH  34  36
ENDBRANCH  27  34
ENDBRANCH  22  23
ENDBRANCH  21  22
ENDBRANCH  20  21
ENDBRANCH   1  20
TORSDOF 13
ENDMDL
MODEL 3
REMARK VINA RESULT:      -7.9      0.580      1.124
REMARK  Name = 
REMARK  15 active torsions:
REMARK  status: ('A' for Active; 'I' for Inactive)
REMARK    1  A    between atoms: C_1  and  C_2
REMARK    2  A    between atoms: C_2  and  C_3
REMARK    3  A    between atoms: C_3  and  C_4
REMARK    4  A    between atoms: C_4  and  C_5
REMARK    5  A    between atoms: C_5  and  N_6
REMARK    6  A    between atoms: N_9  and  C_10
REMARK    7  A    between atoms: C_11  and  C_12
REMARK    8  A    between atoms: C_16  and  O_17
REMARK    9  A    between atoms: O_17  and  C_18
REMARK   10  A    between atoms: C_18  and  C_19
REMARK   11  A    between atoms: C_19  and  C_20
REMARK   12  A    between atoms: C_20  and  N_21
REMARK   13  A    between atoms: C_24  and  C_25
REMARK   14  A    between atoms: C_31  and  C_32
REMARK   15  A    between atoms: C_32  and  O_34
REMARK                            x       y       z     vdW  Elec       q    Type
REMARK                         _______ _______ _______ _____ _____    ______ ____
ROOT
ATOM      1  O   UNL     1       2.625   6.747  19.627  0.00  0.00    +0.000 OA
ENDROOT
BRANCH   1   8
ATOM      2  C   UNL     1       2.634   4.538  18.583  0.00  0.00    +0.000 A 
ATOM      3  C   UNL     1       2.294   3.165  18.693  0.00  0.00    +0.000 A 
ATOM      4  C   UNL     1       2.794   2.100  17.748  0.00  0.00    +0.000 C 
ATOM      5  C   UNL     1       1.513   2.720  19.780  0.00  0.00    +0.000 A 
ATOM      6  C   UNL     1       1.076   3.597  20.751  0.00  0.00    +0.000 A 
ATOM      7  C   UNL     1       1.438   4.931  20.659  0.00  0.00    +0.000 A 
ATOM      8  C   UNL     1       2.251   5.417  19.622  0.00  0.00    +0.000 A 
BRANCH   2  12
ATOM      9  N   UNL     1       5.148   5.335  16.074  0.00  0.00    +0.000 N 
ATOM     10  C   UNL     1       4.681   4.978  17.329  0.00  0.00    +0.000 C 
ATOM     11  O   UNL     1       5.431   4.642  18.240  0.00  0.00    +0.000 OA
ATOM     12  N   UNL     1       3.301   4.989  17.405  0.00  0.00    +0.000 N 
ATOM     13  H   UNL     1       4.514   5.660  15.372  0.00  0.00    +0.000 HD
ATOM     14  H   UNL     1       2.840   4.787  16.531  0.00  0.00    +0.000 HD
BRANCH   9  15
ATOM     15  C   UNL     1       6.581   5.432  15.850  0.00  0.00    +0.000 C 
BRANCH  15  16
ATOM     16  C   UNL     1       7.012   4.912  14.479  0.00  0.00    +0.000 C 
BRANCH  16  17
ATOM     17  C   UNL     1       6.196   3.693  14.055  0.00  0.00    +0.000 C 
BRANCH  17  19
ATOM     18  C   UNL     1       5.607   2.591  11.876  0.00  0.00    +0.000 C 
ATOM     19  C   UNL     1       5.572   3.884  12.675  0.00  0.00    +0.000 C 
ENDBRANCH  17  19
ENDBRANCH  16  17
ENDBRANCH  15  16
ENDBRANCH   9  15
ENDBRANCH   2  12
ENDBRANCH   1   8
BRANCH   1  20
ATOM     20  C   UNL     1       1.828   7.522  20.536  0.00  0.00    +0.000 C 
BRANCH  20  21
ATOM     21  C   UNL     1       1.529   8.907  20.004  0.00  0.00    +0.000 C 
BRANCH  21  22
ATOM     22  C   UNL     1       0.035   9.133  20.181  0.00  0.00    +0.000 C 
BRANCH  22  23
ATOM     23  N   UNL     1      -0.318  10.016  21.261  0.00  0.00    +0.000 N 
ATOM     24  C   UNL     1      -0.081   9.667  22.564  0.00  0.00    +0.000 A 
ATOM     25  N   UNL     1      -0.529  10.570  23.391  0.00  0.00    +0.000 NA
ATOM     26  C   UNL     1      -1.078  11.541  22.585  0.00  0.00    +0.000 A 
ATOM     27  C   UNL     1      -0.941  11.256  21.233  0.00  0.00    +0.000 A 
BRANCH  26  28
ATOM     28  C   UNL     1      -1.750  12.691  23.186  0.00  0.00    +0.000 A 
ATOM     29  C   UNL     1      -1.059  13.879  23.396  0.00  0.00    +0.000 A 
ATOM     30  C   UNL     1      -1.691  14.986  23.970  0.00  0.00    +0.000 A 
ATOM     31  C   UNL     1      -3.045  14.914  24.295  0.00  0.00    +0.000 A 
ATOM     32  C   UNL     1      -3.746  13.731  24.094  0.00  0.00    +0.000 A 
ATOM     33  C   UNL     1      -3.085  12.617  23.573  0.00  0.00    +0.000 A 
ENDBRANCH  26  28
BRANCH  27  34
ATOM     34  C   UNL     1      -1.287  12.131  20.119  0.00  0.00    +0.000 C 
ATOM     35  O   UNL     1      -0.598  13.057  19.713  0.00  0.00    +0.000 OA
BRANCH  34  36
ATOM     36  O   UNL     1      -2.495  11.933  19.545  0.00  0.00    +0.000 OA
ATOM     37  H   UNL     1      -2.554  11.814  18.593  0.00  0.00    +0.000 HD
ENDBRANCH  34  36
ENDBRANCH  27  34
ENDBRANCH  22  23
ENDBRANCH  21  22
ENDBRANCH  20  21
ENDBRANCH   1  20
TORSDOF 13
ENDMDL
MODEL 4
REMARK VINA RESULT:      -7.9      2.705      3.850
REMARK  Name = 
REMARK  15 active torsions:
REMARK  status: ('A' for Active; 'I' for Inactive)
REMARK    1  A    between atoms: C_1  and  C_2
REMARK    2  A    between atoms: C_2  and  C_3
REMARK    3  A    between atoms: C_3  and  C_4
REMARK    4  A    between atoms: C_4  and  C_5
REMARK    5  A    between atoms: C_5  and  N_6
REMARK    6  A    between atoms: N_9  and  C_10
REMARK    7  A    between atoms: C_11  and  C_12
REMARK    8  A    between atoms: C_16  and  O_17
REMARK    9  A    between atoms: O_17  and  C_18
REMARK   10  A    between atoms: C_18  and  C_19
REMARK   11  A    between atoms: C_19  and  C_20
REMARK   12  A    between atoms: C_20  and  N_21
REMARK   13  A    between atoms: C_24  and  C_25
REMARK   14  A    between atoms: C_31  and  C_32
REMARK   15  A    between atoms: C_32  and  O_34
REMARK                            x       y       z     vdW  Elec       q    Type
REMARK                         _______ _______ _______ _____ _____    ______ ____
ROOT
ATOM      1  O   UNL     1       2.672   6.848  19.221  0.00  0.00    +0.000 OA
ENDROOT
BRANCH   1   8
ATOM      2  C   UNL     1       3.754   5.396  17.580  0.00  0.00    +0.000 A 
ATOM      3  C   UNL     1       3.825   4.107  16.991  0.00  0.00    +0.000 A 
ATOM      4  C   UNL     1       4.952   3.658  16.093  0.00  0.00    +0.000 C 
ATOM      5  C   UNL     1       2.849   3.138  17.301  0.00  0.00    +0.000 A 
ATOM      6  C   UNL     1       1.822   3.416  18.180  0.00  0.00    +0.000 A 
ATOM      7  C   UNL     1       1.774   4.664  18.780  0.00  0.00    +0.000 A 
ATOM      8  C   UNL     1       2.747   5.648  18.539  0.00  0.00    +0.000 A 
BRANCH   2  12
ATOM      9  N   UNL     1       6.681   7.517  17.153  0.00  0.00    +0.000 N 
ATOM     10  C   UNL     1       5.879   6.580  17.784  0.00  0.00    +0.000 C 
ATOM     11  O   UNL     1       6.249   5.953  18.771  0.00  0.00    +0.000 OA
ATOM     12  N   UNL     1       4.666   6.403  17.144  0.00  0.00    +0.000 N 
ATOM     13  H   UNL     1       6.327   8.053  16.387  0.00  0.00    +0.000 HD
ATOM     14  H   UNL     1       4.698   6.570  16.150  0.00  0.00    +0.000 HD
BRANCH   9  15
ATOM     15  C   UNL     1       7.966   7.863  17.739  0.00  0.00    +0.000 C 
BRANCH  15  16
ATOM     16  C   UNL     1       8.197   9.370  17.839  0.00  0.00    +0.000 C 
BRANCH  16  17
ATOM     17  C   UNL     1       9.134   9.723  18.993  0.00  0.00    +0.000 C 
BRANCH  17  19
ATOM     18  C   UNL     1      10.468  11.538  17.881  0.00  0.00    +0.000 C 
ATOM     19  C   UNL     1       9.489  11.208  18.996  0.00  0.00    +0.000 C 
ENDBRANCH  17  19
ENDBRANCH  16  17
ENDBRANCH  15  16
ENDBRANCH   9  15
ENDBRANCH   2  12
ENDBRANCH   1   8
BRANCH   1  20
ATOM     20  C   UNL     1       2.253   7.923  18.366  0.00  0.00    +0.000 C 
BRANCH  20  21
ATOM     21  C   UNL     1       1.601   9.051  19.135  0.00  0.00    +0.000 C 
BRANCH  21  22
ATOM     22  C   UNL     1       0.977   8.433  20.378  0.00  0.00    +0.000 C 
BRANCH  22  23
ATOM     23  N   UNL     1       0.469   9.381  21.333  0.00  0.00    +0.000 N 
ATOM     24  C   UNL     1       0.688   9.216  22.676  0.00  0.00    +0.000 A 
ATOM     25  N   UNL     1       0.094  10.142  23.375  0.00  0.00    +0.000 NA
ATOM     26  C   UNL     1      -0.533  10.937  22.443  0.00  0.00    +0.000 A 
ATOM     27  C   UNL     1      -0.300  10.519  21.139  0.00  0.00    +0.000 A 
BRANCH  26  28
ATOM     28  C   UNL     1      -1.369  12.052  22.882  0.00  0.00    +0.000 A 
ATOM     29  C   UNL     1      -0.867  13.348  22.883  0.00  0.00    +0.000 A 
ATOM     30  C   UNL     1      -1.658  14.424  23.301  0.00  0.00    +0.000 A 
ATOM     31  C   UNL     1      -2.981  14.201  23.677  0.00  0.00    +0.000 A 
ATOM     32  C   UNL     1      -3.493  12.909  23.684  0.00  0.00    +0.000 A 
ATOM     33  C   UNL     1      -2.674  11.840  23.319  0.00  0.00    +0.000 A 
ENDBRANCH  26  28
BRANCH  27  34
ATOM     34  C   UNL     1      -0.701  11.209  19.919  0.00  0.00    +0.000 C 
ATOM     35  O   UNL     1      -1.639  10.885  19.204  0.00  0.00    +0.000 OA
BRANCH  34  36
ATOM     36  O   UNL     1       0.075  12.245  19.525  0.00  0.00    +0.000 OA
ATOM     37  H   UNL     1       0.993  12.284  19.809  0.00  0.00    +0.000 HD
ENDBRANCH  34  36
ENDBRANCH  27  34
ENDBRANCH  22  23
ENDBRANCH  21  22
ENDBRANCH  20  21
ENDBRANCH   1  20
TORSDOF 13
ENDMDL
MODEL 5
REMARK VINA RESULT:      -7.9      2.572      3.412
REMARK  Name = 
REMARK  15 active torsions:
REMARK  status: ('A' for Active; 'I' for Inactive)
REMARK    1  A    between atoms: C_1  and  C_2
REMARK    2  A    between atoms: C_2  and  C_3
REMARK    3  A    between atoms: C_3  and  C_4
REMARK    4  A    between atoms: C_4  and  C_5
REMARK    5  A    between atoms: C_5  and  N_6
REMARK    6  A    between atoms: N_9  and  C_10
REMARK    7  A    between atoms: C_11  and  C_12
REMARK    8  A    between atoms: C_16  and  O_17
REMARK    9  A    between atoms: O_17  and  C_18
REMARK   10  A    between atoms: C_18  and  C_19
REMARK   11  A    between atoms: C_19  and  C_20
REMARK   12  A    between atoms: C_20  and  N_21
REMARK   13  A    between atoms: C_24  and  C_25
REMARK   14  A    between atoms: C_31  and  C_32
REMARK   15  A    between atoms: C_32  and  O_34
REMARK                            x       y       z     vdW  Elec       q    Type
REMARK                         _______ _______ _______ _____ _____    ______ ____
ROOT
ATOM      1  O   UNL     1       2.566   6.346  20.220  0.00  0.00    +0.000 OA
ENDROOT
BRANCH   1   8
ATOM      2  C   UNL     1       2.945   4.255  19.013  0.00  0.00    +0.000 A 
ATOM      3  C   UNL     1       2.566   2.901  18.824  0.00  0.00    +0.000 A 
ATOM      4  C   UNL     1       3.377   1.907  18.029  0.00  0.00    +0.000 C 
ATOM      5  C   UNL     1       1.415   2.398  19.464  0.00  0.00    +0.000 A 
ATOM      6  C   UNL     1       0.647   3.199  20.284  0.00  0.00    +0.000 A 
ATOM      7  C   UNL     1       1.039   4.511  20.495  0.00  0.00    +0.000 A 
ATOM      8  C   UNL     1       2.202   5.047  19.917  0.00  0.00    +0.000 A 
BRANCH   2  12
ATOM      9  N   UNL     1       6.247   5.239  17.838  0.00  0.00    +0.000 N 
ATOM     10  C   UNL     1       5.309   4.810  18.763  0.00  0.00    +0.000 C 
ATOM     11  O   UNL     1       5.616   4.452  19.895  0.00  0.00    +0.000 OA
ATOM     12  N   UNL     1       4.028   4.780  18.245  0.00  0.00    +0.000 N 
ATOM     13  H   UNL     1       5.957   5.580  16.944  0.00  0.00    +0.000 HD
ATOM     14  H   UNL     1       3.990   4.606  17.252  0.00  0.00    +0.000 HD
BRANCH   9  15
ATOM     15  C   UNL     1       7.635   5.386  18.247  0.00  0.00    +0.000 C 
BRANCH  15  16
ATOM     16  C   UNL     1       8.007   6.823  18.608  0.00  0.00    +0.000 C 
BRANCH  16  17
ATOM     17  C   UNL     1       7.798   7.773  17.430  0.00  0.00    +0.000 C 
BRANCH  17  19
ATOM     18  C   UNL     1       9.048   9.489  18.773  0.00  0.00    +0.000 C 
ATOM     19  C   UNL     1       7.852   9.235  17.869  0.00  0.00    +0.000 C 
ENDBRANCH  17  19
ENDBRANCH  16  17
ENDBRANCH  15  16
ENDBRANCH   9  15
ENDBRANCH   2  12
ENDBRANCH   1   8
BRANCH   1  20
ATOM     20  C   UNL     1       1.435   7.144  20.597  0.00  0.00    +0.000 C 
BRANCH  20  21
ATOM     21  C   UNL     1       1.235   8.331  19.679  0.00  0.00    +0.000 C 
BRANCH  21  22
ATOM     22  C   UNL     1       1.809   9.543  20.397  0.00  0.00    +0.000 C 
BRANCH  22  23
ATOM     23  N   UNL     1       0.838  10.535  20.777  0.00  0.00    +0.000 N 
ATOM     24  C   UNL     1       0.603  11.631  19.989  0.00  0.00    +0.000 A 
ATOM     25  N   UNL     1      -0.262  12.438  20.537  0.00  0.00    +0.000 NA
ATOM     26  C   UNL     1      -0.596  11.836  21.728  0.00  0.00    +0.000 A 
ATOM     27  C   UNL     1       0.044  10.617  21.912  0.00  0.00    +0.000 A 
BRANCH  26  28
ATOM     28  C   UNL     1      -1.505  12.510  22.654  0.00  0.00    +0.000 A 
ATOM     29  C   UNL     1      -1.122  13.691  23.279  0.00  0.00    +0.000 A 
ATOM     30  C   UNL     1      -1.983  14.345  24.167  0.00  0.00    +0.000 A 
ATOM     31  C   UNL     1      -3.260  13.831  24.392  0.00  0.00    +0.000 A 
ATOM     32  C   UNL     1      -3.652  12.650  23.775  0.00  0.00    +0.000 A 
ATOM     33  C   UNL     1      -2.760  11.979  22.937  0.00  0.00    +0.000 A 
ENDBRANCH  26  28
BRANCH  27  34
ATOM     34  C   UNL     1      -0.188   9.666  22.992  0.00  0.00    +0.000 C 
ATOM     35  O   UNL     1       0.336   9.716  24.096  0.00  0.00    +0.000 OA
BRANCH  34  36
ATOM     36  O   UNL     1      -0.993   8.616  22.713  0.00  0.00    +0.000 OA
ATOM     37  H   UNL     1      -1.745   8.738  22.125  0.00  0.00    +0.000 HD
ENDBRANCH  34  36
ENDBRANCH  27  34
ENDBRANCH  22  23
ENDBRANCH  21  22
ENDBRANCH  20  21
ENDBRANCH   1  20
TORSDOF 13
ENDMDL
MODEL 6
REMARK VINA RESULT:      -7.8      1.133      1.270
REMARK  Name = 
REMARK  15 active torsions:
REMARK  status: ('A' for Active; 'I' for Inactive)
REMARK    1  A    between atoms: C_1  and  C_2
REMARK    2  A    between atoms: C_2  and  C_3
REMARK    3  A    between atoms: C_3  and  C_4
REMARK    4  A    between atoms: C_4  and  C_5
REMARK    5  A    between atoms: C_5  and  N_6
REMARK    6  A    between atoms: N_9  and  C_10
REMARK    7  A    between atoms: C_11  and  C_12
REMARK    8  A    between atoms: C_16  and  O_17
REMARK    9  A    between atoms: O_17  and  C_18
REMARK   10  A    between atoms: C_18  and  C_19
REMARK   11  A    between atoms: C_19  and  C_20
REMARK   12  A    between atoms: C_20  and  N_21
REMARK   13  A    between atoms: C_24  and  C_25
REMARK   14  A    between atoms: C_31  and  C_32
REMARK   15  A    between atoms: C_32  and  O_34
REMARK                            x       y       z     vdW  Elec       q    Type
REMARK                         _______ _______ _______ _____ _____    ______ ____
ROOT
ATOM      1  O   UNL     1       2.655   5.593  20.737  0.00  0.00    +0.000 OA
ENDROOT
BRANCH   1   8
ATOM      2  C   UNL     1       3.257   3.597  19.462  0.00  0.00    +0.000 A 
ATOM      3  C   UNL     1       2.846   2.338  18.954  0.00  0.00    +0.000 A 
ATOM      4  C   UNL     1       3.797   1.319  18.374  0.00  0.00    +0.000 C 
ATOM      5  C   UNL     1       1.495   1.948  19.050  0.00  0.00    +0.000 A 
ATOM      6  C   UNL     1       0.556   2.769  19.640  0.00  0.00    +0.000 A 
ATOM      7  C   UNL     1       0.966   3.983  20.167  0.00  0.00    +0.000 A 
ATOM      8  C   UNL     1       2.307   4.398  20.137  0.00  0.00    +0.000 A 
BRANCH   2  12
ATOM      9  N   UNL     1       6.256   5.057  18.006  0.00  0.00    +0.000 N 
ATOM     10  C   UNL     1       4.954   4.586  18.012  0.00  0.00    +0.000 C 
ATOM     11  O   UNL     1       4.204   4.706  17.049  0.00  0.00    +0.000 OA
ATOM     12  N   UNL     1       4.595   4.031  19.227  0.00  0.00    +0.000 N 
ATOM     13  H   UNL     1       6.859   4.890  18.786  0.00  0.00    +0.000 HD
ATOM     14  H   UNL     1       5.076   4.432  20.019  0.00  0.00    +0.000 HD
BRANCH   9  15
ATOM     15  C   UNL     1       6.806   5.613  16.780  0.00  0.00    +0.000 C 
BRANCH  15  16
ATOM     16  C   UNL     1       7.165   4.550  15.744  0.00  0.00    +0.000 C 
BRANCH  16  17
ATOM     17  C   UNL     1       6.677   4.934  14.348  0.00  0.00    +0.000 C 
BRANCH  17  19
ATOM     18  C   UNL     1       6.431   3.532  12.278  0.00  0.00    +0.000 C 
ATOM     19  C   UNL     1       5.914   3.790  13.684  0.00  0.00    +0.000 C 
ENDBRANCH  17  19
ENDBRANCH  16  17
ENDBRANCH  15  16
ENDBRANCH   9  15
ENDBRANCH   2  12
ENDBRANCH   1   8
BRANCH   1  20
ATOM     20  C   UNL     1       2.136   6.723  20.019  0.00  0.00    +0.000 C 
BRANCH  20  21
ATOM     21  C   UNL     1       1.084   7.473  20.807  0.00  0.00    +0.000 C 
BRANCH  21  22
ATOM     22  C   UNL     1       1.433   8.951  20.711  0.00  0.00    +0.000 C 
BRANCH  22  23
ATOM     23  N   UNL     1       0.653   9.811  21.559  0.00  0.00    +0.000 N 
ATOM     24  C   UNL     1       0.458   9.511  22.882  0.00  0.00    +0.000 A 
ATOM     25  N   UNL     1      -0.326  10.377  23.460  0.00  0.00    +0.000 NA
ATOM     26  C   UNL     1      -0.649  11.274  22.467  0.00  0.00    +0.000 A 
ATOM     27  C   UNL     1      -0.030  10.981  21.258  0.00  0.00    +0.000 A 
BRANCH  26  28
ATOM     28  C   UNL     1      -1.587  12.360  22.744  0.00  0.00    +0.000 A 
ATOM     29  C   UNL     1      -2.928  12.235  22.399  0.00  0.00    +0.000 A 
ATOM     30  C   UNL     1      -3.835  13.268  22.659  0.00  0.00    +0.000 A 
ATOM     31  C   UNL     1      -3.399  14.418  23.316  0.00  0.00    +0.000 A 
ATOM     32  C   UNL     1      -2.061  14.555  23.662  0.00  0.00    +0.000 A 
ATOM     33  C   UNL     1      -1.157  13.540  23.344  0.00  0.00    +0.000 A 
ENDBRANCH  26  28
BRANCH  27  34
ATOM     34  C   UNL     1      -0.049  11.798  20.051  0.00  0.00    +0.000 C 
ATOM     35  O   UNL     1      -0.664  11.526  19.028  0.00  0.00    +0.000 OA
BRANCH  34  36
ATOM     36  O   UNL     1       0.732  12.902  20.053  0.00  0.00    +0.000 OA
ATOM     37  H   UNL     1       0.336  13.762  20.218  0.00  0.00    +0.000 HD
ENDBRANCH  34  36
ENDBRANCH  27  34
ENDBRANCH  22  23
ENDBRANCH  21  22
ENDBRANCH  20  21
ENDBRANCH   1  20
TORSDOF 13
ENDMDL
MODEL 7
REMARK VINA RESULT:      -7.8      1.793      2.133
REMARK  Name = 
REMARK  15 active torsions:
REMARK  status: ('A' for Active; 'I' for Inactive)
REMARK    1  A    between atoms: C_1  and  C_2
REMARK    2  A    between atoms: C_2  and  C_3
REMARK    3  A    between atoms: C_3  and  C_4
REMARK    4  A    between atoms: C_4  and  C_5
REMARK    5  A    between atoms: C_5  and  N_6
REMARK    6  A    between atoms: N_9  and  C_10
REMARK    7  A    between atoms: C_11  and  C_12
REMARK    8  A    between atoms: C_16  and  O_17
REMARK    9  A    between atoms: O_17  and  C_18
REMARK   10  A    between atoms: C_18  and  C_19
REMARK   11  A    between atoms: C_19  and  C_20
REMARK   12  A    between atoms: C_20  and  N_21
REMARK   13  A    between atoms: C_24  and  C_25
REMARK   14  A    between atoms: C_31  and  C_32
REMARK   15  A    between atoms: C_32  and  O_34
REMARK                            x       y       z     vdW  Elec       q    Type
REMARK                         _______ _______ _______ _____ _____    ______ ____
ROOT
ATOM      1  O   UNL     1       2.342   6.520  18.952  0.00  0.00    +0.000 OA
ENDROOT
BRANCH   1   8
ATOM      2  C   UNL     1       2.740   4.132  18.620  0.00  0.00    +0.000 A 
ATOM      3  C   UNL     1       2.635   2.820  19.149  0.00  0.00    +0.000 A 
ATOM      4  C   UNL     1       3.323   1.617  18.550  0.00  0.00    +0.000 C 
ATOM      5  C   UNL     1       1.922   2.600  20.346  0.00  0.00    +0.000 A 
ATOM      6  C   UNL     1       1.327   3.645  21.023  0.00  0.00    +0.000 A 
ATOM      7  C   UNL     1       1.460   4.930  20.522  0.00  0.00    +0.000 A 
ATOM      8  C   UNL     1       2.197   5.207  19.359  0.00  0.00    +0.000 A 
BRANCH   2  12
ATOM      9  N   UNL     1       5.102   4.742  15.918  0.00  0.00    +0.000 N 
ATOM     10  C   UNL     1       4.651   4.741  17.227  0.00  0.00    +0.000 C 
ATOM     11  O   UNL     1       5.371   5.044  18.173  0.00  0.00    +0.000 OA
ATOM     12  N   UNL     1       3.342   4.310  17.338  0.00  0.00    +0.000 N 
ATOM     13  H   UNL     1       4.473   4.546  15.165  0.00  0.00    +0.000 HD
ATOM     14  H   UNL     1       3.064   3.654  16.624  0.00  0.00    +0.000 HD
BRANCH   9  15
ATOM     15  C   UNL     1       6.441   5.228  15.627  0.00  0.00    +0.000 C 
BRANCH  15  16
ATOM     16  C   UNL     1       6.964   4.774  14.265  0.00  0.00    +0.000 C 
BRANCH  16  17
ATOM     17  C   UNL     1       6.129   3.630  13.692  0.00  0.00    +0.000 C 
BRANCH  17  19
ATOM     18  C   UNL     1       4.799   3.126  11.621  0.00  0.00    +0.000 C 
ATOM     19  C   UNL     1       6.118   3.651  12.165  0.00  0.00    +0.000 C 
ENDBRANCH  17  19
ENDBRANCH  16  17
ENDBRANCH  15  16
ENDBRANCH   9  15
ENDBRANCH   2  12
ENDBRANCH   1   8
BRANCH   1  20
ATOM     20  C   UNL     1       1.994   7.444  19.994  0.00  0.00    +0.000 C 
BRANCH  20  21
ATOM     21  C   UNL     1       1.532   8.779  19.450  0.00  0.00    +0.000 C 
BRANCH  21  22
ATOM     22  C   UNL     1       0.982   9.567  20.630  0.00  0.00    +0.000 C 
BRANCH  22  23
ATOM     23  N   UNL     1      -0.096  10.463  20.307  0.00  0.00    +0.000 N 
ATOM     24  C   UNL     1      -0.495  10.648  19.010  0.00  0.00    +0.000 A 
ATOM     25  N   UNL     1      -1.439  11.543  18.921  0.00  0.00    +0.000 NA
ATOM     26  C   UNL     1      -1.656  11.951  20.218  0.00  0.00    +0.000 A 
ATOM     27  C   UNL     1      -0.859  11.277  21.133  0.00  0.00    +0.000 A 
BRANCH  26  28
ATOM     28  C   UNL     1      -2.615  13.019  20.493  0.00  0.00    +0.000 A 
ATOM     29  C   UNL     1      -3.975  12.742  20.562  0.00  0.00    +0.000 A 
ATOM     30  C   UNL     1      -4.902  13.756  20.825  0.00  0.00    +0.000 A 
ATOM     31  C   UNL     1      -4.453  15.053  21.068  0.00  0.00    +0.000 A 
ATOM     32  C   UNL     1      -3.096  15.343  20.998  0.00  0.00    +0.000 A 
ATOM     33  C   UNL     1      -2.190  14.332  20.678  0.00  0.00    +0.000 A 
ENDBRANCH  26  28
BRANCH  27  34
ATOM     34  C   UNL     1      -0.931  11.369  22.586  0.00  0.00    +0.000 C 
ATOM     35  O   UNL     1      -1.379  10.502  23.324  0.00  0.00    +0.000 OA
BRANCH  34  36
ATOM     36  O   UNL     1      -0.532  12.536  23.140  0.00  0.00    +0.000 OA
ATOM     37  H   UNL     1       0.339  12.886  22.933  0.00  0.00    +0.000 HD
ENDBRANCH  34  36
ENDBRANCH  27  34
ENDBRANCH  22  23
ENDBRANCH  21  22
ENDBRANCH  20  21
ENDBRANCH   1  20
TORSDOF 13
ENDMDL
MODEL 8
REMARK VINA RESULT:      -7.8      1.065      1.174
REMARK  Name = 
REMARK  15 active torsions:
REMARK  status: ('A' for Active; 'I' for Inactive)
REMARK    1  A    between atoms: C_1  and  C_2
REMARK    2  A    between atoms: C_2  and  C_3
REMARK    3  A    between atoms: C_3  and  C_4
REMARK    4  A    between atoms: C_4  and  C_5
REMARK    5  A    between atoms: C_5  and  N_6
REMARK    6  A    between atoms: N_9  and  C_10
REMARK    7  A    between atoms: C_11  and  C_12
REMARK    8  A    between atoms: C_16  and  O_17
REMARK    9  A    between atoms: O_17  and  C_18
REMARK   10  A    between atoms: C_18  and  C_19
REMARK   11  A    between atoms: C_19  and  C_20
REMARK   12  A    between atoms: C_20  and  N_21
REMARK   13  A    between atoms: C_24  and  C_25
REMARK   14  A    between atoms: C_31  and  C_32
REMARK   15  A    between atoms: C_32  and  O_34
REMARK                            x       y       z     vdW  Elec       q    Type
REMARK                         _______ _______ _______ _____ _____    ______ ____
ROOT
ATOM      1  O   UNL     1       3.061   6.465  19.421  0.00  0.00    +0.000 OA
ENDROOT
BRANCH   1   8
ATOM      2  C   UNL     1       3.774   4.148  19.735  0.00  0.00    +0.000 A 
ATOM      3  C   UNL     1       3.516   2.893  20.343  0.00  0.00    +0.000 A 
ATOM      4  C   UNL     1       4.514   1.762  20.385  0.00  0.00    +0.000 C 
ATOM      5  C   UNL     1       2.302   2.680  21.027  0.00  0.00    +0.000 A 
ATOM      6  C   UNL     1       1.354   3.678  21.124  0.00  0.00    +0.000 A 
ATOM      7  C   UNL     1       1.622   4.914  20.559  0.00  0.00    +0.000 A 
ATOM      8  C   UNL     1       2.835   5.191  19.907  0.00  0.00    +0.000 A 
BRANCH   2  12
ATOM      9  N   UNL     1       6.129   4.176  16.960  0.00  0.00    +0.000 N 
ATOM     10  C   UNL     1       4.960   3.842  17.623  0.00  0.00    +0.000 C 
ATOM     11  O   UNL     1       4.035   3.254  17.074  0.00  0.00    +0.000 OA
ATOM     12  N   UNL     1       4.943   4.296  18.930  0.00  0.00    +0.000 N 
ATOM     13  H   UNL     1       6.887   4.603  17.453  0.00  0.00    +0.000 HD
ATOM     14  H   UNL     1       5.480   5.136  19.079  0.00  0.00    +0.000 HD
BRANCH   9  15
ATOM     15  C   UNL     1       6.329   3.717  15.595  0.00  0.00    +0.000 C 
BRANCH  15  16
ATOM     16  C   UNL     1       5.873   4.729  14.546  0.00  0.00    +0.000 C 
BRANCH  16  17
ATOM     17  C   UNL     1       5.219   4.044  13.346  0.00  0.00    +0.000 C 
BRANCH  17  19
ATOM     18  C   UNL     1       7.323   4.401  12.020  0.00  0.00    +0.000 C 
ATOM     19  C   UNL     1       6.258   3.398  12.432  0.00  0.00    +0.000 C 
ENDBRANCH  17  19
ENDBRANCH  16  17
ENDBRANCH  15  16
ENDBRANCH   9  15
ENDBRANCH   2  12
ENDBRANCH   1   8
BRANCH   1  20
ATOM     20  C   UNL     1       1.856   7.244  19.383  0.00  0.00    +0.000 C 
BRANCH  20  21
ATOM     21  C   UNL     1       1.811   8.289  20.478  0.00  0.00    +0.000 C 
BRANCH  21  22
ATOM     22  C   UNL     1       0.715   9.275  20.099  0.00  0.00    +0.000 C 
BRANCH  22  23
ATOM     23  N   UNL     1       0.167  10.020  21.200  0.00  0.00    +0.000 N 
ATOM     24  C   UNL     1       0.337   9.597  22.493  0.00  0.00    +0.000 A 
ATOM     25  N   UNL     1      -0.287  10.371  23.336  0.00  0.00    +0.000 NA
ATOM     26  C   UNL     1      -0.884  11.333  22.553  0.00  0.00    +0.000 A 
ATOM     27  C   UNL     1      -0.600  11.176  21.202  0.00  0.00    +0.000 A 
BRANCH  26  28
ATOM     28  C   UNL     1      -1.741  12.343  23.168  0.00  0.00    +0.000 A 
ATOM     29  C   UNL     1      -3.070  12.056  23.458  0.00  0.00    +0.000 A 
ATOM     30  C   UNL     1      -3.900  13.015  24.048  0.00  0.00    +0.000 A 
ATOM     31  C   UNL     1      -3.377  14.260  24.392  0.00  0.00    +0.000 A 
ATOM     32  C   UNL     1      -2.052  14.561  24.104  0.00  0.00    +0.000 A 
ATOM     33  C   UNL     1      -1.252  13.613  23.464  0.00  0.00    +0.000 A 
ENDBRANCH  26  28
BRANCH  27  34
ATOM     34  C   UNL     1      -0.958  12.091  20.125  0.00  0.00    +0.000 C 
ATOM     35  O   UNL     1      -2.096  12.288  19.719  0.00  0.00    +0.000 OA
BRANCH  34  36
ATOM     36  O   UNL     1       0.063  12.712  19.493  0.00  0.00    +0.000 OA
ATOM     37  H   UNL     1       0.473  13.482  19.897  0.00  0.00    +0.000 HD
ENDBRANCH  34  36
ENDBRANCH  27  34
ENDBRANCH  22  23
ENDBRANCH  21  22
ENDBRANCH  20  21
ENDBRANCH   1  20
TORSDOF 13
ENDMDL
MODEL 9
REMARK VINA RESULT:      -7.8      1.974      2.896
REMARK  Name = 
REMARK  15 active torsions:
REMARK  status: ('A' for Active; 'I' for Inactive)
REMARK    1  A    between atoms: C_1  and  C_2
REMARK    2  A    between atoms: C_2  and  C_3
REMARK    3  A    between atoms: C_3  and  C_4
REMARK    4  A    between atoms: C_4  and  C_5
REMARK    5  A    between atoms: C_5  and  N_6
REMARK    6  A    between atoms: N_9  and  C_10
REMARK    7  A    between atoms: C_11  and  C_12
REMARK    8  A    between atoms: C_16  and  O_17
REMARK    9  A    between atoms: O_17  and  C_18
REMARK   10  A    between atoms: C_18  and  C_19
REMARK   11  A    between atoms: C_19  and  C_20
REMARK   12  A    between atoms: C_20  and  N_21
REMARK   13  A    between atoms: C_24  and  C_25
REMARK   14  A    between atoms: C_31  and  C_32
REMARK   15  A    between atoms: C_32  and  O_34
REMARK                            x       y       z     vdW  Elec       q    Type
REMARK                         _______ _______ _______ _____ _____    ______ ____
ROOT
ATOM      1  O   UNL     1       2.079   6.248  19.039  0.00  0.00    +0.000 OA
ENDROOT
BRANCH   1   8
ATOM      2  C   UNL     1       2.874   3.960  18.714  0.00  0.00    +0.000 A 
ATOM      3  C   UNL     1       2.767   2.596  19.088  0.00  0.00    +0.000 A 
ATOM      4  C   UNL     1       3.768   1.537  18.691  0.00  0.00    +0.000 C 
ATOM      5  C   UNL     1       1.726   2.181  19.943  0.00  0.00    +0.000 A 
ATOM      6  C   UNL     1       0.805   3.084  20.435  0.00  0.00    +0.000 A 
ATOM      7  C   UNL     1       0.932   4.421  20.096  0.00  0.00    +0.000 A 
ATOM      8  C   UNL     1       1.978   4.892  19.285  0.00  0.00    +0.000 A 
BRANCH   2  12
ATOM      9  N   UNL     1       5.952   4.954  17.044  0.00  0.00    +0.000 N 
ATOM     10  C   UNL     1       5.107   4.751  18.122  0.00  0.00    +0.000 C 
ATOM     11  O   UNL     1       5.477   4.885  19.284  0.00  0.00    +0.000 OA
ATOM     12  N   UNL     1       3.846   4.332  17.738  0.00  0.00    +0.000 N 
ATOM     13  H   UNL     1       5.603   4.894  16.109  0.00  0.00    +0.000 HD
ATOM     14  H   UNL     1       3.834   3.804  16.879  0.00  0.00    +0.000 HD
BRANCH   9  15
ATOM     15  C   UNL     1       7.296   5.457  17.278  0.00  0.00    +0.000 C 
BRANCH  15  16
ATOM     16  C   UNL     1       7.431   6.957  17.020  0.00  0.00    +0.000 C 
BRANCH  16  17
ATOM     17  C   UNL     1       8.004   7.689  18.233  0.00  0.00    +0.000 C 
BRANCH  17  19
ATOM     18  C   UNL     1       9.119   9.813  18.979  0.00  0.00    +0.000 C 
ATOM     19  C   UNL     1       8.193   9.178  17.955  0.00  0.00    +0.000 C 
ENDBRANCH  17  19
ENDBRANCH  16  17
ENDBRANCH  15  16
ENDBRANCH   9  15
ENDBRANCH   2  12
ENDBRANCH   1   8
BRANCH   1  20
ATOM     20  C   UNL     1       2.302   6.994  20.245  0.00  0.00    +0.000 C 
BRANCH  20  21
ATOM     21  C   UNL     1       1.881   8.442  20.113  0.00  0.00    +0.000 C 
BRANCH  21  22
ATOM     22  C   UNL     1       0.391   8.495  20.416  0.00  0.00    +0.000 C 
BRANCH  22  23
ATOM     23  N   UNL     1       0.007   9.487  21.384  0.00  0.00    +0.000 N 
ATOM     24  C   UNL     1       0.183   9.270  22.725  0.00  0.00    +0.000 A 
ATOM     25  N   UNL     1      -0.284  10.257  23.437  0.00  0.00    +0.000 NA
ATOM     26  C   UNL     1      -0.783  11.148  22.514  0.00  0.00    +0.000 A 
ATOM     27  C   UNL     1      -0.593  10.726  21.204  0.00  0.00    +0.000 A 
BRANCH  26  28
ATOM     28  C   UNL     1      -1.461  12.361  22.966  0.00  0.00    +0.000 A 
ATOM     29  C   UNL     1      -2.785  12.310  23.386  0.00  0.00    +0.000 A 
ATOM     30  C   UNL     1      -3.445  13.465  23.821  0.00  0.00    +0.000 A 
ATOM     31  C   UNL     1      -2.752  14.673  23.879  0.00  0.00    +0.000 A 
ATOM     32  C   UNL     1      -1.430  14.737  23.458  0.00  0.00    +0.000 A 
ATOM     33  C   UNL     1      -0.804  13.588  22.973  0.00  0.00    +0.000 A 
ENDBRANCH  26  28
BRANCH  27  34
ATOM     34  C   UNL     1      -0.878  11.487  19.994  0.00  0.00    +0.000 C 
ATOM     35  O   UNL     1      -0.068  12.180  19.394  0.00  0.00    +0.000 OA
BRANCH  34  36
ATOM     36  O   UNL     1      -2.155  11.468  19.552  0.00  0.00    +0.000 OA
ATOM     37  H   UNL     1      -2.418  12.052  18.835  0.00  0.00    +0.000 HD
ENDBRANCH  34  36
ENDBRANCH  27  34
ENDBRANCH  22  23
ENDBRANCH  21  22
ENDBRANCH  20  21
ENDBRANCH   1  20
TORSDOF 13
ENDMDL
