MODEL 1
REMARK VINA RESULT:      -8.6      0.000      0.000
REMARK  Name = 
REMARK  7 active torsions:
REMARK  status: ('A' for Active; 'I' for Inactive)
REMARK    1  A    between atoms: C_1  and  O_2
REMARK    2  A    between atoms: O_2  and  C_3
REMARK    3  A    between atoms: C_12  and  N_13
REMARK    4  A    between atoms: N_13  and  C_14
REMARK    5  A    between atoms: C_14  and  C_15
REMARK    6  A    between atoms: C_15  and  C_16
REMARK    7  A    between atoms: C_16  and  N_17
REMARK                            x       y       z     vdW  Elec       q    Type
REMARK                         _______ _______ _______ _____ _____    ______ ____
ROOT
ATOM      1  C   UNL     1       3.525   3.812  19.240  0.00  0.00    +0.000 A 
ATOM      2  C   UNL     1       2.908   3.794  20.494  0.00  0.00    +0.000 A 
ATOM      3  C   UNL     1       2.239   4.912  20.973  0.00  0.00    +0.000 A 
ATOM      4  C   UNL     1       2.167   6.072  20.204  0.00  0.00    +0.000 A 
ATOM      5  C   UNL     1       1.525   7.192  20.721  0.00  0.00    +0.000 A 
ATOM      6  C   UNL     1       1.398   8.363  19.966  0.00  0.00    +0.000 A 
ATOM      7  N   UNL     1       1.945   8.398  18.719  0.00  0.00    +0.000 N 
ATOM      8  C   UNL     1       2.588   7.312  18.207  0.00  0.00    +0.000 A 
ATOM      9  C   UNL     1       2.735   6.112  18.922  0.00  0.00    +0.000 A 
ATOM     10  C   UNL     1       3.387   4.952  18.399  0.00  0.00    +0.000 A 
ATOM     11  C   UNL     1       1.768   9.584  17.837  0.00  0.00    +0.000 C 
ATOM     12  C   UNL     1       1.847  10.878  18.631  0.00  0.00    +0.000 C 
ATOM     13  C   UNL     1       0.917  10.825  19.809  0.00  0.00    +0.000 A 
ATOM     14  C   UNL     1       0.329  12.009  20.296  0.00  0.00    +0.000 A 
ATOM     15  C   UNL     1      -0.450  11.928  21.427  0.00  0.00    +0.000 A 
ATOM     16  C   UNL     1      -0.661  10.735  22.061  0.00  0.00    +0.000 A 
ATOM     17  C   UNL     1      -0.113   9.557  21.600  0.00  0.00    +0.000 A 
ATOM     18  C   UNL     1       0.718   9.579  20.459  0.00  0.00    +0.000 A 
ATOM     19  O   UNL     1      -1.438  10.862  23.170  0.00  0.00    +0.000 OA
ATOM     20  C   UNL     1      -1.631  12.293  23.204  0.00  0.00    +0.000 C 
ATOM     21  O   UNL     1      -1.068  12.963  22.053  0.00  0.00    +0.000 OA
ENDROOT
BRANCH   1  23
ATOM     22  C   UNL     1       3.441   1.656  18.228  0.00  0.00    +0.000 C 
ATOM     23  O   UNL     1       4.210   2.728  18.764  0.00  0.00    +0.000 OA
ENDBRANCH   1  23
BRANCH  10  24
ATOM     24  N   UNL     1       3.973   5.066  17.106  0.00  0.00    +0.000 N 
ATOM     25  H   UNL     1       3.374   5.689  16.558  0.00  0.00    +0.000 HD
BRANCH  24  26
ATOM     26  C   UNL     1       5.357   5.583  16.973  0.00  0.00    +0.000 C 
BRANCH  26  27
ATOM     27  C   UNL     1       6.423   4.494  16.827  0.00  0.00    +0.000 C 
BRANCH  27  28
ATOM     28  C   UNL     1       6.294   3.763  15.488  0.00  0.00    +0.000 C 
BRANCH  28  29
ATOM     29  N   UNL     1       6.052   4.666  14.352  0.00  0.00    +0.000 NA
ATOM     30  C   UNL     1       5.109   4.063  13.394  0.00  0.00    +0.000 C 
ATOM     31  C   UNL     1       5.983   3.263  12.447  0.00  0.00    +0.000 C 
ATOM     32  C   UNL     1       7.195   4.155  12.279  0.00  0.00    +0.000 C 
ATOM     33  C   UNL     1       7.274   4.955  13.576  0.00  0.00    +0.000 C 
ENDBRANCH  28  29
ENDBRANCH  27  28
ENDBRANCH  26  27
ENDBRANCH  24  26
ENDBRANCH  10  24
TORSDOF 6
ENDMDL
MODEL 2
REMARK VINA RESULT:      -8.6      1.319      2.355
REMARK  Name = 
REMARK  7 active torsions:
REMARK  status: ('A' for Active; 'I' for Inactive)
REMARK    1  A    between atoms: C_1  and  O_2
REMARK    2  A    between atoms: O_2  and  C_3
REMARK    3  A    between atoms: C_12  and  N_13
REMARK    4  A    between atoms: N_13  and  C_14
REMARK    5  A    between atoms: C_14  and  C_15
REMARK    6  A    between atoms: C_15  and  C_16
REMARK    7  A    between atoms: C_16  and  N_17
REMARK                            x       y       z     vdW  Elec       q    Type
REMARK                         _______ _______ _______ _____ _____    ______ ____
ROOT
ATOM      1  C   UNL     1       3.414   3.735  19.199  0.00  0.00    +0.000 A 
ATOM      2  C   UNL     1       2.836   3.748  20.472  0.00  0.00    +0.000 A 
ATOM      3  C   UNL     1       2.206   4.886  20.955  0.00  0.00    +0.000 A 
ATOM      4  C   UNL     1       2.136   6.037  20.173  0.00  0.00    +0.000 A 
ATOM      5  C   UNL     1       1.535   7.178  20.693  0.00  0.00    +0.000 A 
ATOM      6  C   UNL     1       1.411   8.342  19.925  0.00  0.00    +0.000 A 
ATOM      7  N   UNL     1       1.920   8.348  18.663  0.00  0.00    +0.000 N 
ATOM      8  C   UNL     1       2.524   7.241  18.147  0.00  0.00    +0.000 A 
ATOM      9  C   UNL     1       2.666   6.047  18.874  0.00  0.00    +0.000 A 
ATOM     10  C   UNL     1       3.277   4.866  18.347  0.00  0.00    +0.000 A 
ATOM     11  C   UNL     1       1.742   9.525  17.769  0.00  0.00    +0.000 C 
ATOM     12  C   UNL     1       1.874  10.827  18.542  0.00  0.00    +0.000 C 
ATOM     13  C   UNL     1       0.979  10.811  19.749  0.00  0.00    +0.000 A 
ATOM     14  C   UNL     1       0.432  12.014  20.237  0.00  0.00    +0.000 A 
ATOM     15  C   UNL     1      -0.314  11.966  21.392  0.00  0.00    +0.000 A 
ATOM     16  C   UNL     1      -0.532  10.786  22.048  0.00  0.00    +0.000 A 
ATOM     17  C   UNL     1      -0.024   9.590  21.587  0.00  0.00    +0.000 A 
ATOM     18  C   UNL     1       0.773   9.578  20.422  0.00  0.00    +0.000 A 
ATOM     19  O   UNL     1      -1.271  10.945  23.178  0.00  0.00    +0.000 OA
ATOM     20  C   UNL     1      -1.432  12.380  23.198  0.00  0.00    +0.000 C 
ATOM     21  O   UNL     1      -0.890  13.023  22.021  0.00  0.00    +0.000 OA
ENDROOT
BRANCH   1  23
ATOM     22  C   UNL     1       3.322   1.413  18.672  0.00  0.00    +0.000 C 
ATOM     23  O   UNL     1       4.062   2.629  18.719  0.00  0.00    +0.000 OA
ENDBRANCH   1  23
BRANCH  10  24
ATOM     24  N   UNL     1       3.825   4.950  17.036  0.00  0.00    +0.000 N 
ATOM     25  H   UNL     1       4.293   5.856  16.962  0.00  0.00    +0.000 HD
BRANCH  24  26
ATOM     26  C   UNL     1       4.803   3.930  16.587  0.00  0.00    +0.000 C 
BRANCH  26  27
ATOM     27  C   UNL     1       5.920   4.480  15.695  0.00  0.00    +0.000 C 
BRANCH  27  28
ATOM     28  C   UNL     1       7.086   5.018  16.529  0.00  0.00    +0.000 C 
BRANCH  28  29
ATOM     29  N   UNL     1       6.653   5.796  17.700  0.00  0.00    +0.000 NA
ATOM     30  C   UNL     1       6.346   7.186  17.321  0.00  0.00    +0.000 C 
ATOM     31  C   UNL     1       7.667   7.919  17.444  0.00  0.00    +0.000 C 
ATOM     32  C   UNL     1       8.278   7.298  18.683  0.00  0.00    +0.000 C 
ATOM     33  C   UNL     1       7.691   5.892  18.744  0.00  0.00    +0.000 C 
ENDBRANCH  28  29
ENDBRANCH  27  28
ENDBRANCH  26  27
ENDBRANCH  24  26
ENDBRANCH  10  24
TORSDOF 6
ENDMDL
MODEL 3
REMARK VINA RESULT:      -8.3      3.024      8.838
REMARK  Name = 
REMARK  7 active torsions:
REMARK  status: ('A' for Active; 'I' for Inactive)
REMARK    1  A    between atoms: C_1  and  O_2
REMARK    2  A    between atoms: O_2  and  C_3
REMARK    3  A    between atoms: C_12  and  N_13
REMARK    4  A    between atoms: N_13  and  C_14
REMARK    5  A    between atoms: C_14  and  C_15
REMARK    6  A    between atoms: C_15  and  C_16
REMARK    7  A    between atoms: C_16  and  N_17
REMARK                            x       y       z     vdW  Elec       q    Type
REMARK                         _______ _______ _______ _____ _____    ______ ____
ROOT
ATOM      1  C   UNL     1      -1.057  11.522  22.574  0.00  0.00    +0.000 A 
ATOM      2  C   UNL     1      -1.010  10.383  23.384  0.00  0.00    +0.000 A 
ATOM      3  C   UNL     1      -0.342   9.240  22.966  0.00  0.00    +0.000 A 
ATOM      4  C   UNL     1       0.299   9.214  21.729  0.00  0.00    +0.000 A 
ATOM      5  C   UNL     1       0.929   8.045  21.314  0.00  0.00    +0.000 A 
ATOM      6  C   UNL     1       1.617   7.990  20.096  0.00  0.00    +0.000 A 
ATOM      7  N   UNL     1       1.633   9.098  19.305  0.00  0.00    +0.000 N 
ATOM      8  C   UNL     1       1.008  10.245  19.694  0.00  0.00    +0.000 A 
ATOM      9  C   UNL     1       0.312  10.352  20.910  0.00  0.00    +0.000 A 
ATOM     10  C   UNL     1      -0.334  11.550  21.349  0.00  0.00    +0.000 A 
ATOM     11  C   UNL     1       2.419   9.127  18.041  0.00  0.00    +0.000 C 
ATOM     12  C   UNL     1       2.339   7.796  17.313  0.00  0.00    +0.000 C 
ATOM     13  C   UNL     1       2.687   6.669  18.245  0.00  0.00    +0.000 A 
ATOM     14  C   UNL     1       3.295   5.502  17.743  0.00  0.00    +0.000 A 
ATOM     15  C   UNL     1       3.520   4.462  18.616  0.00  0.00    +0.000 A 
ATOM     16  C   UNL     1       3.175   4.555  19.936  0.00  0.00    +0.000 A 
ATOM     17  C   UNL     1       2.593   5.690  20.460  0.00  0.00    +0.000 A 
ATOM     18  C   UNL     1       2.312   6.781  19.610  0.00  0.00    +0.000 A 
ATOM     19  O   UNL     1       3.455   3.421  20.631  0.00  0.00    +0.000 OA
ATOM     20  C   UNL     1       3.951   2.570  19.574  0.00  0.00    +0.000 C 
ATOM     21  O   UNL     1       4.065   3.257  18.307  0.00  0.00    +0.000 OA
ENDROOT
BRANCH   1  23
ATOM     22  C   UNL     1      -3.153  12.625  22.842  0.00  0.00    +0.000 C 
ATOM     23  O   UNL     1      -1.734  12.647  22.961  0.00  0.00    +0.000 OA
ENDBRANCH   1  23
BRANCH  10  24
ATOM     24  N   UNL     1      -0.315  12.661  20.459  0.00  0.00    +0.000 N 
ATOM     25  H   UNL     1       0.516  12.562  19.871  0.00  0.00    +0.000 HD
BRANCH  24  26
ATOM     26  C   UNL     1      -1.459  12.882  19.541  0.00  0.00    +0.000 C 
BRANCH  26  27
ATOM     27  C   UNL     1      -2.335  11.646  19.320  0.00  0.00    +0.000 C 
BRANCH  27  28
ATOM     28  C   UNL     1      -3.525  11.961  18.409  0.00  0.00    +0.000 C 
BRANCH  28  29
ATOM     29  N   UNL     1      -4.009  10.792  17.661  0.00  0.00    +0.000 NA
ATOM     30  C   UNL     1      -3.013   9.707  17.680  0.00  0.00    +0.000 C 
ATOM     31  C   UNL     1      -2.122   9.982  16.483  0.00  0.00    +0.000 C 
ATOM     32  C   UNL     1      -3.108  10.459  15.438  0.00  0.00    +0.000 C 
ATOM     33  C   UNL     1      -4.251  11.081  16.234  0.00  0.00    +0.000 C 
ENDBRANCH  28  29
ENDBRANCH  27  28
ENDBRANCH  26  27
ENDBRANCH  24  26
ENDBRANCH  10  24
TORSDOF 6
ENDMDL
MODEL 4
REMARK VINA RESULT:      -8.1      2.817      4.730
REMARK  Name = 
REMARK  7 active torsions:
REMARK  status: ('A' for Active; 'I' for Inactive)
REMARK    1  A    between atoms: C_1  and  O_2
REMARK    2  A    between atoms: O_2  and  C_3
REMARK    3  A    between atoms: C_12  and  N_13
REMARK    4  A    between atoms: N_13  and  C_14
REMARK    5  A    between atoms: C_14  and  C_15
REMARK    6  A    between atoms: C_15  and  C_16
REMARK    7  A    between atoms: C_16  and  N_17
REMARK                            x       y       z     vdW  Elec       q    Type
REMARK                         _______ _______ _______ _____ _____    ______ ____
ROOT
ATOM      1  C   UNL     1       2.728   6.959  18.282  0.00  0.00    +0.000 A 
ATOM      2  C   UNL     1       2.595   8.065  17.439  0.00  0.00    +0.000 A 
ATOM      3  C   UNL     1       1.973   9.225  17.880  0.00  0.00    +0.000 A 
ATOM      4  C   UNL     1       1.475   9.305  19.179  0.00  0.00    +0.000 A 
ATOM      5  C   UNL     1       0.821  10.462  19.587  0.00  0.00    +0.000 A 
ATOM      6  C   UNL     1       0.340  10.596  20.895  0.00  0.00    +0.000 A 
ATOM      7  N   UNL     1       0.497   9.554  21.758  0.00  0.00    +0.000 N 
ATOM      8  C   UNL     1       1.124   8.410  21.365  0.00  0.00    +0.000 A 
ATOM      9  C   UNL     1       1.630   8.231  20.068  0.00  0.00    +0.000 A 
ATOM     10  C   UNL     1       2.309   7.047  19.639  0.00  0.00    +0.000 A 
ATOM     11  C   UNL     1       0.084   9.670  23.183  0.00  0.00    +0.000 C 
ATOM     12  C   UNL     1      -1.212  10.452  23.319  0.00  0.00    +0.000 C 
ATOM     13  C   UNL     1      -1.112  11.759  22.584  0.00  0.00    +0.000 A 
ATOM     14  C   UNL     1      -1.832  12.881  23.041  0.00  0.00    +0.000 A 
ATOM     15  C   UNL     1      -1.779  14.034  22.293  0.00  0.00    +0.000 A 
ATOM     16  C   UNL     1      -1.043  14.100  21.141  0.00  0.00    +0.000 A 
ATOM     17  C   UNL     1      -0.316  13.025  20.677  0.00  0.00    +0.000 A 
ATOM     18  C   UNL     1      -0.352  11.805  21.386  0.00  0.00    +0.000 A 
ATOM     19  O   UNL     1      -1.133  15.312  20.533  0.00  0.00    +0.000 OA
ATOM     20  C   UNL     1      -2.076  15.982  21.398  0.00  0.00    +0.000 C 
ATOM     21  O   UNL     1      -2.427  15.197  22.561  0.00  0.00    +0.000 OA
ENDROOT
BRANCH   1  23
ATOM     22  C   UNL     1       4.509   5.921  17.085  0.00  0.00    +0.000 C 
ATOM     23  O   UNL     1       3.315   5.799  17.853  0.00  0.00    +0.000 OA
ENDBRANCH   1  23
BRANCH  10  24
ATOM     24  N   UNL     1       2.406   5.979  20.576  0.00  0.00    +0.000 N 
ATOM     25  H   UNL     1       2.353   6.393  21.510  0.00  0.00    +0.000 HD
BRANCH  24  26
ATOM     26  C   UNL     1       1.406   4.884  20.541  0.00  0.00    +0.000 C 
BRANCH  26  27
ATOM     27  C   UNL     1       1.809   3.640  21.335  0.00  0.00    +0.000 C 
BRANCH  27  28
ATOM     28  C   UNL     1       2.989   2.917  20.680  0.00  0.00    +0.000 C 
BRANCH  28  29
ATOM     29  N   UNL     1       2.577   1.881  19.720  0.00  0.00    +0.000 NA
ATOM     30  C   UNL     1       3.713   1.459  18.883  0.00  0.00    +0.000 C 
ATOM     31  C   UNL     1       3.700   2.416  17.707  0.00  0.00    +0.000 C 
ATOM     32  C   UNL     1       2.220   2.583  17.430  0.00  0.00    +0.000 C 
ATOM     33  C   UNL     1       1.543   2.349  18.777  0.00  0.00    +0.000 C 
ENDBRANCH  28  29
ENDBRANCH  27  28
ENDBRANCH  26  27
ENDBRANCH  24  26
ENDBRANCH  10  24
TORSDOF 6
ENDMDL
MODEL 5
REMARK VINA RESULT:      -8.0      0.722      1.033
REMARK  Name = 
REMARK  7 active torsions:
REMARK  status: ('A' for Active; 'I' for Inactive)
REMARK    1  A    between atoms: C_1  and  O_2
REMARK    2  A    between atoms: O_2  and  C_3
REMARK    3  A    between atoms: C_12  and  N_13
REMARK    4  A    between atoms: N_13  and  C_14
REMARK    5  A    between atoms: C_14  and  C_15
REMARK    6  A    between atoms: C_15  and  C_16
REMARK    7  A    between atoms: C_16  and  N_17
REMARK                            x       y       z     vdW  Elec       q    Type
REMARK                         _______ _______ _______ _____ _____    ______ ____
ROOT
ATOM      1  C   UNL     1       3.216   3.556  19.503  0.00  0.00    +0.000 A 
ATOM      2  C   UNL     1       2.630   3.652  20.768  0.00  0.00    +0.000 A 
ATOM      3  C   UNL     1       2.041   4.835  21.192  0.00  0.00    +0.000 A 
ATOM      4  C   UNL     1       2.022   5.949  20.355  0.00  0.00    +0.000 A 
ATOM      5  C   UNL     1       1.461   7.136  20.815  0.00  0.00    +0.000 A 
ATOM      6  C   UNL     1       1.388   8.266  19.992  0.00  0.00    +0.000 A 
ATOM      7  N   UNL     1       1.906   8.192  18.735  0.00  0.00    +0.000 N 
ATOM      8  C   UNL     1       2.470   7.039  18.278  0.00  0.00    +0.000 A 
ATOM      9  C   UNL     1       2.560   5.877  19.062  0.00  0.00    +0.000 A 
ATOM     10  C   UNL     1       3.128   4.650  18.597  0.00  0.00    +0.000 A 
ATOM     11  C   UNL     1       1.780   9.331  17.785  0.00  0.00    +0.000 C 
ATOM     12  C   UNL     1       1.957  10.663  18.496  0.00  0.00    +0.000 C 
ATOM     13  C   UNL     1       1.053  10.739  19.694  0.00  0.00    +0.000 A 
ATOM     14  C   UNL     1       0.550  11.984  20.120  0.00  0.00    +0.000 A 
ATOM     15  C   UNL     1      -0.205  12.020  21.269  0.00  0.00    +0.000 A 
ATOM     16  C   UNL     1      -0.473  10.882  21.979  0.00  0.00    +0.000 A 
ATOM     17  C   UNL     1      -0.009   9.646  21.580  0.00  0.00    +0.000 A 
ATOM     18  C   UNL     1       0.795   9.548  20.423  0.00  0.00    +0.000 A 
ATOM     19  O   UNL     1      -1.214  11.123  23.093  0.00  0.00    +0.000 OA
ATOM     20  C   UNL     1      -1.319  12.562  23.044  0.00  0.00    +0.000 C 
ATOM     21  O   UNL     1      -0.745  13.126  21.842  0.00  0.00    +0.000 OA
ENDROOT
BRANCH   1  23
ATOM     22  C   UNL     1       4.640   1.717  20.025  0.00  0.00    +0.000 C 
ATOM     23  O   UNL     1       3.823   2.404  19.082  0.00  0.00    +0.000 OA
ENDBRANCH   1  23
BRANCH  10  24
ATOM     24  N   UNL     1       3.688   4.649  17.288  0.00  0.00    +0.000 N 
ATOM     25  H   UNL     1       3.220   5.389  16.759  0.00  0.00    +0.000 HD
BRANCH  24  26
ATOM     26  C   UNL     1       5.146   4.865  17.117  0.00  0.00    +0.000 C 
BRANCH  26  27
ATOM     27  C   UNL     1       5.504   6.048  16.213  0.00  0.00    +0.000 C 
BRANCH  27  28
ATOM     28  C   UNL     1       5.550   5.631  14.741  0.00  0.00    +0.000 C 
BRANCH  28  29
ATOM     29  N   UNL     1       6.497   4.538  14.475  0.00  0.00    +0.000 NA
ATOM     30  C   UNL     1       7.750   5.057  13.899  0.00  0.00    +0.000 C 
ATOM     31  C   UNL     1       7.504   5.078  12.402  0.00  0.00    +0.000 C 
ATOM     32  C   UNL     1       6.715   3.805  12.177  0.00  0.00    +0.000 C 
ATOM     33  C   UNL     1       5.988   3.559  13.495  0.00  0.00    +0.000 C 
ENDBRANCH  28  29
ENDBRANCH  27  28
ENDBRANCH  26  27
ENDBRANCH  24  26
ENDBRANCH  10  24
TORSDOF 6
ENDMDL
MODEL 6
REMARK VINA RESULT:      -8.0      3.125      9.700
REMARK  Name = 
REMARK  7 active torsions:
REMARK  status: ('A' for Active; 'I' for Inactive)
REMARK    1  A    between atoms: C_1  and  O_2
REMARK    2  A    between atoms: O_2  and  C_3
REMARK    3  A    between atoms: C_12  and  N_13
REMARK    4  A    between atoms: N_13  and  C_14
REMARK    5  A    between atoms: C_14  and  C_15
REMARK    6  A    between atoms: C_15  and  C_16
REMARK    7  A    between atoms: C_16  and  N_17
REMARK                            x       y       z     vdW  Elec       q    Type
REMARK                         _______ _______ _______ _____ _____    ______ ____
ROOT
ATOM      1  C   UNL     1      -1.083  11.565  22.489  0.00  0.00    +0.000 A 
ATOM      2  C   UNL     1      -1.050  10.441  23.320  0.00  0.00    +0.000 A 
ATOM      3  C   UNL     1      -0.394   9.284  22.924  0.00  0.00    +0.000 A 
ATOM      4  C   UNL     1       0.248   9.227  21.689  0.00  0.00    +0.000 A 
ATOM      5  C   UNL     1       0.866   8.044  21.296  0.00  0.00    +0.000 A 
ATOM      6  C   UNL     1       1.554   7.959  20.081  0.00  0.00    +0.000 A 
ATOM      7  N   UNL     1       1.583   9.051  19.269  0.00  0.00    +0.000 N 
ATOM      8  C   UNL     1       0.970  10.211  19.636  0.00  0.00    +0.000 A 
ATOM      9  C   UNL     1       0.275  10.350  20.848  0.00  0.00    +0.000 A 
ATOM     10  C   UNL     1      -0.358  11.563  21.265  0.00  0.00    +0.000 A 
ATOM     11  C   UNL     1       2.370   9.048  18.006  0.00  0.00    +0.000 C 
ATOM     12  C   UNL     1       2.277   7.703  17.303  0.00  0.00    +0.000 C 
ATOM     13  C   UNL     1       2.611   6.591  18.256  0.00  0.00    +0.000 A 
ATOM     14  C   UNL     1       3.207   5.408  17.777  0.00  0.00    +0.000 A 
ATOM     15  C   UNL     1       3.420   4.382  18.669  0.00  0.00    +0.000 A 
ATOM     16  C   UNL     1       3.075   4.504  19.987  0.00  0.00    +0.000 A 
ATOM     17  C   UNL     1       2.505   5.654  20.489  0.00  0.00    +0.000 A 
ATOM     18  C   UNL     1       2.236   6.732  19.618  0.00  0.00    +0.000 A 
ATOM     19  O   UNL     1       3.342   3.380  20.704  0.00  0.00    +0.000 OA
ATOM     20  C   UNL     1       3.829   2.504  19.663  0.00  0.00    +0.000 C 
ATOM     21  O   UNL     1       3.952   3.166  18.384  0.00  0.00    +0.000 OA
ENDROOT
BRANCH   1  23
ATOM     22  C   UNL     1      -3.142  12.586  23.122  0.00  0.00    +0.000 C 
ATOM     23  O   UNL     1      -1.748  12.704  22.854  0.00  0.00    +0.000 OA
ENDBRANCH   1  23
BRANCH  10  24
ATOM     24  N   UNL     1      -0.326  12.657  20.354  0.00  0.00    +0.000 N 
ATOM     25  H   UNL     1       0.298  12.393  19.588  0.00  0.00    +0.000 HD
BRANCH  24  26
ATOM     26  C   UNL     1      -1.588  13.124  19.729  0.00  0.00    +0.000 C 
BRANCH  26  27
ATOM     27  C   UNL     1      -2.483  12.000  19.202  0.00  0.00    +0.000 C 
BRANCH  27  28
ATOM     28  C   UNL     1      -3.958  12.272  19.508  0.00  0.00    +0.000 C 
BRANCH  28  29
ATOM     29  N   UNL     1      -4.835  12.105  18.339  0.00  0.00    +0.000 NA
ATOM     30  C   UNL     1      -6.055  12.919  18.478  0.00  0.00    +0.000 C 
ATOM     31  C   UNL     1      -7.032  12.024  19.217  0.00  0.00    +0.000 C 
ATOM     32  C   UNL     1      -6.763  10.664  18.607  0.00  0.00    +0.000 C 
ATOM     33  C   UNL     1      -5.304  10.717  18.164  0.00  0.00    +0.000 C 
ENDBRANCH  28  29
ENDBRANCH  27  28
ENDBRANCH  26  27
ENDBRANCH  24  26
ENDBRANCH  10  24
TORSDOF 6
ENDMDL
MODEL 7
REMARK VINA RESULT:      -8.0      3.029      9.102
REMARK  Name = 
REMARK  7 active torsions:
REMARK  status: ('A' for Active; 'I' for Inactive)
REMARK    1  A    between atoms: C_1  and  O_2
REMARK    2  A    between atoms: O_2  and  C_3
REMARK    3  A    between atoms: C_12  and  N_13
REMARK    4  A    between atoms: N_13  and  C_14
REMARK    5  A    between atoms: C_14  and  C_15
REMARK    6  A    between atoms: C_15  and  C_16
REMARK    7  A    between atoms: C_16  and  N_17
REMARK                            x       y       z     vdW  Elec       q    Type
REMARK                         _______ _______ _______ _____ _____    ______ ____
ROOT
ATOM      1  C   UNL     1      -0.950  11.647  22.322  0.00  0.00    +0.000 A 
ATOM      2  C   UNL     1      -0.999  10.544  23.178  0.00  0.00    +0.000 A 
ATOM      3  C   UNL     1      -0.386   9.347  22.833  0.00  0.00    +0.000 A 
ATOM      4  C   UNL     1       0.294   9.230  21.622  0.00  0.00    +0.000 A 
ATOM      5  C   UNL     1       0.867   8.010  21.279  0.00  0.00    +0.000 A 
ATOM      6  C   UNL     1       1.591   7.862  20.090  0.00  0.00    +0.000 A 
ATOM      7  N   UNL     1       1.700   8.932  19.255  0.00  0.00    +0.000 N 
ATOM      8  C   UNL     1       1.131  10.128  19.574  0.00  0.00    +0.000 A 
ATOM      9  C   UNL     1       0.403  10.329  20.757  0.00  0.00    +0.000 A 
ATOM     10  C   UNL     1      -0.185  11.580  21.123  0.00  0.00    +0.000 A 
ATOM     11  C   UNL     1       2.528   8.860  18.020  0.00  0.00    +0.000 C 
ATOM     12  C   UNL     1       2.394   7.505  17.345  0.00  0.00    +0.000 C 
ATOM     13  C   UNL     1       2.642   6.402  18.335  0.00  0.00    +0.000 A 
ATOM     14  C   UNL     1       3.196   5.180  17.905  0.00  0.00    +0.000 A 
ATOM     15  C   UNL     1       3.330   4.168  18.827  0.00  0.00    +0.000 A 
ATOM     16  C   UNL     1       2.947   4.338  20.130  0.00  0.00    +0.000 A 
ATOM     17  C   UNL     1       2.416   5.527  20.585  0.00  0.00    +0.000 A 
ATOM     18  C   UNL     1       2.229   6.594  19.680  0.00  0.00    +0.000 A 
ATOM     19  O   UNL     1       3.136   3.221  20.880  0.00  0.00    +0.000 OA
ATOM     20  C   UNL     1       3.615   2.298  19.878  0.00  0.00    +0.000 C 
ATOM     21  O   UNL     1       3.813   2.922  18.589  0.00  0.00    +0.000 OA
ENDROOT
BRANCH   1  23
ATOM     22  C   UNL     1      -2.662  12.760  23.550  0.00  0.00    +0.000 C 
ATOM     23  O   UNL     1      -1.571  12.825  22.637  0.00  0.00    +0.000 OA
ENDBRANCH   1  23
BRANCH  10  24
ATOM     24  N   UNL     1      -0.071  12.649  20.189  0.00  0.00    +0.000 N 
ATOM     25  H   UNL     1       0.720  12.431  19.578  0.00  0.00    +0.000 HD
BRANCH  24  26
ATOM     26  C   UNL     1      -1.215  12.970  19.302  0.00  0.00    +0.000 C 
BRANCH  26  27
ATOM     27  C   UNL     1      -2.101  11.769  18.960  0.00  0.00    +0.000 C 
BRANCH  27  28
ATOM     28  C   UNL     1      -2.195  11.558  17.446  0.00  0.00    +0.000 C 
BRANCH  28  29
ATOM     29  N   UNL     1      -3.272  10.637  17.053  0.00  0.00    +0.000 NA
ATOM     30  C   UNL     1      -4.143  11.252  16.037  0.00  0.00    +0.000 C 
ATOM     31  C   UNL     1      -5.199  11.993  16.833  0.00  0.00    +0.000 C 
ATOM     32  C   UNL     1      -5.467  11.050  17.988  0.00  0.00    +0.000 C 
ATOM     33  C   UNL     1      -4.163  10.280  18.174  0.00  0.00    +0.000 C 
ENDBRANCH  28  29
ENDBRANCH  27  28
ENDBRANCH  26  27
ENDBRANCH  24  26
ENDBRANCH  10  24
TORSDOF 6
ENDMDL
MODEL 8
REMARK VINA RESULT:      -7.9      3.001      9.104
REMARK  Name = 
REMARK  7 active torsions:
REMARK  status: ('A' for Active; 'I' for Inactive)
REMARK    1  A    between atoms: C_1  and  O_2
REMARK    2  A    between atoms: O_2  and  C_3
REMARK    3  A    between atoms: C_12  and  N_13
REMARK    4  A    between atoms: N_13  and  C_14
REMARK    5  A    between atoms: C_14  and  C_15
REMARK    6  A    between atoms: C_15  and  C_16
REMARK    7  A    between atoms: C_16  and  N_17
REMARK                            x       y       z     vdW  Elec       q    Type
REMARK                         _______ _______ _______ _____ _____    ______ ____
ROOT
ATOM      1  C   UNL     1      -0.868  11.520  22.573  0.00  0.00    +0.000 A 
ATOM      2  C   UNL     1      -0.960  10.354  23.339  0.00  0.00    +0.000 A 
ATOM      3  C   UNL     1      -0.367   9.174  22.911  0.00  0.00    +0.000 A 
ATOM      4  C   UNL     1       0.336   9.137  21.709  0.00  0.00    +0.000 A 
ATOM      5  C   UNL     1       0.889   7.934  21.281  0.00  0.00    +0.000 A 
ATOM      6  C   UNL     1       1.635   7.863  20.099  0.00  0.00    +0.000 A 
ATOM      7  N   UNL     1       1.785   8.992  19.353  0.00  0.00    +0.000 N 
ATOM      8  C   UNL     1       1.237  10.173  19.755  0.00  0.00    +0.000 A 
ATOM      9  C   UNL     1       0.488  10.297  20.936  0.00  0.00    +0.000 A 
ATOM     10  C   UNL     1      -0.080  11.530  21.389  0.00  0.00    +0.000 A 
ATOM     11  C   UNL     1       2.638   8.998  18.134  0.00  0.00    +0.000 C 
ATOM     12  C   UNL     1       2.488   7.704  17.351  0.00  0.00    +0.000 C 
ATOM     13  C   UNL     1       2.691   6.520  18.255  0.00  0.00    +0.000 A 
ATOM     14  C   UNL     1       3.226   5.324  17.740  0.00  0.00    +0.000 A 
ATOM     15  C   UNL     1       3.317   4.239  18.582  0.00  0.00    +0.000 A 
ATOM     16  C   UNL     1       2.910   4.315  19.886  0.00  0.00    +0.000 A 
ATOM     17  C   UNL     1       2.396   5.476  20.423  0.00  0.00    +0.000 A 
ATOM     18  C   UNL     1       2.252   6.616  19.602  0.00  0.00    +0.000 A 
ATOM     19  O   UNL     1       3.057   3.138  20.549  0.00  0.00    +0.000 OA
ATOM     20  C   UNL     1       3.537   2.286  19.486  0.00  0.00    +0.000 C 
ATOM     21  O   UNL     1       3.777   3.004  18.255  0.00  0.00    +0.000 OA
ENDROOT
BRANCH   1  23
ATOM     22  C   UNL     1      -2.835  12.608  23.368  0.00  0.00    +0.000 C 
ATOM     23  O   UNL     1      -1.470  12.684  22.968  0.00  0.00    +0.000 OA
ENDBRANCH   1  23
BRANCH  10  24
ATOM     24  N   UNL     1       0.079  12.665  20.544  0.00  0.00    +0.000 N 
ATOM     25  H   UNL     1       0.971  12.555  20.055  0.00  0.00    +0.000 HD
BRANCH  24  26
ATOM     26  C   UNL     1      -0.940  12.952  19.506  0.00  0.00    +0.000 C 
BRANCH  26  27
ATOM     27  C   UNL     1      -0.403  13.715  18.292  0.00  0.00    +0.000 C 
BRANCH  27  28
ATOM     28  C   UNL     1       0.090  15.111  18.684  0.00  0.00    +0.000 C 
BRANCH  28  29
ATOM     29  N   UNL     1       1.458  15.114  19.225  0.00  0.00    +0.000 NA
ATOM     30  C   UNL     1       1.999  16.483  19.273  0.00  0.00    +0.000 C 
ATOM     31  C   UNL     1       2.640  16.691  17.915  0.00  0.00    +0.000 C 
ATOM     32  C   UNL     1       3.269  15.342  17.633  0.00  0.00    +0.000 C 
ATOM     33  C   UNL     1       2.406  14.343  18.398  0.00  0.00    +0.000 C 
ENDBRANCH  28  29
ENDBRANCH  27  28
ENDBRANCH  26  27
ENDBRANCH  24  26
ENDBRANCH  10  24
TORSDOF 6
ENDMDL
MODEL 9
REMARK VINA RESULT:      -7.8      1.176      1.620
REMARK  Name = 
REMARK  7 active torsions:
REMARK  status: ('A' for Active; 'I' for Inactive)
REMARK    1  A    between atoms: C_1  and  O_2
REMARK    2  A    between atoms: O_2  and  C_3
REMARK    3  A    between atoms: C_12  and  N_13
REMARK    4  A    between atoms: N_13  and  C_14
REMARK    5  A    between atoms: C_14  and  C_15
REMARK    6  A    between atoms: C_15  and  C_16
REMARK    7  A    between atoms: C_16  and  N_17
REMARK                            x       y       z     vdW  Elec       q    Type
REMARK                         _______ _______ _______ _____ _____    ______ ____
ROOT
ATOM      1  C   UNL     1       3.156   4.703  19.326  0.00  0.00    +0.000 A 
ATOM      2  C   UNL     1       2.473   4.609  20.542  0.00  0.00    +0.000 A 
ATOM      3  C   UNL     1       1.779   5.697  21.054  0.00  0.00    +0.000 A 
ATOM      4  C   UNL     1       1.750   6.903  20.357  0.00  0.00    +0.000 A 
ATOM      5  C   UNL     1       1.082   7.991  20.908  0.00  0.00    +0.000 A 
ATOM      6  C   UNL     1       0.996   9.208  20.222  0.00  0.00    +0.000 A 
ATOM      7  N   UNL     1       1.609   9.319  19.011  0.00  0.00    +0.000 N 
ATOM      8  C   UNL     1       2.278   8.264  18.467  0.00  0.00    +0.000 A 
ATOM      9  C   UNL     1       2.385   7.021  19.112  0.00  0.00    +0.000 A 
ATOM     10  C   UNL     1       3.064   5.894  18.552  0.00  0.00    +0.000 A 
ATOM     11  C   UNL     1       1.480  10.558  18.197  0.00  0.00    +0.000 C 
ATOM     12  C   UNL     1       1.518  11.799  19.073  0.00  0.00    +0.000 C 
ATOM     13  C   UNL     1       0.525  11.677  20.195  0.00  0.00    +0.000 A 
ATOM     14  C   UNL     1      -0.086  12.830  20.723  0.00  0.00    +0.000 A 
ATOM     15  C   UNL     1      -0.925  12.682  21.804  0.00  0.00    +0.000 A 
ATOM     16  C   UNL     1      -1.171  11.452  22.349  0.00  0.00    +0.000 A 
ATOM     17  C   UNL     1      -0.600  10.303  21.845  0.00  0.00    +0.000 A 
ATOM     18  C   UNL     1       0.292  10.393  20.754  0.00  0.00    +0.000 A 
ATOM     19  O   UNL     1      -2.005  11.512  23.420  0.00  0.00    +0.000 OA
ATOM     20  C   UNL     1      -2.199  12.939  23.534  0.00  0.00    +0.000 C 
ATOM     21  O   UNL     1      -1.575  13.678  22.459  0.00  0.00    +0.000 OA
ENDROOT
BRANCH   1  23
ATOM     22  C   UNL     1       4.336   2.676  19.750  0.00  0.00    +0.000 C 
ATOM     23  O   UNL     1       3.865   3.647  18.821  0.00  0.00    +0.000 OA
ENDBRANCH   1  23
BRANCH  10  24
ATOM     24  N   UNL     1       3.718   6.086  17.302  0.00  0.00    +0.000 N 
ATOM     25  H   UNL     1       3.022   6.460  16.652  0.00  0.00    +0.000 HD
BRANCH  24  26
ATOM     26  C   UNL     1       4.896   6.984  17.224  0.00  0.00    +0.000 C 
BRANCH  26  27
ATOM     27  C   UNL     1       6.204   6.348  17.700  0.00  0.00    +0.000 C 
BRANCH  27  28
ATOM     28  C   UNL     1       7.255   6.333  16.587  0.00  0.00    +0.000 C 
BRANCH  28  29
ATOM     29  N   UNL     1       7.501   4.991  16.036  0.00  0.00    +0.000 NA
ATOM     30  C   UNL     1       7.225   4.960  14.590  0.00  0.00    +0.000 C 
ATOM     31  C   UNL     1       5.749   4.626  14.487  0.00  0.00    +0.000 C 
ATOM     32  C   UNL     1       5.559   3.612  15.596  0.00  0.00    +0.000 C 
ATOM     33  C   UNL     1       6.629   3.957  16.627  0.00  0.00    +0.000 C 
ENDBRANCH  28  29
ENDBRANCH  27  28
ENDBRANCH  26  27
ENDBRANCH  24  26
ENDBRANCH  10  24
TORSDOF 6
ENDMDL
