MODEL 1
REMARK VINA RESULT:      -7.2      0.000      0.000
REMARK  Name = 
REMARK  7 active torsions:
REMARK  status: ('A' for Active; 'I' for Inactive)
REMARK    1  A    between atoms: C_1  and  C_2
REMARK    2  A    between atoms: C_2  and  C_3
REMARK    3  A    between atoms: C_2  and  C_4
REMARK    4  A    between atoms: C_9  and  N_10
REMARK    5  A    between atoms: N_11  and  C_12
REMARK    6  A    between atoms: C_15  and  C_16
REMARK    7  A    between atoms: C_16  and  O_18
REMARK                            x       y       z     vdW  Elec       q    Type
REMARK                         _______ _______ _______ _____ _____    ______ ____
ROOT
ATOM      1  N   UNL     1       3.288   6.590  18.595  0.00  0.00    +0.000 NA
ATOM      2  N   UNL     1       2.518   7.463  18.147  0.00  0.00    +0.000 NA
ENDROOT
BRANCH   1   8
ATOM      3  C   UNL     1       3.940   4.533  17.429  0.00  0.00    +0.000 A 
ATOM      4  C   UNL     1       4.610   3.915  16.351  0.00  0.00    +0.000 A 
ATOM      5  C   UNL     1       5.401   4.652  15.471  0.00  0.00    +0.000 A 
ATOM      6  C   UNL     1       5.533   6.023  15.643  0.00  0.00    +0.000 A 
ATOM      7  C   UNL     1       4.837   6.658  16.673  0.00  0.00    +0.000 A 
ATOM      8  C   UNL     1       4.028   5.938  17.577  0.00  0.00    +0.000 A 
BRANCH   3  10
ATOM      9  C   UNL     1       2.444   2.495  17.705  0.00  0.00    +0.000 C 
ATOM     10  C   UNL     1       3.206   3.623  18.409  0.00  0.00    +0.000 C 
ATOM     11  C   UNL     1       4.097   3.104  19.538  0.00  0.00    +0.000 C 
ENDBRANCH   3  10
ENDBRANCH   1   8
BRANCH   2  12
ATOM     12  C   UNL     1       1.827   8.174  19.147  0.00  0.00    +0.000 A 
ATOM     13  C   UNL     1       1.750   7.585  20.413  0.00  0.00    +0.000 A 
ATOM     14  C   UNL     1       1.105   8.230  21.472  0.00  0.00    +0.000 A 
ATOM     15  C   UNL     1       0.526   9.495  21.298  0.00  0.00    +0.000 A 
ATOM     16  C   UNL     1       0.587  10.090  20.028  0.00  0.00    +0.000 A 
ATOM     17  C   UNL     1       1.243   9.436  18.972  0.00  0.00    +0.000 A 
BRANCH  15  18
ATOM     18  C   UNL     1      -0.135  10.103  22.491  0.00  0.00    +0.000 C 
ATOM     19  O   UNL     1      -0.121  11.305  22.698  0.00  0.00    +0.000 OA
BRANCH  18  20
ATOM     20  O   UNL     1      -0.767   9.249  23.322  0.00  0.00    +0.000 OA
ATOM     21  H   UNL     1      -0.511   9.265  24.257  0.00  0.00    +0.000 HD
ENDBRANCH  18  20
ENDBRANCH  15  18
ENDBRANCH   2  12
TORSDOF 5
ENDMDL
MODEL 2
REMARK VINA RESULT:      -7.0      4.984      8.004
REMARK  Name = 
REMARK  7 active torsions:
REMARK  status: ('A' for Active; 'I' for Inactive)
REMARK    1  A    between atoms: C_1  and  C_2
REMARK    2  A    between atoms: C_2  and  C_3
REMARK    3  A    between atoms: C_2  and  C_4
REMARK    4  A    between atoms: C_9  and  N_10
REMARK    5  A    between atoms: N_11  and  C_12
REMARK    6  A    between atoms: C_15  and  C_16
REMARK    7  A    between atoms: C_16  and  O_18
REMARK                            x       y       z     vdW  Elec       q    Type
REMARK                         _______ _______ _______ _____ _____    ______ ____
ROOT
ATOM      1  N   UNL     1       4.585   4.536  18.575  0.00  0.00    +0.000 NA
ATOM      2  N   UNL     1       4.388   3.925  17.505  0.00  0.00    +0.000 NA
ENDROOT
BRANCH   1   8
ATOM      3  C   UNL     1       2.700   5.055  20.056  0.00  0.00    +0.000 A 
ATOM      4  C   UNL     1       1.757   4.617  21.010  0.00  0.00    +0.000 A 
ATOM      5  C   UNL     1       1.817   3.334  21.554  0.00  0.00    +0.000 A 
ATOM      6  C   UNL     1       2.815   2.459  21.149  0.00  0.00    +0.000 A 
ATOM      7  C   UNL     1       3.726   2.857  20.169  0.00  0.00    +0.000 A 
ATOM      8  C   UNL     1       3.687   4.148  19.600  0.00  0.00    +0.000 A 
BRANCH   3  10
ATOM      9  C   UNL     1       2.225   6.667  18.147  0.00  0.00    +0.000 C 
ATOM     10  C   UNL     1       2.627   6.515  19.619  0.00  0.00    +0.000 C 
ATOM     11  C   UNL     1       1.774   7.383  20.545  0.00  0.00    +0.000 C 
ENDBRANCH   3  10
ENDBRANCH   1   8
BRANCH   2  12
ATOM     12  C   UNL     1       5.316   4.241  16.495  0.00  0.00    +0.000 A 
ATOM     13  C   UNL     1       4.929   3.998  15.173  0.00  0.00    +0.000 A 
ATOM     14  C   UNL     1       5.777   4.304  14.104  0.00  0.00    +0.000 A 
ATOM     15  C   UNL     1       7.037   4.878  14.327  0.00  0.00    +0.000 A 
ATOM     16  C   UNL     1       7.440   5.115  15.650  0.00  0.00    +0.000 A 
ATOM     17  C   UNL     1       6.578   4.809  16.717  0.00  0.00    +0.000 A 
BRANCH  15  18
ATOM     18  C   UNL     1       7.866   5.172  13.120  0.00  0.00    +0.000 C 
ATOM     19  O   UNL     1       8.837   5.909  13.164  0.00  0.00    +0.000 OA
BRANCH  18  20
ATOM     20  O   UNL     1       7.492   4.564  11.976  0.00  0.00    +0.000 OA
ATOM     21  H   UNL     1       6.549   4.361  11.866  0.00  0.00    +0.000 HD
ENDBRANCH  18  20
ENDBRANCH  15  18
ENDBRANCH   2  12
TORSDOF 5
ENDMDL
MODEL 3
REMARK VINA RESULT:      -6.9      0.480      1.185
REMARK  Name = 
REMARK  7 active torsions:
REMARK  status: ('A' for Active; 'I' for Inactive)
REMARK    1  A    between atoms: C_1  and  C_2
REMARK    2  A    between atoms: C_2  and  C_3
REMARK    3  A    between atoms: C_2  and  C_4
REMARK    4  A    between atoms: C_9  and  N_10
REMARK    5  A    between atoms: N_11  and  C_12
REMARK    6  A    between atoms: C_15  and  C_16
REMARK    7  A    between atoms: C_16  and  O_18
REMARK                            x       y       z     vdW  Elec       q    Type
REMARK                         _______ _______ _______ _____ _____    ______ ____
ROOT
ATOM      1  N   UNL     1       3.445   6.565  18.542  0.00  0.00    +0.000 NA
ATOM      2  N   UNL     1       2.559   7.330  18.110  0.00  0.00    +0.000 NA
ENDROOT
BRANCH   1   8
ATOM      3  C   UNL     1       4.039   4.481  17.395  0.00  0.00    +0.000 A 
ATOM      4  C   UNL     1       4.659   3.837  16.302  0.00  0.00    +0.000 A 
ATOM      5  C   UNL     1       5.412   4.552  15.371  0.00  0.00    +0.000 A 
ATOM      6  C   UNL     1       5.555   5.925  15.507  0.00  0.00    +0.000 A 
ATOM      7  C   UNL     1       4.907   6.586  16.552  0.00  0.00    +0.000 A 
ATOM      8  C   UNL     1       4.137   5.889  17.507  0.00  0.00    +0.000 A 
BRANCH   3  10
ATOM      9  C   UNL     1       2.388   2.587  17.785  0.00  0.00    +0.000 C 
ATOM     10  C   UNL     1       3.346   3.596  18.426  0.00  0.00    +0.000 C 
ATOM     11  C   UNL     1       4.316   2.932  19.405  0.00  0.00    +0.000 C 
ENDBRANCH   3  10
ENDBRANCH   1   8
BRANCH   2  12
ATOM     12  C   UNL     1       1.908   8.068  19.117  0.00  0.00    +0.000 A 
ATOM     13  C   UNL     1       1.368   9.306  18.755  0.00  0.00    +0.000 A 
ATOM     14  C   UNL     1       0.684  10.095  19.684  0.00  0.00    +0.000 A 
ATOM     15  C   UNL     1       0.508   9.661  21.006  0.00  0.00    +0.000 A 
ATOM     16  C   UNL     1       1.056   8.425  21.383  0.00  0.00    +0.000 A 
ATOM     17  C   UNL     1       1.737   7.637  20.440  0.00  0.00    +0.000 A 
BRANCH  15  18
ATOM     18  C   UNL     1      -0.241  10.573  21.921  0.00  0.00    +0.000 C 
ATOM     19  O   UNL     1      -0.982  11.447  21.502  0.00  0.00    +0.000 OA
BRANCH  18  20
ATOM     20  O   UNL     1      -0.066  10.368  23.242  0.00  0.00    +0.000 OA
ATOM     21  H   UNL     1       0.662   9.785  23.511  0.00  0.00    +0.000 HD
ENDBRANCH  18  20
ENDBRANCH  15  18
ENDBRANCH   2  12
TORSDOF 5
ENDMDL
MODEL 4
REMARK VINA RESULT:      -6.9      4.996      8.025
REMARK  Name = 
REMARK  7 active torsions:
REMARK  status: ('A' for Active; 'I' for Inactive)
REMARK    1  A    between atoms: C_1  and  C_2
REMARK    2  A    between atoms: C_2  and  C_3
REMARK    3  A    between atoms: C_2  and  C_4
REMARK    4  A    between atoms: C_9  and  N_10
REMARK    5  A    between atoms: N_11  and  C_12
REMARK    6  A    between atoms: C_15  and  C_16
REMARK    7  A    between atoms: C_16  and  O_18
REMARK                            x       y       z     vdW  Elec       q    Type
REMARK                         _______ _______ _______ _____ _____    ______ ____
ROOT
ATOM      1  N   UNL     1       3.537   4.286  17.571  0.00  0.00    +0.000 NA
ATOM      2  N   UNL     1       4.668   3.763  17.628  0.00  0.00    +0.000 NA
ENDROOT
BRANCH   1   8
ATOM      3  C   UNL     1       2.227   4.972  19.528  0.00  0.00    +0.000 A 
ATOM      4  C   UNL     1       1.342   4.626  20.571  0.00  0.00    +0.000 A 
ATOM      5  C   UNL     1       0.998   3.298  20.820  0.00  0.00    +0.000 A 
ATOM      6  C   UNL     1       1.522   2.288  20.026  0.00  0.00    +0.000 A 
ATOM      7  C   UNL     1       2.359   2.616  18.957  0.00  0.00    +0.000 A 
ATOM      8  C   UNL     1       2.723   3.951  18.681  0.00  0.00    +0.000 A 
BRANCH   3  10
ATOM      9  C   UNL     1       2.506   6.980  17.992  0.00  0.00    +0.000 C 
ATOM     10  C   UNL     1       2.642   6.436  19.419  0.00  0.00    +0.000 C 
ATOM     11  C   UNL     1       1.961   7.337  20.450  0.00  0.00    +0.000 C 
ENDBRANCH   3  10
ENDBRANCH   1   8
BRANCH   2  12
ATOM     12  C   UNL     1       5.520   4.141  16.572  0.00  0.00    +0.000 A 
ATOM     13  C   UNL     1       5.160   3.733  15.284  0.00  0.00    +0.000 A 
ATOM     14  C   UNL     1       5.933   4.084  14.173  0.00  0.00    +0.000 A 
ATOM     15  C   UNL     1       7.087   4.867  14.318  0.00  0.00    +0.000 A 
ATOM     16  C   UNL     1       7.464   5.271  15.608  0.00  0.00    +0.000 A 
ATOM     17  C   UNL     1       6.677   4.918  16.717  0.00  0.00    +0.000 A 
BRANCH  15  18
ATOM     18  C   UNL     1       7.842   5.192  13.071  0.00  0.00    +0.000 C 
ATOM     19  O   UNL     1       7.521   4.745  11.983  0.00  0.00    +0.000 OA
BRANCH  18  20
ATOM     20  O   UNL     1       8.894   6.024  13.211  0.00  0.00    +0.000 OA
ATOM     21  H   UNL     1       8.709   6.975  13.253  0.00  0.00    +0.000 HD
ENDBRANCH  18  20
ENDBRANCH  15  18
ENDBRANCH   2  12
TORSDOF 5
ENDMDL
MODEL 5
REMARK VINA RESULT:      -6.8      1.278      1.619
REMARK  Name = 
REMARK  7 active torsions:
REMARK  status: ('A' for Active; 'I' for Inactive)
REMARK    1  A    between atoms: C_1  and  C_2
REMARK    2  A    between atoms: C_2  and  C_3
REMARK    3  A    between atoms: C_2  and  C_4
REMARK    4  A    between atoms: C_9  and  N_10
REMARK    5  A    between atoms: N_11  and  C_12
REMARK    6  A    between atoms: C_15  and  C_16
REMARK    7  A    between atoms: C_16  and  O_18
REMARK                            x       y       z     vdW  Elec       q    Type
REMARK                         _______ _______ _______ _____ _____    ______ ____
ROOT
ATOM      1  N   UNL     1       2.096   6.725  18.429  0.00  0.00    +0.000 NA
ATOM      2  N   UNL     1       2.518   7.260  19.474  0.00  0.00    +0.000 NA
ENDROOT
BRANCH   1   8
ATOM      3  C   UNL     1       2.545   4.321  18.251  0.00  0.00    +0.000 A 
ATOM      4  C   UNL     1       3.331   3.274  17.722  0.00  0.00    +0.000 A 
ATOM      5  C   UNL     1       4.496   3.534  17.001  0.00  0.00    +0.000 A 
ATOM      6  C   UNL     1       4.896   4.845  16.786  0.00  0.00    +0.000 A 
ATOM      7  C   UNL     1       4.105   5.894  17.258  0.00  0.00    +0.000 A 
ATOM      8  C   UNL     1       2.920   5.660  17.988  0.00  0.00    +0.000 A 
BRANCH   3  10
ATOM      9  C   UNL     1       0.776   2.566  18.757  0.00  0.00    +0.000 C 
ATOM     10  C   UNL     1       1.363   3.931  19.133  0.00  0.00    +0.000 C 
ATOM     11  C   UNL     1       1.659   4.042  20.628  0.00  0.00    +0.000 C 
ENDBRANCH   3  10
ENDBRANCH   1   8
BRANCH   2  12
ATOM     12  C   UNL     1       1.674   8.272  19.971  0.00  0.00    +0.000 A 
ATOM     13  C   UNL     1       1.269   8.170  21.305  0.00  0.00    +0.000 A 
ATOM     14  C   UNL     1       0.452   9.142  21.889  0.00  0.00    +0.000 A 
ATOM     15  C   UNL     1       0.024  10.258  21.155  0.00  0.00    +0.000 A 
ATOM     16  C   UNL     1       0.415  10.364  19.811  0.00  0.00    +0.000 A 
ATOM     17  C   UNL     1       1.241   9.384  19.235  0.00  0.00    +0.000 A 
BRANCH  15  18
ATOM     18  C   UNL     1      -0.842  11.242  21.869  0.00  0.00    +0.000 C 
ATOM     19  O   UNL     1      -1.716  11.872  21.297  0.00  0.00    +0.000 OA
BRANCH  18  20
ATOM     20  O   UNL     1      -0.615  11.387  23.190  0.00  0.00    +0.000 OA
ATOM     21  H   UNL     1      -0.911  12.212  23.606  0.00  0.00    +0.000 HD
ENDBRANCH  18  20
ENDBRANCH  15  18
ENDBRANCH   2  12
TORSDOF 5
ENDMDL
MODEL 6
REMARK VINA RESULT:      -6.8      4.055      7.532
REMARK  Name = 
REMARK  7 active torsions:
REMARK  status: ('A' for Active; 'I' for Inactive)
REMARK    1  A    between atoms: C_1  and  C_2
REMARK    2  A    between atoms: C_2  and  C_3
REMARK    3  A    between atoms: C_2  and  C_4
REMARK    4  A    between atoms: C_9  and  N_10
REMARK    5  A    between atoms: N_11  and  C_12
REMARK    6  A    between atoms: C_15  and  C_16
REMARK    7  A    between atoms: C_16  and  O_18
REMARK                            x       y       z     vdW  Elec       q    Type
REMARK                         _______ _______ _______ _____ _____    ______ ____
ROOT
ATOM      1  N   UNL     1       1.680   7.874  20.752  0.00  0.00    +0.000 NA
ATOM      2  N   UNL     1       1.088   6.777  20.805  0.00  0.00    +0.000 NA
ENDROOT
BRANCH   1   8
ATOM      3  C   UNL     1       0.324   9.859  20.268  0.00  0.00    +0.000 A 
ATOM      4  C   UNL     1      -0.549  10.868  20.729  0.00  0.00    +0.000 A 
ATOM      5  C   UNL     1      -0.826  11.024  22.087  0.00  0.00    +0.000 A 
ATOM      6  C   UNL     1      -0.244  10.168  23.012  0.00  0.00    +0.000 A 
ATOM      7  C   UNL     1       0.581   9.133  22.570  0.00  0.00    +0.000 A 
ATOM      8  C   UNL     1       0.877   8.951  21.202  0.00  0.00    +0.000 A 
BRANCH   3  10
ATOM      9  C   UNL     1      -0.584   9.953  17.895  0.00  0.00    +0.000 C 
ATOM     10  C   UNL     1       0.663   9.854  18.781  0.00  0.00    +0.000 C 
ATOM     11  C   UNL     1       1.729  10.880  18.398  0.00  0.00    +0.000 C 
ENDBRANCH   3  10
ENDBRANCH   1   8
BRANCH   2  12
ATOM     12  C   UNL     1       1.892   5.683  20.432  0.00  0.00    +0.000 A 
ATOM     13  C   UNL     1       1.412   4.404  20.733  0.00  0.00    +0.000 A 
ATOM     14  C   UNL     1       2.132   3.260  20.378  0.00  0.00    +0.000 A 
ATOM     15  C   UNL     1       3.353   3.361  19.695  0.00  0.00    +0.000 A 
ATOM     16  C   UNL     1       3.849   4.640  19.398  0.00  0.00    +0.000 A 
ATOM     17  C   UNL     1       3.115   5.784  19.755  0.00  0.00    +0.000 A 
BRANCH  15  18
ATOM     18  C   UNL     1       4.043   2.081  19.356  0.00  0.00    +0.000 C 
ATOM     19  O   UNL     1       3.641   1.341  18.473  0.00  0.00    +0.000 OA
BRANCH  18  20
ATOM     20  O   UNL     1       5.150   1.793  20.071  0.00  0.00    +0.000 OA
ATOM     21  H   UNL     1       5.954   1.568  19.577  0.00  0.00    +0.000 HD
ENDBRANCH  18  20
ENDBRANCH  15  18
ENDBRANCH   2  12
TORSDOF 5
ENDMDL
MODEL 7
REMARK VINA RESULT:      -6.8      2.012      2.926
REMARK  Name = 
REMARK  7 active torsions:
REMARK  status: ('A' for Active; 'I' for Inactive)
REMARK    1  A    between atoms: C_1  and  C_2
REMARK    2  A    between atoms: C_2  and  C_3
REMARK    3  A    between atoms: C_2  and  C_4
REMARK    4  A    between atoms: C_9  and  N_10
REMARK    5  A    between atoms: N_11  and  C_12
REMARK    6  A    between atoms: C_15  and  C_16
REMARK    7  A    between atoms: C_16  and  O_18
REMARK                            x       y       z     vdW  Elec       q    Type
REMARK                         _______ _______ _______ _____ _____    ______ ____
ROOT
ATOM      1  N   UNL     1       4.500   7.075  17.423  0.00  0.00    +0.000 NA
ATOM      2  N   UNL     1       3.396   6.636  17.801  0.00  0.00    +0.000 NA
ENDROOT
BRANCH   1   8
ATOM      3  C   UNL     1       6.571   5.775  17.236  0.00  0.00    +0.000 A 
ATOM      4  C   UNL     1       7.292   4.732  16.615  0.00  0.00    +0.000 A 
ATOM      5  C   UNL     1       6.782   4.058  15.506  0.00  0.00    +0.000 A 
ATOM      6  C   UNL     1       5.538   4.405  14.999  0.00  0.00    +0.000 A 
ATOM      7  C   UNL     1       4.789   5.400  15.631  0.00  0.00    +0.000 A 
ATOM      8  C   UNL     1       5.279   6.097  16.756  0.00  0.00    +0.000 A 
BRANCH   3  10
ATOM      9  C   UNL     1       8.162   5.627  19.214  0.00  0.00    +0.000 C 
ATOM     10  C   UNL     1       7.270   6.534  18.360  0.00  0.00    +0.000 C 
ATOM     11  C   UNL     1       8.005   7.786  17.880  0.00  0.00    +0.000 C 
ENDBRANCH   3  10
ENDBRANCH   1   8
BRANCH   2  12
ATOM     12  C   UNL     1       2.576   7.611  18.400  0.00  0.00    +0.000 A 
ATOM     13  C   UNL     1       2.223   7.415  19.739  0.00  0.00    +0.000 A 
ATOM     14  C   UNL     1       1.432   8.343  20.422  0.00  0.00    +0.000 A 
ATOM     15  C   UNL     1       0.979   9.508  19.785  0.00  0.00    +0.000 A 
ATOM     16  C   UNL     1       1.317   9.709  18.438  0.00  0.00    +0.000 A 
ATOM     17  C   UNL     1       2.118   8.772  17.763  0.00  0.00    +0.000 A 
BRANCH  15  18
ATOM     18  C   UNL     1       0.144  10.440  20.600  0.00  0.00    +0.000 C 
ATOM     19  O   UNL     1       0.518  10.873  21.678  0.00  0.00    +0.000 OA
BRANCH  18  20
ATOM     20  O   UNL     1      -1.045  10.793  20.072  0.00  0.00    +0.000 OA
ATOM     21  H   UNL     1      -1.102  11.658  19.638  0.00  0.00    +0.000 HD
ENDBRANCH  18  20
ENDBRANCH  15  18
ENDBRANCH   2  12
TORSDOF 5
ENDMDL
MODEL 8
REMARK VINA RESULT:      -6.8      4.468      6.217
REMARK  Name = 
REMARK  7 active torsions:
REMARK  status: ('A' for Active; 'I' for Inactive)
REMARK    1  A    between atoms: C_1  and  C_2
REMARK    2  A    between atoms: C_2  and  C_3
REMARK    3  A    between atoms: C_2  and  C_4
REMARK    4  A    between atoms: C_9  and  N_10
REMARK    5  A    between atoms: N_11  and  C_12
REMARK    6  A    between atoms: C_15  and  C_16
REMARK    7  A    between atoms: C_16  and  O_18
REMARK                            x       y       z     vdW  Elec       q    Type
REMARK                         _______ _______ _______ _____ _____    ______ ____
ROOT
ATOM      1  N   UNL     1       5.282   3.679  15.004  0.00  0.00    +0.000 NA
ATOM      2  N   UNL     1       5.000   4.491  15.908  0.00  0.00    +0.000 NA
ENDROOT
BRANCH   1   8
ATOM      3  C   UNL     1       6.179   3.796  12.724  0.00  0.00    +0.000 A 
ATOM      4  C   UNL     1       7.070   4.390  11.806  0.00  0.00    +0.000 A 
ATOM      5  C   UNL     1       8.034   5.309  12.220  0.00  0.00    +0.000 A 
ATOM      6  C   UNL     1       8.121   5.661  13.560  0.00  0.00    +0.000 A 
ATOM      7  C   UNL     1       7.215   5.122  14.475  0.00  0.00    +0.000 A 
ATOM      8  C   UNL     1       6.228   4.192  14.083  0.00  0.00    +0.000 A 
BRANCH   3  10
ATOM      9  C   UNL     1       4.092   3.280  11.366  0.00  0.00    +0.000 C 
ATOM     10  C   UNL     1       5.249   2.709  12.193  0.00  0.00    +0.000 C 
ATOM     11  C   UNL     1       5.985   1.586  11.462  0.00  0.00    +0.000 C 
ENDBRANCH   3  10
ENDBRANCH   1   8
BRANCH   2  12
ATOM     12  C   UNL     1       4.117   3.976  16.876  0.00  0.00    +0.000 A 
ATOM     13  C   UNL     1       3.338   4.895  17.585  0.00  0.00    +0.000 A 
ATOM     14  C   UNL     1       2.417   4.471  18.548  0.00  0.00    +0.000 A 
ATOM     15  C   UNL     1       2.238   3.108  18.821  0.00  0.00    +0.000 A 
ATOM     16  C   UNL     1       3.023   2.177  18.123  0.00  0.00    +0.000 A 
ATOM     17  C   UNL     1       3.942   2.613  17.153  0.00  0.00    +0.000 A 
BRANCH  15  18
ATOM     18  C   UNL     1       1.228   2.756  19.862  0.00  0.00    +0.000 C 
ATOM     19  O   UNL     1       1.531   2.590  21.032  0.00  0.00    +0.000 OA
BRANCH  18  20
ATOM     20  O   UNL     1      -0.049   2.647  19.441  0.00  0.00    +0.000 OA
ATOM     21  H   UNL     1      -0.710   2.357  20.089  0.00  0.00    +0.000 HD
ENDBRANCH  18  20
ENDBRANCH  15  18
ENDBRANCH   2  12
TORSDOF 5
ENDMDL
MODEL 9
REMARK VINA RESULT:      -6.7      1.360      2.111
REMARK  Name = 
REMARK  7 active torsions:
REMARK  status: ('A' for Active; 'I' for Inactive)
REMARK    1  A    between atoms: C_1  and  C_2
REMARK    2  A    between atoms: C_2  and  C_3
REMARK    3  A    between atoms: C_2  and  C_4
REMARK    4  A    between atoms: C_9  and  N_10
REMARK    5  A    between atoms: N_11  and  C_12
REMARK    6  A    between atoms: C_15  and  C_16
REMARK    7  A    between atoms: C_16  and  O_18
REMARK                            x       y       z     vdW  Elec       q    Type
REMARK                         _______ _______ _______ _____ _____    ______ ____
ROOT
ATOM      1  N   UNL     1       2.182   6.454  19.650  0.00  0.00    +0.000 NA
ATOM      2  N   UNL     1       2.192   7.623  19.216  0.00  0.00    +0.000 NA
ENDROOT
BRANCH   1   8
ATOM      3  C   UNL     1       2.567   4.207  18.746  0.00  0.00    +0.000 A 
ATOM      4  C   UNL     1       3.283   3.362  17.870  0.00  0.00    +0.000 A 
ATOM      5  C   UNL     1       4.387   3.826  17.157  0.00  0.00    +0.000 A 
ATOM      6  C   UNL     1       4.794   5.146  17.296  0.00  0.00    +0.000 A 
ATOM      7  C   UNL     1       4.067   6.009  18.118  0.00  0.00    +0.000 A 
ATOM      8  C   UNL     1       2.945   5.567  18.850  0.00  0.00    +0.000 A 
BRANCH   3  10
ATOM      9  C   UNL     1       0.763   2.416  18.845  0.00  0.00    +0.000 C 
ATOM     10  C   UNL     1       1.456   3.572  19.577  0.00  0.00    +0.000 C 
ATOM     11  C   UNL     1       1.900   3.181  20.986  0.00  0.00    +0.000 C 
ENDBRANCH   3  10
ENDBRANCH   1   8
BRANCH   2  12
ATOM     12  C   UNL     1       1.501   8.536  20.036  0.00  0.00    +0.000 A 
ATOM     13  C   UNL     1       1.035   9.710  19.435  0.00  0.00    +0.000 A 
ATOM     14  C   UNL     1       0.318  10.661  20.168  0.00  0.00    +0.000 A 
ATOM     15  C   UNL     1       0.035  10.459  21.526  0.00  0.00    +0.000 A 
ATOM     16  C   UNL     1       0.508   9.289  22.142  0.00  0.00    +0.000 A 
ATOM     17  C   UNL     1       1.222   8.337  21.395  0.00  0.00    +0.000 A 
BRANCH  15  18
ATOM     18  C   UNL     1      -0.741  11.530  22.219  0.00  0.00    +0.000 C 
ATOM     19  O   UNL     1      -1.049  11.450  23.397  0.00  0.00    +0.000 OA
BRANCH  18  20
ATOM     20  O   UNL     1      -1.070  12.605  21.473  0.00  0.00    +0.000 OA
ATOM     21  H   UNL     1      -0.475  13.370  21.505  0.00  0.00    +0.000 HD
ENDBRANCH  18  20
ENDBRANCH  15  18
ENDBRANCH   2  12
TORSDOF 5
ENDMDL
