MODEL 1
REMARK VINA RESULT:      -7.0      0.000      0.000
REMARK  Name = 
REMARK  19 active torsions:
REMARK  status: ('A' for Active; 'I' for Inactive)
REMARK    1  A    between atoms: C_1  and  C_2
REMARK    2  A    between atoms: C_2  and  C_3
REMARK    3  A    between atoms: C_4  and  C_5
REMARK    4  A    between atoms: C_5  and  C_6
REMARK    5  A    between atoms: C_7  and  C_8
REMARK    6  A    between atoms: C_8  and  C_9
REMARK    7  A    between atoms: C_10  and  C_11
REMARK    8  A    between atoms: C_11  and  C_12
REMARK    9  A    between atoms: C_13  and  C_14
REMARK   10  A    between atoms: C_14  and  C_15
REMARK   11  A    between atoms: C_16  and  C_17
REMARK   12  A    between atoms: C_17  and  C_18
REMARK   13  A    between atoms: C_18  and  C_19
REMARK   14  A    between atoms: C_19  and  C_20
REMARK   15  A    between atoms: N_22  and  C_23
REMARK   16  A    between atoms: C_24  and  C_25
REMARK   17  A    between atoms: C_25  and  C_26
REMARK   18  A    between atoms: C_30  and  C_31
REMARK   19  A    between atoms: C_31  and  C_32
REMARK                            x       y       z     vdW  Elec       q    Type
REMARK                         _______ _______ _______ _____ _____    ______ ____
ROOT
ATOM      1  C   UNL     1       7.848   5.833  18.673  0.00  0.00    +0.000 C 
ENDROOT
BRANCH   1   3
ATOM      2  C   UNL     1       8.403   8.276  18.447  0.00  0.00    +0.000 C 
ATOM      3  C   UNL     1       7.610   7.229  18.167  0.00  0.00    +0.000 C 
BRANCH   2   4
ATOM      4  C   UNL     1       8.196   9.657  17.896  0.00  0.00    +0.000 C 
BRANCH   4   6
ATOM      5  C   UNL     1       9.669  10.599  19.701  0.00  0.00    +0.000 C 
ATOM      6  C   UNL     1       9.217  10.614  18.437  0.00  0.00    +0.000 C 
BRANCH   5   7
ATOM      7  C   UNL     1      10.685  11.564  20.237  0.00  0.00    +0.000 C 
BRANCH   7   9
ATOM      8  C   UNL     1       9.505  13.168  21.771  0.00  0.00    +0.000 C 
ATOM      9  C   UNL     1      10.054  12.883  20.578  0.00  0.00    +0.000 C 
BRANCH   8  10
ATOM     10  C   UNL     1       8.847  14.477  22.102  0.00  0.00    +0.000 C 
BRANCH  10  12
ATOM     11  C   UNL     1       8.456  16.013  20.149  0.00  0.00    +0.000 C 
ATOM     12  C   UNL     1       9.248  15.551  21.132  0.00  0.00    +0.000 C 
BRANCH  11  13
ATOM     13  C   UNL     1       8.870  17.069  19.165  0.00  0.00    +0.000 C 
BRANCH  13  15
ATOM     14  C   UNL     1      10.138  15.399  17.784  0.00  0.00    +0.000 C 
ATOM     15  C   UNL     1      10.038  16.618  18.343  0.00  0.00    +0.000 C 
BRANCH  14  17
ATOM     16  C   UNL     1      11.289  13.430  16.769  0.00  0.00    +0.000 C 
ATOM     17  C   UNL     1      11.308  14.939  16.961  0.00  0.00    +0.000 C 
ENDBRANCH  14  17
ENDBRANCH  13  15
ENDBRANCH  11  13
ENDBRANCH  10  12
ENDBRANCH   8  10
ENDBRANCH   7   9
ENDBRANCH   5   7
ENDBRANCH   4   6
ENDBRANCH   2   4
ENDBRANCH   1   3
BRANCH   1  18
ATOM     18  C   UNL     1       6.906   4.814  18.023  0.00  0.00    +0.000 C 
BRANCH  18  19
ATOM     19  C   UNL     1       5.450   5.081  18.396  0.00  0.00    +0.000 C 
BRANCH  19  20
ATOM     20  C   UNL     1       4.489   4.934  17.225  0.00  0.00    +0.000 C 
ATOM     21  O   UNL     1       4.864   4.649  16.084  0.00  0.00    +0.000 OA
ATOM     22  N   UNL     1       3.144   5.085  17.486  0.00  0.00    +0.000 N 
ATOM     23  H   UNL     1       2.587   5.202  16.649  0.00  0.00    +0.000 HD
BRANCH  22  24
ATOM     24  C   UNL     1       2.648   5.604  18.694  0.00  0.00    +0.000 A 
ATOM     25  C   UNL     1       2.233   4.735  19.726  0.00  0.00    +0.000 A 
ATOM     26  C   UNL     1       1.627   5.295  20.863  0.00  0.00    +0.000 A 
ATOM     27  C   UNL     1       1.511   6.676  21.007  0.00  0.00    +0.000 A 
ATOM     28  C   UNL     1       1.977   7.526  20.006  0.00  0.00    +0.000 A 
ATOM     29  C   UNL     1       2.525   7.006  18.824  0.00  0.00    +0.000 A 
BRANCH  29  30
ATOM     30  C   UNL     1       2.962   7.979  17.749  0.00  0.00    +0.000 C 
ATOM     31  C   UNL     1       2.186   9.286  17.762  0.00  0.00    +0.000 C 
ENDBRANCH  29  30
BRANCH  25  32
ATOM     32  C   UNL     1       2.382   3.229  19.669  0.00  0.00    +0.000 C 
ATOM     33  C   UNL     1       1.762   2.481  20.847  0.00  0.00    +0.000 C 
ENDBRANCH  25  32
ENDBRANCH  22  24
ENDBRANCH  19  20
ENDBRANCH  18  19
ENDBRANCH   1  18
TORSDOF 16
ENDMDL
MODEL 2
REMARK VINA RESULT:      -6.9      5.898     10.311
REMARK  Name = 
REMARK  19 active torsions:
REMARK  status: ('A' for Active; 'I' for Inactive)
REMARK    1  A    between atoms: C_1  and  C_2
REMARK    2  A    between atoms: C_2  and  C_3
REMARK    3  A    between atoms: C_4  and  C_5
REMARK    4  A    between atoms: C_5  and  C_6
REMARK    5  A    between atoms: C_7  and  C_8
REMARK    6  A    between atoms: C_8  and  C_9
REMARK    7  A    between atoms: C_10  and  C_11
REMARK    8  A    between atoms: C_11  and  C_12
REMARK    9  A    between atoms: C_13  and  C_14
REMARK   10  A    between atoms: C_14  and  C_15
REMARK   11  A    between atoms: C_16  and  C_17
REMARK   12  A    between atoms: C_17  and  C_18
REMARK   13  A    between atoms: C_18  and  C_19
REMARK   14  A    between atoms: C_19  and  C_20
REMARK   15  A    between atoms: N_22  and  C_23
REMARK   16  A    between atoms: C_24  and  C_25
REMARK   17  A    between atoms: C_25  and  C_26
REMARK   18  A    between atoms: C_30  and  C_31
REMARK   19  A    between atoms: C_31  and  C_32
REMARK                            x       y       z     vdW  Elec       q    Type
REMARK                         _______ _______ _______ _____ _____    ______ ____
ROOT
ATOM      1  C   UNL     1      -0.966  10.171  23.098  0.00  0.00    +0.000 C 
ENDROOT
BRANCH   1   3
ATOM      2  C   UNL     1       0.538   8.773  21.644  0.00  0.00    +0.000 C 
ATOM      3  C   UNL     1       0.374   9.702  22.600  0.00  0.00    +0.000 C 
BRANCH   2   4
ATOM      4  C   UNL     1       1.874   8.346  21.108  0.00  0.00    +0.000 C 
BRANCH   4   6
ATOM      5  C   UNL     1       2.533   6.916  19.150  0.00  0.00    +0.000 C 
ATOM      6  C   UNL     1       1.740   7.154  20.208  0.00  0.00    +0.000 C 
BRANCH   5   7
ATOM      7  C   UNL     1       2.389   5.724  18.250  0.00  0.00    +0.000 C 
BRANCH   7   9
ATOM      8  C   UNL     1       4.799   5.360  17.637  0.00  0.00    +0.000 C 
ATOM      9  C   UNL     1       3.659   4.925  18.199  0.00  0.00    +0.000 C 
BRANCH   8  10
ATOM     10  C   UNL     1       6.061   4.549  17.560  0.00  0.00    +0.000 C 
BRANCH  10  12
ATOM     11  C   UNL     1       6.268   4.848  15.071  0.00  0.00    +0.000 C 
ATOM     12  C   UNL     1       6.314   4.063  16.162  0.00  0.00    +0.000 C 
BRANCH  11  13
ATOM     13  C   UNL     1       6.497   4.353  13.672  0.00  0.00    +0.000 C 
BRANCH  13  15
ATOM     14  C   UNL     1       5.089   3.501  11.775  0.00  0.00    +0.000 C 
ATOM     15  C   UNL     1       5.237   3.800  13.078  0.00  0.00    +0.000 C 
BRANCH  14  17
ATOM     16  C   UNL     1       3.231   3.917  10.161  0.00  0.00    +0.000 C 
ATOM     17  C   UNL     1       3.828   2.950  11.172  0.00  0.00    +0.000 C 
ENDBRANCH  14  17
ENDBRANCH  13  15
ENDBRANCH  11  13
ENDBRANCH  10  12
ENDBRANCH   8  10
ENDBRANCH   7   9
ENDBRANCH   5   7
ENDBRANCH   4   6
ENDBRANCH   2   4
ENDBRANCH   1   3
BRANCH   1  18
ATOM     18  C   UNL     1      -1.540  11.300  22.236  0.00  0.00    +0.000 C 
BRANCH  18  19
ATOM     19  C   UNL     1      -0.562  12.466  22.116  0.00  0.00    +0.000 C 
BRANCH  19  20
ATOM     20  C   UNL     1      -1.047  13.569  21.187  0.00  0.00    +0.000 C 
ATOM     21  O   UNL     1      -1.579  14.604  21.598  0.00  0.00    +0.000 OA
ATOM     22  N   UNL     1      -0.827  13.402  19.836  0.00  0.00    +0.000 N 
ATOM     23  H   UNL     1      -1.363  14.043  19.264  0.00  0.00    +0.000 HD
BRANCH  22  24
ATOM     24  C   UNL     1      -0.418  12.183  19.268  0.00  0.00    +0.000 A 
ATOM     25  C   UNL     1       0.949  11.835  19.239  0.00  0.00    +0.000 A 
ATOM     26  C   UNL     1       1.323  10.669  18.549  0.00  0.00    +0.000 A 
ATOM     27  C   UNL     1       0.364   9.835  17.978  0.00  0.00    +0.000 A 
ATOM     28  C   UNL     1      -0.988  10.162  18.064  0.00  0.00    +0.000 A 
ATOM     29  C   UNL     1      -1.399  11.351  18.682  0.00  0.00    +0.000 A 
BRANCH  29  30
ATOM     30  C   UNL     1      -2.878  11.679  18.694  0.00  0.00    +0.000 C 
ATOM     31  C   UNL     1      -3.737  10.628  18.009  0.00  0.00    +0.000 C 
ENDBRANCH  29  30
BRANCH  25  32
ATOM     32  C   UNL     1       2.042  12.656  19.890  0.00  0.00    +0.000 C 
ATOM     33  C   UNL     1       2.764  13.618  18.950  0.00  0.00    +0.000 C 
ENDBRANCH  25  32
ENDBRANCH  22  24
ENDBRANCH  19  20
ENDBRANCH  18  19
ENDBRANCH   1  18
TORSDOF 16
ENDMDL
MODEL 3
REMARK VINA RESULT:      -6.6      2.381      4.130
REMARK  Name = 
REMARK  19 active torsions:
REMARK  status: ('A' for Active; 'I' for Inactive)
REMARK    1  A    between atoms: C_1  and  C_2
REMARK    2  A    between atoms: C_2  and  C_3
REMARK    3  A    between atoms: C_4  and  C_5
REMARK    4  A    between atoms: C_5  and  C_6
REMARK    5  A    between atoms: C_7  and  C_8
REMARK    6  A    between atoms: C_8  and  C_9
REMARK    7  A    between atoms: C_10  and  C_11
REMARK    8  A    between atoms: C_11  and  C_12
REMARK    9  A    between atoms: C_13  and  C_14
REMARK   10  A    between atoms: C_14  and  C_15
REMARK   11  A    between atoms: C_16  and  C_17
REMARK   12  A    between atoms: C_17  and  C_18
REMARK   13  A    between atoms: C_18  and  C_19
REMARK   14  A    between atoms: C_19  and  C_20
REMARK   15  A    between atoms: N_22  and  C_23
REMARK   16  A    between atoms: C_24  and  C_25
REMARK   17  A    between atoms: C_25  and  C_26
REMARK   18  A    between atoms: C_30  and  C_31
REMARK   19  A    between atoms: C_31  and  C_32
REMARK                            x       y       z     vdW  Elec       q    Type
REMARK                         _______ _______ _______ _____ _____    ______ ____
ROOT
ATOM      1  C   UNL     1       6.964   6.943  17.731  0.00  0.00    +0.000 C 
ENDROOT
BRANCH   1   3
ATOM      2  C   UNL     1       8.073   9.195  17.889  0.00  0.00    +0.000 C 
ATOM      3  C   UNL     1       8.142   7.856  17.938  0.00  0.00    +0.000 C 
BRANCH   2   4
ATOM      4  C   UNL     1       9.237  10.107  18.151  0.00  0.00    +0.000 C 
BRANCH   4   6
ATOM      5  C   UNL     1      10.048  11.583  20.016  0.00  0.00    +0.000 C 
ATOM      6  C   UNL     1       9.159  10.704  19.525  0.00  0.00    +0.000 C 
BRANCH   5   7
ATOM      7  C   UNL     1       9.968  12.170  21.394  0.00  0.00    +0.000 C 
BRANCH   7   9
ATOM      8  C   UNL     1       8.382  12.097  23.343  0.00  0.00    +0.000 C 
ATOM      9  C   UNL     1       8.672  11.811  22.063  0.00  0.00    +0.000 C 
BRANCH   8  10
ATOM     10  C   UNL     1       7.098  11.712  24.020  0.00  0.00    +0.000 C 
BRANCH  10  12
ATOM     11  C   UNL     1       5.885  13.817  23.368  0.00  0.00    +0.000 C 
ATOM     12  C   UNL     1       5.933  12.477  23.459  0.00  0.00    +0.000 C 
BRANCH  11  13
ATOM     13  C   UNL     1       4.709  14.579  22.830  0.00  0.00    +0.000 C 
BRANCH  13  15
ATOM     14  C   UNL     1       3.504  14.479  20.629  0.00  0.00    +0.000 C 
ATOM     15  C   UNL     1       4.649  14.502  21.335  0.00  0.00    +0.000 C 
BRANCH  14  17
ATOM     16  C   UNL     1       3.169  15.765  18.516  0.00  0.00    +0.000 C 
ATOM     17  C   UNL     1       3.437  14.399  19.130  0.00  0.00    +0.000 C 
ENDBRANCH  14  17
ENDBRANCH  13  15
ENDBRANCH  11  13
ENDBRANCH  10  12
ENDBRANCH   8  10
ENDBRANCH   7   9
ENDBRANCH   5   7
ENDBRANCH   4   6
ENDBRANCH   2   4
ENDBRANCH   1   3
BRANCH   1  18
ATOM     18  C   UNL     1       7.171   5.574  18.387  0.00  0.00    +0.000 C 
BRANCH  18  19
ATOM     19  C   UNL     1       5.849   4.829  18.556  0.00  0.00    +0.000 C 
BRANCH  19  20
ATOM     20  C   UNL     1       5.084   4.650  17.252  0.00  0.00    +0.000 C 
ATOM     21  O   UNL     1       5.643   4.428  16.175  0.00  0.00    +0.000 OA
ATOM     22  N   UNL     1       3.707   4.695  17.313  0.00  0.00    +0.000 N 
ATOM     23  H   UNL     1       3.272   4.799  16.405  0.00  0.00    +0.000 HD
BRANCH  22  24
ATOM     24  C   UNL     1       3.002   5.140  18.445  0.00  0.00    +0.000 A 
ATOM     25  C   UNL     1       2.811   6.521  18.667  0.00  0.00    +0.000 A 
ATOM     26  C   UNL     1       2.212   6.923  19.873  0.00  0.00    +0.000 A 
ATOM     27  C   UNL     1       1.745   5.984  20.790  0.00  0.00    +0.000 A 
ATOM     28  C   UNL     1       1.888   4.623  20.532  0.00  0.00    +0.000 A 
ATOM     29  C   UNL     1       2.543   4.179  19.373  0.00  0.00    +0.000 A 
BRANCH  29  30
ATOM     30  C   UNL     1       2.717   2.688  19.176  0.00  0.00    +0.000 C 
ATOM     31  C   UNL     1       1.436   1.975  18.772  0.00  0.00    +0.000 C 
ENDBRANCH  29  30
BRANCH  25  32
ATOM     32  C   UNL     1       3.234   7.598  17.690  0.00  0.00    +0.000 C 
ATOM     33  C   UNL     1       2.374   8.859  17.716  0.00  0.00    +0.000 C 
ENDBRANCH  25  32
ENDBRANCH  22  24
ENDBRANCH  19  20
ENDBRANCH  18  19
ENDBRANCH   1  18
TORSDOF 16
ENDMDL
MODEL 4
REMARK VINA RESULT:      -6.4      5.117      9.301
REMARK  Name = 
REMARK  19 active torsions:
REMARK  status: ('A' for Active; 'I' for Inactive)
REMARK    1  A    between atoms: C_1  and  C_2
REMARK    2  A    between atoms: C_2  and  C_3
REMARK    3  A    between atoms: C_4  and  C_5
REMARK    4  A    between atoms: C_5  and  C_6
REMARK    5  A    between atoms: C_7  and  C_8
REMARK    6  A    between atoms: C_8  and  C_9
REMARK    7  A    between atoms: C_10  and  C_11
REMARK    8  A    between atoms: C_11  and  C_12
REMARK    9  A    between atoms: C_13  and  C_14
REMARK   10  A    between atoms: C_14  and  C_15
REMARK   11  A    between atoms: C_16  and  C_17
REMARK   12  A    between atoms: C_17  and  C_18
REMARK   13  A    between atoms: C_18  and  C_19
REMARK   14  A    between atoms: C_19  and  C_20
REMARK   15  A    between atoms: N_22  and  C_23
REMARK   16  A    between atoms: C_24  and  C_25
REMARK   17  A    between atoms: C_25  and  C_26
REMARK   18  A    between atoms: C_30  and  C_31
REMARK   19  A    between atoms: C_31  and  C_32
REMARK                            x       y       z     vdW  Elec       q    Type
REMARK                         _______ _______ _______ _____ _____    ______ ____
ROOT
ATOM      1  C   UNL     1      -0.045   9.842  18.876  0.00  0.00    +0.000 C 
ENDROOT
BRANCH   1   3
ATOM      2  C   UNL     1       1.806   8.360  18.038  0.00  0.00    +0.000 C 
ATOM      3  C   UNL     1       1.397   9.488  18.639  0.00  0.00    +0.000 C 
BRANCH   2   4
ATOM      4  C   UNL     1       3.243   8.033  17.751  0.00  0.00    +0.000 C 
BRANCH   4   6
ATOM      5  C   UNL     1       2.507   5.631  17.792  0.00  0.00    +0.000 C 
ATOM      6  C   UNL     1       3.483   6.553  17.800  0.00  0.00    +0.000 C 
BRANCH   5   7
ATOM      7  C   UNL     1       2.754   4.152  17.848  0.00  0.00    +0.000 C 
BRANCH   7   9
ATOM      8  C   UNL     1       4.722   4.149  16.283  0.00  0.00    +0.000 C 
ATOM      9  C   UNL     1       4.168   3.823  17.463  0.00  0.00    +0.000 C 
BRANCH   8  10
ATOM     10  C   UNL     1       6.126   3.794  15.887  0.00  0.00    +0.000 C 
BRANCH  10  12
ATOM     11  C   UNL     1       6.811   5.475  17.628  0.00  0.00    +0.000 C 
ATOM     12  C   UNL     1       7.132   4.585  16.673  0.00  0.00    +0.000 C 
BRANCH  11  13
ATOM     13  C   UNL     1       7.819   6.282  18.394  0.00  0.00    +0.000 C 
BRANCH  13  15
ATOM     14  C   UNL     1       8.561   8.679  18.515  0.00  0.00    +0.000 C 
ATOM     15  C   UNL     1       7.852   7.703  17.919  0.00  0.00    +0.000 C 
BRANCH  14  17
ATOM     16  C   UNL     1       9.625  10.915  18.820  0.00  0.00    +0.000 C 
ATOM     17  C   UNL     1       8.596  10.106  18.046  0.00  0.00    +0.000 C 
ENDBRANCH  14  17
ENDBRANCH  13  15
ENDBRANCH  11  13
ENDBRANCH  10  12
ENDBRANCH   8  10
ENDBRANCH   7   9
ENDBRANCH   5   7
ENDBRANCH   4   6
ENDBRANCH   2   4
ENDBRANCH   1   3
BRANCH   1  18
ATOM     18  C   UNL     1      -0.327  10.170  20.346  0.00  0.00    +0.000 C 
BRANCH  18  19
ATOM     19  C   UNL     1      -1.475  11.167  20.487  0.00  0.00    +0.000 C 
BRANCH  19  20
ATOM     20  C   UNL     1      -1.306  12.409  19.625  0.00  0.00    +0.000 C 
ATOM     21  O   UNL     1      -0.297  13.118  19.663  0.00  0.00    +0.000 OA
ATOM     22  N   UNL     1      -2.320  12.708  18.739  0.00  0.00    +0.000 N 
ATOM     23  H   UNL     1      -2.260  13.649  18.369  0.00  0.00    +0.000 HD
BRANCH  22  24
ATOM     24  C   UNL     1      -3.579  12.085  18.772  0.00  0.00    +0.000 A 
ATOM     25  C   UNL     1      -4.569  12.526  19.677  0.00  0.00    +0.000 A 
ATOM     26  C   UNL     1      -5.765  11.793  19.762  0.00  0.00    +0.000 A 
ATOM     27  C   UNL     1      -6.002  10.708  18.921  0.00  0.00    +0.000 A 
ATOM     28  C   UNL     1      -5.040  10.318  17.993  0.00  0.00    +0.000 A 
ATOM     29  C   UNL     1      -3.805  10.978  17.922  0.00  0.00    +0.000 A 
BRANCH  29  30
ATOM     30  C   UNL     1      -2.778  10.472  16.931  0.00  0.00    +0.000 C 
ATOM     31  C   UNL     1      -2.982  11.004  15.521  0.00  0.00    +0.000 C 
ENDBRANCH  29  30
BRANCH  25  32
ATOM     32  C   UNL     1      -4.409  13.732  20.577  0.00  0.00    +0.000 C 
ATOM     33  C   UNL     1      -4.233  13.405  22.058  0.00  0.00    +0.000 C 
ENDBRANCH  25  32
ENDBRANCH  22  24
ENDBRANCH  19  20
ENDBRANCH  18  19
ENDBRANCH   1  18
TORSDOF 16
ENDMDL
MODEL 5
REMARK VINA RESULT:      -6.3      5.676      8.956
REMARK  Name = 
REMARK  19 active torsions:
REMARK  status: ('A' for Active; 'I' for Inactive)
REMARK    1  A    between atoms: C_1  and  C_2
REMARK    2  A    between atoms: C_2  and  C_3
REMARK    3  A    between atoms: C_4  and  C_5
REMARK    4  A    between atoms: C_5  and  C_6
REMARK    5  A    between atoms: C_7  and  C_8
REMARK    6  A    between atoms: C_8  and  C_9
REMARK    7  A    between atoms: C_10  and  C_11
REMARK    8  A    between atoms: C_11  and  C_12
REMARK    9  A    between atoms: C_13  and  C_14
REMARK   10  A    between atoms: C_14  and  C_15
REMARK   11  A    between atoms: C_16  and  C_17
REMARK   12  A    between atoms: C_17  and  C_18
REMARK   13  A    between atoms: C_18  and  C_19
REMARK   14  A    between atoms: C_19  and  C_20
REMARK   15  A    between atoms: N_22  and  C_23
REMARK   16  A    between atoms: C_24  and  C_25
REMARK   17  A    between atoms: C_25  and  C_26
REMARK   18  A    between atoms: C_30  and  C_31
REMARK   19  A    between atoms: C_31  and  C_32
REMARK                            x       y       z     vdW  Elec       q    Type
REMARK                         _______ _______ _______ _____ _____    ______ ____
ROOT
ATOM      1  C   UNL     1       1.939   7.759  21.036  0.00  0.00    +0.000 C 
ENDROOT
BRANCH   1   3
ATOM      2  C   UNL     1       0.107   8.901  22.328  0.00  0.00    +0.000 C 
ATOM      3  C   UNL     1       1.391   8.827  21.943  0.00  0.00    +0.000 C 
BRANCH   2   4
ATOM      4  C   UNL     1      -0.428   9.933  23.278  0.00  0.00    +0.000 C 
BRANCH   4   6
ATOM      5  C   UNL     1      -1.906  11.962  23.161  0.00  0.00    +0.000 C 
ATOM      6  C   UNL     1      -1.347  10.890  22.577  0.00  0.00    +0.000 C 
BRANCH   5   7
ATOM      7  C   UNL     1      -2.831  12.910  22.456  0.00  0.00    +0.000 C 
BRANCH   7   9
ATOM      8  C   UNL     1      -4.180  12.947  20.335  0.00  0.00    +0.000 C 
ATOM      9  C   UNL     1      -3.371  12.303  21.194  0.00  0.00    +0.000 C 
BRANCH   8  10
ATOM     10  C   UNL     1      -4.745  12.330  19.088  0.00  0.00    +0.000 C 
BRANCH  10  12
ATOM     11  C   UNL     1      -3.121  10.577  18.304  0.00  0.00    +0.000 C 
ATOM     12  C   UNL     1      -3.656  11.806  18.197  0.00  0.00    +0.000 C 
BRANCH  11  13
ATOM     13  C   UNL     1      -2.015  10.065  17.427  0.00  0.00    +0.000 C 
BRANCH  13  15
ATOM     14  C   UNL     1      -0.396  10.888  19.163  0.00  0.00    +0.000 C 
ATOM     15  C   UNL     1      -0.680  10.567  17.887  0.00  0.00    +0.000 C 
BRANCH  14  17
ATOM     16  C   UNL     1       1.688  12.093  18.505  0.00  0.00    +0.000 C 
ATOM     17  C   UNL     1       0.939  11.394  19.630  0.00  0.00    +0.000 C 
ENDBRANCH  14  17
ENDBRANCH  13  15
ENDBRANCH  11  13
ENDBRANCH  10  12
ENDBRANCH   8  10
ENDBRANCH   7   9
ENDBRANCH   5   7
ENDBRANCH   4   6
ENDBRANCH   2   4
ENDBRANCH   1   3
BRANCH   1  18
ATOM     18  C   UNL     1       1.167   6.442  21.161  0.00  0.00    +0.000 C 
BRANCH  18  19
ATOM     19  C   UNL     1       2.024   5.249  20.745  0.00  0.00    +0.000 C 
BRANCH  19  20
ATOM     20  C   UNL     1       1.365   4.367  19.695  0.00  0.00    +0.000 C 
ATOM     21  O   UNL     1       0.336   3.723  19.913  0.00  0.00    +0.000 OA
ATOM     22  N   UNL     1       1.936   4.342  18.440  0.00  0.00    +0.000 N 
ATOM     23  H   UNL     1       1.599   3.579  17.865  0.00  0.00    +0.000 HD
BRANCH  22  24
ATOM     24  C   UNL     1       3.207   4.874  18.161  0.00  0.00    +0.000 A 
ATOM     25  C   UNL     1       4.362   4.078  18.316  0.00  0.00    +0.000 A 
ATOM     26  C   UNL     1       5.617   4.688  18.150  0.00  0.00    +0.000 A 
ATOM     27  C   UNL     1       5.719   6.023  17.763  0.00  0.00    +0.000 A 
ATOM     28  C   UNL     1       4.570   6.782  17.558  0.00  0.00    +0.000 A 
ATOM     29  C   UNL     1       3.299   6.232  17.781  0.00  0.00    +0.000 A 
BRANCH  29  30
ATOM     30  C   UNL     1       2.089   7.124  17.595  0.00  0.00    +0.000 C 
ATOM     31  C   UNL     1       2.414   8.608  17.666  0.00  0.00    +0.000 C 
ENDBRANCH  29  30
BRANCH  25  32
ATOM     32  C   UNL     1       4.329   2.607  18.672  0.00  0.00    +0.000 C 
ATOM     33  C   UNL     1       4.421   2.309  20.167  0.00  0.00    +0.000 C 
ENDBRANCH  25  32
ENDBRANCH  22  24
ENDBRANCH  19  20
ENDBRANCH  18  19
ENDBRANCH   1  18
TORSDOF 16
ENDMDL
MODEL 6
REMARK VINA RESULT:      -6.3      3.047      5.179
REMARK  Name = 
REMARK  19 active torsions:
REMARK  status: ('A' for Active; 'I' for Inactive)
REMARK    1  A    between atoms: C_1  and  C_2
REMARK    2  A    between atoms: C_2  and  C_3
REMARK    3  A    between atoms: C_4  and  C_5
REMARK    4  A    between atoms: C_5  and  C_6
REMARK    5  A    between atoms: C_7  and  C_8
REMARK    6  A    between atoms: C_8  and  C_9
REMARK    7  A    between atoms: C_10  and  C_11
REMARK    8  A    between atoms: C_11  and  C_12
REMARK    9  A    between atoms: C_13  and  C_14
REMARK   10  A    between atoms: C_14  and  C_15
REMARK   11  A    between atoms: C_16  and  C_17
REMARK   12  A    between atoms: C_17  and  C_18
REMARK   13  A    between atoms: C_18  and  C_19
REMARK   14  A    between atoms: C_19  and  C_20
REMARK   15  A    between atoms: N_22  and  C_23
REMARK   16  A    between atoms: C_24  and  C_25
REMARK   17  A    between atoms: C_25  and  C_26
REMARK   18  A    between atoms: C_30  and  C_31
REMARK   19  A    between atoms: C_31  and  C_32
REMARK                            x       y       z     vdW  Elec       q    Type
REMARK                         _______ _______ _______ _____ _____    ______ ____
ROOT
ATOM      1  C   UNL     1       7.280   8.570  17.885  0.00  0.00    +0.000 C 
ENDROOT
BRANCH   1   3
ATOM      2  C   UNL     1       8.715  10.618  18.162  0.00  0.00    +0.000 C 
ATOM      3  C   UNL     1       8.549   9.288  18.254  0.00  0.00    +0.000 C 
BRANCH   2   4
ATOM      4  C   UNL     1       9.962  11.340  18.583  0.00  0.00    +0.000 C 
BRANCH   4   6
ATOM      5  C   UNL     1       8.816  13.565  18.364  0.00  0.00    +0.000 C 
ATOM      6  C   UNL     1       9.656  12.744  19.014  0.00  0.00    +0.000 C 
BRANCH   5   7
ATOM      7  C   UNL     1       8.520  14.971  18.798  0.00  0.00    +0.000 C 
BRANCH   7   9
ATOM      8  C   UNL     1       6.224  14.882  17.777  0.00  0.00    +0.000 C 
ATOM      9  C   UNL     1       7.044  15.246  18.778  0.00  0.00    +0.000 C 
BRANCH   8  10
ATOM     10  C   UNL     1       4.754  15.183  17.744  0.00  0.00    +0.000 C 
BRANCH  10  12
ATOM     11  C   UNL     1       2.705  13.758  18.057  0.00  0.00    +0.000 C 
ATOM     12  C   UNL     1       3.958  14.098  18.409  0.00  0.00    +0.000 C 
BRANCH  11  13
ATOM     13  C   UNL     1       1.903  12.689  18.741  0.00  0.00    +0.000 C 
BRANCH  13  15
ATOM     14  C   UNL     1       0.262  14.505  19.302  0.00  0.00    +0.000 C 
ATOM     15  C   UNL     1       0.764  13.276  19.518  0.00  0.00    +0.000 C 
BRANCH  14  17
ATOM     16  C   UNL     1      -0.575  15.127  21.569  0.00  0.00    +0.000 C 
ATOM     17  C   UNL     1      -0.878  15.101  20.078  0.00  0.00    +0.000 C 
ENDBRANCH  14  17
ENDBRANCH  13  15
ENDBRANCH  11  13
ENDBRANCH  10  12
ENDBRANCH   8  10
ENDBRANCH   7   9
ENDBRANCH   5   7
ENDBRANCH   4   6
ENDBRANCH   2   4
ENDBRANCH   1   3
BRANCH   1  18
ATOM     18  C   UNL     1       7.540   7.125  17.447  0.00  0.00    +0.000 C 
BRANCH  18  19
ATOM     19  C   UNL     1       6.342   6.226  17.744  0.00  0.00    +0.000 C 
BRANCH  19  20
ATOM     20  C   UNL     1       5.470   5.959  16.526  0.00  0.00    +0.000 C 
ATOM     21  O   UNL     1       5.876   6.098  15.369  0.00  0.00    +0.000 OA
ATOM     22  N   UNL     1       4.190   5.497  16.751  0.00  0.00    +0.000 N 
ATOM     23  H   UNL     1       3.596   5.557  15.934  0.00  0.00    +0.000 HD
BRANCH  22  24
ATOM     24  C   UNL     1       3.582   5.503  18.019  0.00  0.00    +0.000 A 
ATOM     25  C   UNL     1       3.554   4.328  18.800  0.00  0.00    +0.000 A 
ATOM     26  C   UNL     1       2.826   4.347  20.002  0.00  0.00    +0.000 A 
ATOM     27  C   UNL     1       2.216   5.516  20.452  0.00  0.00    +0.000 A 
ATOM     28  C   UNL     1       2.300   6.684  19.699  0.00  0.00    +0.000 A 
ATOM     29  C   UNL     1       2.957   6.691  18.460  0.00  0.00    +0.000 A 
BRANCH  29  30
ATOM     30  C   UNL     1       2.966   7.978  17.661  0.00  0.00    +0.000 C 
ATOM     31  C   UNL     1       1.805   8.903  17.988  0.00  0.00    +0.000 C 
ENDBRANCH  29  30
BRANCH  25  32
ATOM     32  C   UNL     1       4.245   3.039  18.409  0.00  0.00    +0.000 C 
ATOM     33  C   UNL     1       3.316   1.838  18.252  0.00  0.00    +0.000 C 
ENDBRANCH  25  32
ENDBRANCH  22  24
ENDBRANCH  19  20
ENDBRANCH  18  19
ENDBRANCH   1  18
TORSDOF 16
ENDMDL
MODEL 7
REMARK VINA RESULT:      -6.3      2.282      4.259
REMARK  Name = 
REMARK  19 active torsions:
REMARK  status: ('A' for Active; 'I' for Inactive)
REMARK    1  A    between atoms: C_1  and  C_2
REMARK    2  A    between atoms: C_2  and  C_3
REMARK    3  A    between atoms: C_4  and  C_5
REMARK    4  A    between atoms: C_5  and  C_6
REMARK    5  A    between atoms: C_7  and  C_8
REMARK    6  A    between atoms: C_8  and  C_9
REMARK    7  A    between atoms: C_10  and  C_11
REMARK    8  A    between atoms: C_11  and  C_12
REMARK    9  A    between atoms: C_13  and  C_14
REMARK   10  A    between atoms: C_14  and  C_15
REMARK   11  A    between atoms: C_16  and  C_17
REMARK   12  A    between atoms: C_17  and  C_18
REMARK   13  A    between atoms: C_18  and  C_19
REMARK   14  A    between atoms: C_19  and  C_20
REMARK   15  A    between atoms: N_22  and  C_23
REMARK   16  A    between atoms: C_24  and  C_25
REMARK   17  A    between atoms: C_25  and  C_26
REMARK   18  A    between atoms: C_30  and  C_31
REMARK   19  A    between atoms: C_31  and  C_32
REMARK                            x       y       z     vdW  Elec       q    Type
REMARK                         _______ _______ _______ _____ _____    ______ ____
ROOT
ATOM      1  C   UNL     1       7.532   6.687  18.061  0.00  0.00    +0.000 C 
ENDROOT
BRANCH   1   3
ATOM      2  C   UNL     1       8.490   8.978  18.467  0.00  0.00    +0.000 C 
ATOM      3  C   UNL     1       7.918   8.081  17.647  0.00  0.00    +0.000 C 
BRANCH   2   4
ATOM      4  C   UNL     1       8.925  10.349  18.039  0.00  0.00    +0.000 C 
BRANCH   4   6
ATOM      5  C   UNL     1       9.411  12.114  19.760  0.00  0.00    +0.000 C 
ATOM      6  C   UNL     1       9.768  11.004  19.093  0.00  0.00    +0.000 C 
BRANCH   5   7
ATOM      7  C   UNL     1      10.262  12.768  20.809  0.00  0.00    +0.000 C 
BRANCH   7   9
ATOM      8  C   UNL     1       8.083  13.292  21.948  0.00  0.00    +0.000 C 
ATOM      9  C   UNL     1       9.427  13.267  21.952  0.00  0.00    +0.000 C 
BRANCH   8  10
ATOM     10  C   UNL     1       7.249  13.819  23.080  0.00  0.00    +0.000 C 
BRANCH  10  12
ATOM     11  C   UNL     1       4.859  14.038  22.326  0.00  0.00    +0.000 C 
ATOM     12  C   UNL     1       6.062  14.586  22.573  0.00  0.00    +0.000 C 
BRANCH  11  13
ATOM     13  C   UNL     1       3.682  14.804  21.795  0.00  0.00    +0.000 C 
BRANCH  13  15
ATOM     14  C   UNL     1       3.356  14.106  19.405  0.00  0.00    +0.000 C 
ATOM     15  C   UNL     1       2.993  14.051  20.699  0.00  0.00    +0.000 C 
BRANCH  14  17
ATOM     16  C   UNL     1       1.499  12.540  18.834  0.00  0.00    +0.000 C 
ATOM     17  C   UNL     1       2.668  13.355  18.301  0.00  0.00    +0.000 C 
ENDBRANCH  14  17
ENDBRANCH  13  15
ENDBRANCH  11  13
ENDBRANCH  10  12
ENDBRANCH   8  10
ENDBRANCH   7   9
ENDBRANCH   5   7
ENDBRANCH   4   6
ENDBRANCH   2   4
ENDBRANCH   1   3
BRANCH   1  18
ATOM     18  C   UNL     1       6.016   6.471  18.021  0.00  0.00    +0.000 C 
BRANCH  18  19
ATOM     19  C   UNL     1       5.665   4.987  17.937  0.00  0.00    +0.000 C 
BRANCH  19  20
ATOM     20  C   UNL     1       4.707   4.655  16.802  0.00  0.00    +0.000 C 
ATOM     21  O   UNL     1       5.079   4.510  15.635  0.00  0.00    +0.000 OA
ATOM     22  N   UNL     1       3.380   4.469  17.127  0.00  0.00    +0.000 N 
ATOM     23  H   UNL     1       2.768   4.479  16.320  0.00  0.00    +0.000 HD
BRANCH  22  24
ATOM     24  C   UNL     1       2.839   4.810  18.378  0.00  0.00    +0.000 A 
ATOM     25  C   UNL     1       2.450   6.141  18.646  0.00  0.00    +0.000 A 
ATOM     26  C   UNL     1       2.034   6.461  19.950  0.00  0.00    +0.000 A 
ATOM     27  C   UNL     1       1.929   5.477  20.931  0.00  0.00    +0.000 A 
ATOM     28  C   UNL     1       2.261   4.157  20.637  0.00  0.00    +0.000 A 
ATOM     29  C   UNL     1       2.748   3.806  19.369  0.00  0.00    +0.000 A 
BRANCH  29  30
ATOM     30  C   UNL     1       3.145   2.365  19.127  0.00  0.00    +0.000 C 
ATOM     31  C   UNL     1       4.409   1.953  19.863  0.00  0.00    +0.000 C 
ENDBRANCH  29  30
BRANCH  25  32
ATOM     32  C   UNL     1       2.477   7.250  17.617  0.00  0.00    +0.000 C 
ATOM     33  C   UNL     1       2.105   8.630  18.153  0.00  0.00    +0.000 C 
ENDBRANCH  25  32
ENDBRANCH  22  24
ENDBRANCH  19  20
ENDBRANCH  18  19
ENDBRANCH   1  18
TORSDOF 16
ENDMDL
MODEL 8
REMARK VINA RESULT:      -6.2      4.133      9.129
REMARK  Name = 
REMARK  19 active torsions:
REMARK  status: ('A' for Active; 'I' for Inactive)
REMARK    1  A    between atoms: C_1  and  C_2
REMARK    2  A    between atoms: C_2  and  C_3
REMARK    3  A    between atoms: C_4  and  C_5
REMARK    4  A    between atoms: C_5  and  C_6
REMARK    5  A    between atoms: C_7  and  C_8
REMARK    6  A    between atoms: C_8  and  C_9
REMARK    7  A    between atoms: C_10  and  C_11
REMARK    8  A    between atoms: C_11  and  C_12
REMARK    9  A    between atoms: C_13  and  C_14
REMARK   10  A    between atoms: C_14  and  C_15
REMARK   11  A    between atoms: C_16  and  C_17
REMARK   12  A    between atoms: C_17  and  C_18
REMARK   13  A    between atoms: C_18  and  C_19
REMARK   14  A    between atoms: C_19  and  C_20
REMARK   15  A    between atoms: N_22  and  C_23
REMARK   16  A    between atoms: C_24  and  C_25
REMARK   17  A    between atoms: C_25  and  C_26
REMARK   18  A    between atoms: C_30  and  C_31
REMARK   19  A    between atoms: C_31  and  C_32
REMARK                            x       y       z     vdW  Elec       q    Type
REMARK                         _______ _______ _______ _____ _____    ______ ____
ROOT
ATOM      1  C   UNL     1       1.368   8.780  21.113  0.00  0.00    +0.000 C 
ENDROOT
BRANCH   1   3
ATOM      2  C   UNL     1       2.163   6.395  21.031  0.00  0.00    +0.000 C 
ATOM      3  C   UNL     1       1.314   7.356  20.632  0.00  0.00    +0.000 C 
BRANCH   2   4
ATOM      4  C   UNL     1       2.074   4.961  20.593  0.00  0.00    +0.000 C 
BRANCH   4   6
ATOM      5  C   UNL     1       2.066   3.890  18.321  0.00  0.00    +0.000 C 
ATOM      6  C   UNL     1       2.557   4.794  19.183  0.00  0.00    +0.000 C 
BRANCH   5   7
ATOM      7  C   UNL     1       2.560   3.724  16.913  0.00  0.00    +0.000 C 
BRANCH   7   9
ATOM      8  C   UNL     1       4.831   4.111  15.908  0.00  0.00    +0.000 C 
ATOM      9  C   UNL     1       4.055   3.592  16.874  0.00  0.00    +0.000 C 
BRANCH   8  10
ATOM     10  C   UNL     1       6.324   3.954  15.853  0.00  0.00    +0.000 C 
BRANCH  10  12
ATOM     11  C   UNL     1       7.146   4.922  18.024  0.00  0.00    +0.000 C 
ATOM     12  C   UNL     1       7.014   4.994  16.688  0.00  0.00    +0.000 C 
BRANCH  11  13
ATOM     13  C   UNL     1       7.815   5.977  18.858  0.00  0.00    +0.000 C 
BRANCH  13  15
ATOM     14  C   UNL     1       8.493   8.379  18.585  0.00  0.00    +0.000 C 
ATOM     15  C   UNL     1       7.791   7.308  18.172  0.00  0.00    +0.000 C 
BRANCH  14  17
ATOM     16  C   UNL     1       9.281  10.745  18.679  0.00  0.00    +0.000 C 
ATOM     17  C   UNL     1       8.471   9.718  17.903  0.00  0.00    +0.000 C 
ENDBRANCH  14  17
ENDBRANCH  13  15
ENDBRANCH  11  13
ENDBRANCH  10  12
ENDBRANCH   8  10
ENDBRANCH   7   9
ENDBRANCH   5   7
ENDBRANCH   4   6
ENDBRANCH   2   4
ENDBRANCH   1   3
BRANCH   1  18
ATOM     18  C   UNL     1       0.400   9.687  20.346  0.00  0.00    +0.000 C 
BRANCH  18  19
ATOM     19  C   UNL     1       0.881  11.136  20.334  0.00  0.00    +0.000 C 
BRANCH  19  20
ATOM     20  C   UNL     1       1.118  11.683  18.935  0.00  0.00    +0.000 C 
ATOM     21  O   UNL     1       2.204  11.591  18.356  0.00  0.00    +0.000 OA
ATOM     22  N   UNL     1       0.045  12.261  18.289  0.00  0.00    +0.000 N 
ATOM     23  H   UNL     1       0.313  12.800  17.475  0.00  0.00    +0.000 HD
BRANCH  22  24
ATOM     24  C   UNL     1      -1.158  12.589  18.939  0.00  0.00    +0.000 A 
ATOM     25  C   UNL     1      -1.222  13.712  19.792  0.00  0.00    +0.000 A 
ATOM     26  C   UNL     1      -2.406  13.927  20.517  0.00  0.00    +0.000 A 
ATOM     27  C   UNL     1      -3.516  13.103  20.340  0.00  0.00    +0.000 A 
ATOM     28  C   UNL     1      -3.458  12.032  19.452  0.00  0.00    +0.000 A 
ATOM     29  C   UNL     1      -2.273  11.740  18.760  0.00  0.00    +0.000 A 
BRANCH  29  30
ATOM     30  C   UNL     1      -2.255  10.529  17.851  0.00  0.00    +0.000 C 
ATOM     31  C   UNL     1      -2.791  10.810  16.456  0.00  0.00    +0.000 C 
ENDBRANCH  29  30
BRANCH  25  32
ATOM     32  C   UNL     1      -0.081  14.687  19.988  0.00  0.00    +0.000 C 
ATOM     33  C   UNL     1      -0.106  15.897  19.057  0.00  0.00    +0.000 C 
ENDBRANCH  25  32
ENDBRANCH  22  24
ENDBRANCH  19  20
ENDBRANCH  18  19
ENDBRANCH   1  18
TORSDOF 16
ENDMDL
MODEL 9
REMARK VINA RESULT:      -6.2      2.579      5.394
REMARK  Name = 
REMARK  19 active torsions:
REMARK  status: ('A' for Active; 'I' for Inactive)
REMARK    1  A    between atoms: C_1  and  C_2
REMARK    2  A    between atoms: C_2  and  C_3
REMARK    3  A    between atoms: C_4  and  C_5
REMARK    4  A    between atoms: C_5  and  C_6
REMARK    5  A    between atoms: C_7  and  C_8
REMARK    6  A    between atoms: C_8  and  C_9
REMARK    7  A    between atoms: C_10  and  C_11
REMARK    8  A    between atoms: C_11  and  C_12
REMARK    9  A    between atoms: C_13  and  C_14
REMARK   10  A    between atoms: C_14  and  C_15
REMARK   11  A    between atoms: C_16  and  C_17
REMARK   12  A    between atoms: C_17  and  C_18
REMARK   13  A    between atoms: C_18  and  C_19
REMARK   14  A    between atoms: C_19  and  C_20
REMARK   15  A    between atoms: N_22  and  C_23
REMARK   16  A    between atoms: C_24  and  C_25
REMARK   17  A    between atoms: C_25  and  C_26
REMARK   18  A    between atoms: C_30  and  C_31
REMARK   19  A    between atoms: C_31  and  C_32
REMARK                            x       y       z     vdW  Elec       q    Type
REMARK                         _______ _______ _______ _____ _____    ______ ____
ROOT
ATOM      1  C   UNL     1       3.926   7.360  17.052  0.00  0.00    +0.000 C 
ENDROOT
BRANCH   1   3
ATOM      2  C   UNL     1       1.941   8.676  17.860  0.00  0.00    +0.000 C 
ATOM      3  C   UNL     1       3.112   8.067  18.101  0.00  0.00    +0.000 C 
BRANCH   2   4
ATOM      4  C   UNL     1       1.102   9.334  18.918  0.00  0.00    +0.000 C 
BRANCH   4   6
ATOM      5  C   UNL     1       1.661  11.780  18.784  0.00  0.00    +0.000 C 
ATOM      6  C   UNL     1       0.811  10.763  18.568  0.00  0.00    +0.000 C 
BRANCH   5   7
ATOM      7  C   UNL     1       1.359  13.208  18.438  0.00  0.00    +0.000 C 
BRANCH   7   9
ATOM      8  C   UNL     1       3.520  14.428  18.840  0.00  0.00    +0.000 C 
ATOM      9  C   UNL     1       2.598  13.933  17.997  0.00  0.00    +0.000 C 
BRANCH   8  10
ATOM     10  C   UNL     1       4.744  15.179  18.400  0.00  0.00    +0.000 C 
BRANCH  10  12
ATOM     11  C   UNL     1       7.037  14.213  18.030  0.00  0.00    +0.000 C 
ATOM     12  C   UNL     1       5.729  14.270  17.723  0.00  0.00    +0.000 C 
BRANCH  11  13
ATOM     13  C   UNL     1       8.023  13.321  17.333  0.00  0.00    +0.000 C 
BRANCH  13  15
ATOM     14  C   UNL     1      10.129  12.207  18.127  0.00  0.00    +0.000 C 
ATOM     15  C   UNL     1       8.840  12.541  18.317  0.00  0.00    +0.000 C 
BRANCH  14  17
ATOM     16  C   UNL     1      10.753  11.932  20.528  0.00  0.00    +0.000 C 
ATOM     17  C   UNL     1      10.953  11.422  19.108  0.00  0.00    +0.000 C 
ENDBRANCH  14  17
ENDBRANCH  13  15
ENDBRANCH  11  13
ENDBRANCH  10  12
ENDBRANCH   8  10
ENDBRANCH   7   9
ENDBRANCH   5   7
ENDBRANCH   4   6
ENDBRANCH   2   4
ENDBRANCH   1   3
BRANCH   1  18
ATOM     18  C   UNL     1       5.218   6.767  17.624  0.00  0.00    +0.000 C 
BRANCH  18  19
ATOM     19  C   UNL     1       4.997   6.182  19.017  0.00  0.00    +0.000 C 
BRANCH  19  20
ATOM     20  C   UNL     1       5.958   5.053  19.358  0.00  0.00    +0.000 C 
ATOM     21  O   UNL     1       7.115   5.251  19.739  0.00  0.00    +0.000 OA
ATOM     22  N   UNL     1       5.476   3.764  19.275  0.00  0.00    +0.000 N 
ATOM     23  H   UNL     1       6.208   3.064  19.288  0.00  0.00    +0.000 HD
BRANCH  22  24
ATOM     24  C   UNL     1       4.253   3.437  18.663  0.00  0.00    +0.000 A 
ATOM     25  C   UNL     1       4.158   3.367  17.256  0.00  0.00    +0.000 A 
ATOM     26  C   UNL     1       2.890   3.163  16.686  0.00  0.00    +0.000 A 
ATOM     27  C   UNL     1       1.769   2.956  17.486  0.00  0.00    +0.000 A 
ATOM     28  C   UNL     1       1.887   2.971  18.874  0.00  0.00    +0.000 A 
ATOM     29  C   UNL     1       3.120   3.240  19.484  0.00  0.00    +0.000 A 
BRANCH  29  30
ATOM     30  C   UNL     1       3.174   3.299  20.996  0.00  0.00    +0.000 C 
ATOM     31  C   UNL     1       1.973   2.655  21.671  0.00  0.00    +0.000 C 
ENDBRANCH  29  30
BRANCH  25  32
ATOM     32  C   UNL     1       5.341   3.519  16.323  0.00  0.00    +0.000 C 
ATOM     33  C   UNL     1       5.056   4.321  15.055  0.00  0.00    +0.000 C 
ENDBRANCH  25  32
ENDBRANCH  22  24
ENDBRANCH  19  20
ENDBRANCH  18  19
ENDBRANCH   1  18
TORSDOF 16
ENDMDL
