MODEL 1
REMARK VINA RESULT:      -8.5      0.000      0.000
REMARK  Name = 
REMARK  7 active torsions:
REMARK  status: ('A' for Active; 'I' for Inactive)
REMARK    1  A    between atoms: C_2  and  C_20
REMARK    2  A    between atoms: N_3  and  C_4
REMARK    3  A    between atoms: N_9  and  C_10
REMARK    4  A    between atoms: C_10  and  C_11
REMARK    5  A    between atoms: C_11  and  C_12
REMARK    6  A    between atoms: C_12  and  C_13
REMARK    7  A    between atoms: C_26  and  C_27
REMARK                            x       y       z     vdW  Elec       q    Type
REMARK                         _______ _______ _______ _____ _____    ______ ____
ROOT
ATOM      1  O   UNL     1       2.057  10.474  17.326  0.00  0.00    +0.000 OA
ATOM      2  C   UNL     1       1.618  10.443  18.469  0.00  0.00    +0.000 C 
ATOM      3  N   UNL     1       1.151  11.564  19.103  0.00  0.00    +0.000 N 
ATOM      4  H   UNL     1       0.771  11.538  20.041  0.00  0.00    +0.000 HD
ENDROOT
BRANCH   2   5
ATOM      5  C   UNL     1       1.570   9.151  19.199  0.00  0.00    +0.000 A 
ATOM      6  C   UNL     1       1.043   8.980  20.485  0.00  0.00    +0.000 A 
ATOM      7  C   UNL     1       1.158   7.748  21.156  0.00  0.00    +0.000 A 
ATOM      8  C   UNL     1       1.862   6.725  20.503  0.00  0.00    +0.000 A 
ATOM      9  N   UNL     1       2.207   5.452  20.873  0.00  0.00    +0.000 N 
ATOM     10  N   UNL     1       2.970   4.799  19.976  0.00  0.00    +0.000 NA
ATOM     11  C   UNL     1       3.157   5.692  18.990  0.00  0.00    +0.000 A 
ATOM     12  C   UNL     1       2.410   6.880  19.240  0.00  0.00    +0.000 A 
ATOM     13  C   UNL     1       2.210   8.087  18.555  0.00  0.00    +0.000 A 
ATOM     14  H   UNL     1       1.984   4.978  21.741  0.00  0.00    +0.000 HD
BRANCH  11  15
ATOM     15  C   UNL     1       4.088   5.453  17.887  0.00  0.00    +0.000 A 
ATOM     16  C   UNL     1       4.087   4.246  17.192  0.00  0.00    +0.000 A 
ATOM     17  C   UNL     1       5.023   4.067  16.186  0.00  0.00    +0.000 A 
ATOM     18  N   UNL     1       5.935   4.998  15.827  0.00  0.00    +0.000 NA
ATOM     19  C   UNL     1       5.920   6.158  16.512  0.00  0.00    +0.000 A 
ATOM     20  C   UNL     1       5.032   6.426  17.538  0.00  0.00    +0.000 A 
ENDBRANCH  11  15
ENDBRANCH   2   5
BRANCH   3  21
ATOM     21  C   UNL     1       1.211  12.879  18.476  0.00  0.00    +0.000 C 
ATOM     22  C   UNL     1       2.541  13.542  18.833  0.00  0.00    +0.000 C 
ATOM     23  C   UNL     1       2.680  13.932  20.302  0.00  0.00    +0.000 C 
ATOM     24  C   UNL     1       1.710  15.037  20.704  0.00  0.00    +0.000 C 
ATOM     25  C   UNL     1       0.310  14.561  21.117  0.00  0.00    +0.000 C 
ATOM     26  N   UNL     1      -0.394  13.597  20.252  0.00  0.00    +0.000 NA
ATOM     27  C   UNL     1      -0.039  13.716  18.828  0.00  0.00    +0.000 C 
BRANCH  26  28
ATOM     28  C   UNL     1      -1.850  13.673  20.495  0.00  0.00    +0.000 C 
BRANCH  28  29
ATOM     29  C   UNL     1      -2.615  12.338  20.444  0.00  0.00    +0.000 C 
BRANCH  29  30
ATOM     30  C   UNL     1      -3.723  12.323  19.394  0.00  0.00    +0.000 C 
BRANCH  30  31
ATOM     31  C   UNL     1      -3.355  11.491  18.195  0.00  0.00    +0.000 A 
ATOM     32  C   UNL     1      -4.168  11.485  17.051  0.00  0.00    +0.000 A 
ATOM     33  C   UNL     1      -3.820  10.708  15.945  0.00  0.00    +0.000 A 
ATOM     34  C   UNL     1      -2.665   9.930  15.978  0.00  0.00    +0.000 A 
ATOM     35  C   UNL     1      -1.857   9.927  17.113  0.00  0.00    +0.000 A 
ATOM     36  C   UNL     1      -2.201  10.704  18.219  0.00  0.00    +0.000 A 
ENDBRANCH  30  31
ENDBRANCH  29  30
ENDBRANCH  28  29
ENDBRANCH  26  28
ENDBRANCH   3  21
TORSDOF 7
ENDMDL
MODEL 2
REMARK VINA RESULT:      -8.3      0.833      1.227
REMARK  Name = 
REMARK  7 active torsions:
REMARK  status: ('A' for Active; 'I' for Inactive)
REMARK    1  A    between atoms: C_2  and  C_20
REMARK    2  A    between atoms: N_3  and  C_4
REMARK    3  A    between atoms: N_9  and  C_10
REMARK    4  A    between atoms: C_10  and  C_11
REMARK    5  A    between atoms: C_11  and  C_12
REMARK    6  A    between atoms: C_12  and  C_13
REMARK    7  A    between atoms: C_26  and  C_27
REMARK                            x       y       z     vdW  Elec       q    Type
REMARK                         _______ _______ _______ _____ _____    ______ ____
ROOT
ATOM      1  O   UNL     1       2.094  10.149  17.376  0.00  0.00    +0.000 OA
ATOM      2  C   UNL     1       1.680   9.931  18.507  0.00  0.00    +0.000 C 
ATOM      3  N   UNL     1       1.083  10.901  19.268  0.00  0.00    +0.000 N 
ATOM      4  H   UNL     1       0.723  10.719  20.196  0.00  0.00    +0.000 HD
ENDROOT
BRANCH   2   5
ATOM      5  C   UNL     1       1.810   8.568  19.083  0.00  0.00    +0.000 A 
ATOM      6  C   UNL     1       1.224   8.149  20.284  0.00  0.00    +0.000 A 
ATOM      7  C   UNL     1       1.507   6.880  20.823  0.00  0.00    +0.000 A 
ATOM      8  C   UNL     1       2.433   6.082  20.134  0.00  0.00    +0.000 A 
ATOM      9  N   UNL     1       2.971   4.850  20.394  0.00  0.00    +0.000 N 
ATOM     10  N   UNL     1       3.907   4.454  19.510  0.00  0.00    +0.000 NA
ATOM     11  C   UNL     1       4.005   5.482  18.651  0.00  0.00    +0.000 A 
ATOM     12  C   UNL     1       3.039   6.486  18.955  0.00  0.00    +0.000 A 
ATOM     13  C   UNL     1       2.679   7.717  18.392  0.00  0.00    +0.000 A 
ATOM     14  H   UNL     1       2.771   4.240  21.178  0.00  0.00    +0.000 HD
BRANCH  11  15
ATOM     15  C   UNL     1       5.047   5.545  17.625  0.00  0.00    +0.000 A 
ATOM     16  C   UNL     1       4.903   4.879  16.411  0.00  0.00    +0.000 A 
ATOM     17  C   UNL     1       5.944   4.944  15.500  0.00  0.00    +0.000 A 
ATOM     18  N   UNL     1       7.094   5.625  15.710  0.00  0.00    +0.000 NA
ATOM     19  C   UNL     1       7.213   6.262  16.891  0.00  0.00    +0.000 A 
ATOM     20  C   UNL     1       6.234   6.248  17.867  0.00  0.00    +0.000 A 
ENDBRANCH  11  15
ENDBRANCH   2   5
BRANCH   3  21
ATOM     21  C   UNL     1       0.964  12.276  18.797  0.00  0.00    +0.000 C 
ATOM     22  C   UNL     1       2.219  13.052  19.198  0.00  0.00    +0.000 C 
ATOM     23  C   UNL     1       2.365  13.287  20.699  0.00  0.00    +0.000 C 
ATOM     24  C   UNL     1       1.286  14.212  21.250  0.00  0.00    +0.000 C 
ATOM     25  C   UNL     1      -0.031  13.525  21.637  0.00  0.00    +0.000 C 
ATOM     26  N   UNL     1      -0.648  12.588  20.682  0.00  0.00    +0.000 NA
ATOM     27  C   UNL     1      -0.363  12.910  19.274  0.00  0.00    +0.000 C 
BRANCH  26  28
ATOM     28  C   UNL     1      -2.093  12.458  20.965  0.00  0.00    +0.000 C 
BRANCH  28  29
ATOM     29  C   UNL     1      -3.047  12.981  19.875  0.00  0.00    +0.000 C 
BRANCH  29  30
ATOM     30  C   UNL     1      -4.024  11.918  19.377  0.00  0.00    +0.000 C 
BRANCH  30  31
ATOM     31  C   UNL     1      -3.554  11.270  18.104  0.00  0.00    +0.000 A 
ATOM     32  C   UNL     1      -2.433  10.424  18.103  0.00  0.00    +0.000 A 
ATOM     33  C   UNL     1      -2.002   9.829  16.916  0.00  0.00    +0.000 A 
ATOM     34  C   UNL     1      -2.682  10.078  15.726  0.00  0.00    +0.000 A 
ATOM     35  C   UNL     1      -3.791  10.922  15.719  0.00  0.00    +0.000 A 
ATOM     36  C   UNL     1      -4.225  11.517  16.903  0.00  0.00    +0.000 A 
ENDBRANCH  30  31
ENDBRANCH  29  30
ENDBRANCH  28  29
ENDBRANCH  26  28
ENDBRANCH   3  21
TORSDOF 7
ENDMDL
MODEL 3
REMARK VINA RESULT:      -8.3      1.816      3.178
REMARK  Name = 
REMARK  7 active torsions:
REMARK  status: ('A' for Active; 'I' for Inactive)
REMARK    1  A    between atoms: C_2  and  C_20
REMARK    2  A    between atoms: N_3  and  C_4
REMARK    3  A    between atoms: N_9  and  C_10
REMARK    4  A    between atoms: C_10  and  C_11
REMARK    5  A    between atoms: C_11  and  C_12
REMARK    6  A    between atoms: C_12  and  C_13
REMARK    7  A    between atoms: C_26  and  C_27
REMARK                            x       y       z     vdW  Elec       q    Type
REMARK                         _______ _______ _______ _____ _____    ______ ____
ROOT
ATOM      1  O   UNL     1       2.413   9.257  17.560  0.00  0.00    +0.000 OA
ATOM      2  C   UNL     1       1.982   8.879  18.643  0.00  0.00    +0.000 C 
ATOM      3  N   UNL     1       1.325   9.720  19.502  0.00  0.00    +0.000 N 
ATOM      4  H   UNL     1       0.952   9.406  20.389  0.00  0.00    +0.000 HD
ENDROOT
BRANCH   2   5
ATOM      5  C   UNL     1       2.159   7.460  19.046  0.00  0.00    +0.000 A 
ATOM      6  C   UNL     1       1.634   6.891  20.213  0.00  0.00    +0.000 A 
ATOM      7  C   UNL     1       1.960   5.573  20.583  0.00  0.00    +0.000 A 
ATOM      8  C   UNL     1       2.866   4.881  19.765  0.00  0.00    +0.000 A 
ATOM      9  N   UNL     1       3.435   3.638  19.852  0.00  0.00    +0.000 N 
ATOM     10  N   UNL     1       4.335   3.369  18.887  0.00  0.00    +0.000 NA
ATOM     11  C   UNL     1       4.379   4.494  18.154  0.00  0.00    +0.000 A 
ATOM     12  C   UNL     1       3.412   5.434  18.618  0.00  0.00    +0.000 A 
ATOM     13  C   UNL     1       3.009   6.716  18.221  0.00  0.00    +0.000 A 
ATOM     14  H   UNL     1       3.279   2.936  20.565  0.00  0.00    +0.000 HD
BRANCH  11  15
ATOM     15  C   UNL     1       5.372   4.699  17.099  0.00  0.00    +0.000 A 
ATOM     16  C   UNL     1       6.516   5.459  17.326  0.00  0.00    +0.000 A 
ATOM     17  C   UNL     1       7.395   5.651  16.272  0.00  0.00    +0.000 A 
ATOM     18  N   UNL     1       7.218   5.137  15.034  0.00  0.00    +0.000 NA
ATOM     19  C   UNL     1       6.104   4.407  14.836  0.00  0.00    +0.000 A 
ATOM     20  C   UNL     1       5.163   4.168  15.820  0.00  0.00    +0.000 A 
ENDBRANCH  11  15
ENDBRANCH   2   5
BRANCH   3  21
ATOM     21  C   UNL     1       1.156  11.138  19.205  0.00  0.00    +0.000 C 
ATOM     22  C   UNL     1       1.039  11.912  20.518  0.00  0.00    +0.000 C 
ATOM     23  C   UNL     1      -0.243  11.641  21.300  0.00  0.00    +0.000 C 
ATOM     24  C   UNL     1      -1.485  12.147  20.574  0.00  0.00    +0.000 C 
ATOM     25  C   UNL     1      -2.084  11.176  19.547  0.00  0.00    +0.000 C 
ATOM     26  N   UNL     1      -1.185  10.538  18.568  0.00  0.00    +0.000 NA
ATOM     27  C   UNL     1      -0.014  11.360  18.221  0.00  0.00    +0.000 C 
BRANCH  26  28
ATOM     28  C   UNL     1      -1.957  10.100  17.386  0.00  0.00    +0.000 C 
BRANCH  28  29
ATOM     29  C   UNL     1      -3.480   9.982  17.577  0.00  0.00    +0.000 C 
BRANCH  29  30
ATOM     30  C   UNL     1      -4.269  10.960  16.710  0.00  0.00    +0.000 C 
BRANCH  30  31
ATOM     31  C   UNL     1      -5.440  11.552  17.446  0.00  0.00    +0.000 A 
ATOM     32  C   UNL     1      -5.985  10.902  18.565  0.00  0.00    +0.000 A 
ATOM     33  C   UNL     1      -7.073  11.457  19.240  0.00  0.00    +0.000 A 
ATOM     34  C   UNL     1      -7.626  12.658  18.800  0.00  0.00    +0.000 A 
ATOM     35  C   UNL     1      -7.094  13.304  17.686  0.00  0.00    +0.000 A 
ATOM     36  C   UNL     1      -6.006  12.753  17.010  0.00  0.00    +0.000 A 
ENDBRANCH  30  31
ENDBRANCH  29  30
ENDBRANCH  28  29
ENDBRANCH  26  28
ENDBRANCH   3  21
TORSDOF 7
ENDMDL
MODEL 4
REMARK VINA RESULT:      -8.1      1.717      2.758
REMARK  Name = 
REMARK  7 active torsions:
REMARK  status: ('A' for Active; 'I' for Inactive)
REMARK    1  A    between atoms: C_2  and  C_20
REMARK    2  A    between atoms: N_3  and  C_4
REMARK    3  A    between atoms: N_9  and  C_10
REMARK    4  A    between atoms: C_10  and  C_11
REMARK    5  A    between atoms: C_11  and  C_12
REMARK    6  A    between atoms: C_12  and  C_13
REMARK    7  A    between atoms: C_26  and  C_27
REMARK                            x       y       z     vdW  Elec       q    Type
REMARK                         _______ _______ _______ _____ _____    ______ ____
ROOT
ATOM      1  O   UNL     1       2.352   9.502  17.434  0.00  0.00    +0.000 OA
ATOM      2  C   UNL     1       1.880   9.177  18.517  0.00  0.00    +0.000 C 
ATOM      3  N   UNL     1       1.171  10.051  19.297  0.00  0.00    +0.000 N 
ATOM      4  H   UNL     1       0.764   9.780  20.184  0.00  0.00    +0.000 HD
ENDROOT
BRANCH   2   5
ATOM      5  C   UNL     1       2.064   7.787  19.007  0.00  0.00    +0.000 A 
ATOM      6  C   UNL     1       1.550   7.291  20.211  0.00  0.00    +0.000 A 
ATOM      7  C   UNL     1       1.883   6.000  20.662  0.00  0.00    +0.000 A 
ATOM      8  C   UNL     1       2.784   5.260  19.881  0.00  0.00    +0.000 A 
ATOM      9  N   UNL     1       3.357   4.026  20.042  0.00  0.00    +0.000 N 
ATOM     10  N   UNL     1       4.250   3.698  19.089  0.00  0.00    +0.000 NA
ATOM     11  C   UNL     1       4.285   4.775  18.286  0.00  0.00    +0.000 A 
ATOM     12  C   UNL     1       3.320   5.740  18.697  0.00  0.00    +0.000 A 
ATOM     13  C   UNL     1       2.909   6.994  18.224  0.00  0.00    +0.000 A 
ATOM     14  H   UNL     1       3.209   3.370  20.800  0.00  0.00    +0.000 HD
BRANCH  11  15
ATOM     15  C   UNL     1       5.269   4.916  17.212  0.00  0.00    +0.000 A 
ATOM     16  C   UNL     1       5.180   4.154  16.050  0.00  0.00    +0.000 A 
ATOM     17  C   UNL     1       6.167   4.305  15.090  0.00  0.00    +0.000 A 
ATOM     18  N   UNL     1       7.212   5.156  15.205  0.00  0.00    +0.000 NA
ATOM     19  C   UNL     1       7.280   5.882  16.337  0.00  0.00    +0.000 A 
ATOM     20  C   UNL     1       6.349   5.795  17.356  0.00  0.00    +0.000 A 
ENDBRANCH  11  15
ENDBRANCH   2   5
BRANCH   3  21
ATOM     21  C   UNL     1       0.990  11.446  18.913  0.00  0.00    +0.000 C 
ATOM     22  C   UNL     1       1.326  12.340  20.107  0.00  0.00    +0.000 C 
ATOM     23  C   UNL     1       0.339  12.245  21.267  0.00  0.00    +0.000 C 
ATOM     24  C   UNL     1      -1.039  12.785  20.903  0.00  0.00    +0.000 C 
ATOM     25  C   UNL     1      -1.977  11.780  20.218  0.00  0.00    +0.000 C 
ATOM     26  N   UNL     1      -1.460  10.987  19.088  0.00  0.00    +0.000 NA
ATOM     27  C   UNL     1      -0.416  11.677  18.314  0.00  0.00    +0.000 C 
BRANCH  26  28
ATOM     28  C   UNL     1      -2.583  10.511  18.252  0.00  0.00    +0.000 C 
BRANCH  28  29
ATOM     29  C   UNL     1      -2.984  11.420  17.076  0.00  0.00    +0.000 C 
BRANCH  29  30
ATOM     30  C   UNL     1      -4.351  11.073  16.492  0.00  0.00    +0.000 C 
BRANCH  30  31
ATOM     31  C   UNL     1      -5.479  11.590  17.344  0.00  0.00    +0.000 A 
ATOM     32  C   UNL     1      -6.047  12.849  17.092  0.00  0.00    +0.000 A 
ATOM     33  C   UNL     1      -7.090  13.322  17.890  0.00  0.00    +0.000 A 
ATOM     34  C   UNL     1      -7.567  12.545  18.944  0.00  0.00    +0.000 A 
ATOM     35  C   UNL     1      -7.002  11.297  19.203  0.00  0.00    +0.000 A 
ATOM     36  C   UNL     1      -5.961  10.822  18.407  0.00  0.00    +0.000 A 
ENDBRANCH  30  31
ENDBRANCH  29  30
ENDBRANCH  28  29
ENDBRANCH  26  28
ENDBRANCH   3  21
TORSDOF 7
ENDMDL
MODEL 5
REMARK VINA RESULT:      -7.6      2.128      3.240
REMARK  Name = 
REMARK  7 active torsions:
REMARK  status: ('A' for Active; 'I' for Inactive)
REMARK    1  A    between atoms: C_2  and  C_20
REMARK    2  A    between atoms: N_3  and  C_4
REMARK    3  A    between atoms: N_9  and  C_10
REMARK    4  A    between atoms: C_10  and  C_11
REMARK    5  A    between atoms: C_11  and  C_12
REMARK    6  A    between atoms: C_12  and  C_13
REMARK    7  A    between atoms: C_26  and  C_27
REMARK                            x       y       z     vdW  Elec       q    Type
REMARK                         _______ _______ _______ _____ _____    ______ ____
ROOT
ATOM      1  O   UNL     1       2.173  10.274  17.416  0.00  0.00    +0.000 OA
ATOM      2  C   UNL     1       1.648  10.037  18.497  0.00  0.00    +0.000 C 
ATOM      3  N   UNL     1       0.941  10.984  19.190  0.00  0.00    +0.000 N 
ATOM      4  H   UNL     1       0.490  10.785  20.075  0.00  0.00    +0.000 HD
ENDROOT
BRANCH   2   5
ATOM      5  C   UNL     1       1.761   8.676  19.081  0.00  0.00    +0.000 A 
ATOM      6  C   UNL     1       1.138   8.262  20.265  0.00  0.00    +0.000 A 
ATOM      7  C   UNL     1       1.406   6.995  20.817  0.00  0.00    +0.000 A 
ATOM      8  C   UNL     1       2.353   6.195  20.160  0.00  0.00    +0.000 A 
ATOM      9  N   UNL     1       2.884   4.965  20.442  0.00  0.00    +0.000 N 
ATOM     10  N   UNL     1       3.847   4.566  19.589  0.00  0.00    +0.000 NA
ATOM     11  C   UNL     1       3.972   5.591  18.729  0.00  0.00    +0.000 A 
ATOM     12  C   UNL     1       2.995   6.595  19.000  0.00  0.00    +0.000 A 
ATOM     13  C   UNL     1       2.652   7.824  18.421  0.00  0.00    +0.000 A 
ATOM     14  H   UNL     1       2.660   4.357  21.221  0.00  0.00    +0.000 HD
BRANCH  11  15
ATOM     15  C   UNL     1       5.044   5.652  17.736  0.00  0.00    +0.000 A 
ATOM     16  C   UNL     1       6.336   6.026  18.094  0.00  0.00    +0.000 A 
ATOM     17  C   UNL     1       7.296   6.105  17.098  0.00  0.00    +0.000 A 
ATOM     18  N   UNL     1       7.060   5.830  15.795  0.00  0.00    +0.000 NA
ATOM     19  C   UNL     1       5.804   5.471  15.470  0.00  0.00    +0.000 A 
ATOM     20  C   UNL     1       4.776   5.373  16.390  0.00  0.00    +0.000 A 
ENDBRANCH  11  15
ENDBRANCH   2   5
BRANCH   3  21
ATOM     21  C   UNL     1       0.827  12.356  18.711  0.00  0.00    +0.000 C 
ATOM     22  C   UNL     1       2.038  13.155  19.192  0.00  0.00    +0.000 C 
ATOM     23  C   UNL     1       2.082  13.392  20.699  0.00  0.00    +0.000 C 
ATOM     24  C   UNL     1       0.953  14.297  21.178  0.00  0.00    +0.000 C 
ATOM     25  C   UNL     1      -0.374  13.586  21.479  0.00  0.00    +0.000 C 
ATOM     26  N   UNL     1      -0.910  12.637  20.487  0.00  0.00    +0.000 NA
ATOM     27  C   UNL     1      -0.539  12.965  19.100  0.00  0.00    +0.000 C 
BRANCH  26  28
ATOM     28  C   UNL     1      -2.367  12.480  20.675  0.00  0.00    +0.000 C 
BRANCH  28  29
ATOM     29  C   UNL     1      -2.876  12.572  22.126  0.00  0.00    +0.000 C 
BRANCH  29  30
ATOM     30  C   UNL     1      -3.932  13.657  22.321  0.00  0.00    +0.000 C 
BRANCH  30  31
ATOM     31  C   UNL     1      -5.312  13.081  22.484  0.00  0.00    +0.000 A 
ATOM     32  C   UNL     1      -6.014  12.578  21.377  0.00  0.00    +0.000 A 
ATOM     33  C   UNL     1      -7.295  12.048  21.537  0.00  0.00    +0.000 A 
ATOM     34  C   UNL     1      -7.884  12.022  22.799  0.00  0.00    +0.000 A 
ATOM     35  C   UNL     1      -7.195  12.525  23.902  0.00  0.00    +0.000 A 
ATOM     36  C   UNL     1      -5.915  13.054  23.745  0.00  0.00    +0.000 A 
ENDBRANCH  30  31
ENDBRANCH  29  30
ENDBRANCH  28  29
ENDBRANCH  26  28
ENDBRANCH   3  21
TORSDOF 7
ENDMDL
MODEL 6
REMARK VINA RESULT:      -7.5      3.554      7.294
REMARK  Name = 
REMARK  7 active torsions:
REMARK  status: ('A' for Active; 'I' for Inactive)
REMARK    1  A    between atoms: C_2  and  C_20
REMARK    2  A    between atoms: N_3  and  C_4
REMARK    3  A    between atoms: N_9  and  C_10
REMARK    4  A    between atoms: C_10  and  C_11
REMARK    5  A    between atoms: C_11  and  C_12
REMARK    6  A    between atoms: C_12  and  C_13
REMARK    7  A    between atoms: C_26  and  C_27
REMARK                            x       y       z     vdW  Elec       q    Type
REMARK                         _______ _______ _______ _____ _____    ______ ____
ROOT
ATOM      1  O   UNL     1      -2.176  12.317  23.157  0.00  0.00    +0.000 OA
ATOM      2  C   UNL     1      -2.558  13.096  22.291  0.00  0.00    +0.000 C 
ATOM      3  N   UNL     1      -1.804  14.165  21.884  0.00  0.00    +0.000 N 
ATOM      4  H   UNL     1      -2.110  14.799  21.156  0.00  0.00    +0.000 HD
ENDROOT
BRANCH   2   5
ATOM      5  C   UNL     1      -3.875  12.876  21.641  0.00  0.00    +0.000 A 
ATOM      6  C   UNL     1      -5.108  12.904  22.305  0.00  0.00    +0.000 A 
ATOM      7  C   UNL     1      -6.297  12.554  21.637  0.00  0.00    +0.000 A 
ATOM      8  C   UNL     1      -6.184  12.133  20.304  0.00  0.00    +0.000 A 
ATOM      9  N   UNL     1      -7.101  11.678  19.393  0.00  0.00    +0.000 N 
ATOM     10  N   UNL     1      -6.571  11.289  18.218  0.00  0.00    +0.000 NA
ATOM     11  C   UNL     1      -5.249  11.471  18.375  0.00  0.00    +0.000 A 
ATOM     12  C   UNL     1      -4.972  12.078  19.635  0.00  0.00    +0.000 A 
ATOM     13  C   UNL     1      -3.813  12.511  20.292  0.00  0.00    +0.000 A 
ATOM     14  H   UNL     1      -8.100  11.572  19.522  0.00  0.00    +0.000 HD
BRANCH  11  15
ATOM     15  C   UNL     1      -4.274  11.001  17.391  0.00  0.00    +0.000 A 
ATOM     16  C   UNL     1      -4.378  11.355  16.049  0.00  0.00    +0.000 A 
ATOM     17  C   UNL     1      -3.446  10.842  15.161  0.00  0.00    +0.000 A 
ATOM     18  N   UNL     1      -2.432  10.021  15.517  0.00  0.00    +0.000 NA
ATOM     19  C   UNL     1      -2.351   9.689  16.820  0.00  0.00    +0.000 A 
ATOM     20  C   UNL     1      -3.238  10.143  17.780  0.00  0.00    +0.000 A 
ENDBRANCH  11  15
ENDBRANCH   2   5
BRANCH   3  21
ATOM     21  C   UNL     1      -0.525  14.480  22.508  0.00  0.00    +0.000 C 
ATOM     22  C   UNL     1      -0.484  15.972  22.838  0.00  0.00    +0.000 C 
ATOM     23  C   UNL     1      -0.428  16.888  21.618  0.00  0.00    +0.000 C 
ATOM     24  C   UNL     1       0.877  16.745  20.843  0.00  0.00    +0.000 C 
ATOM     25  C   UNL     1       0.904  15.612  19.808  0.00  0.00    +0.000 C 
ATOM     26  N   UNL     1       0.438  14.274  20.211  0.00  0.00    +0.000 NA
ATOM     27  C   UNL     1       0.651  13.981  21.638  0.00  0.00    +0.000 C 
BRANCH  26  28
ATOM     28  C   UNL     1       1.017  13.249  19.317  0.00  0.00    +0.000 C 
BRANCH  28  29
ATOM     29  C   UNL     1       0.032  12.207  18.754  0.00  0.00    +0.000 C 
BRANCH  29  30
ATOM     30  C   UNL     1      -0.226  11.048  19.715  0.00  0.00    +0.000 C 
BRANCH  30  31
ATOM     31  C   UNL     1       0.660   9.867  19.427  0.00  0.00    +0.000 A 
ATOM     32  C   UNL     1       1.160   9.644  18.134  0.00  0.00    +0.000 A 
ATOM     33  C   UNL     1       1.978   8.543  17.876  0.00  0.00    +0.000 A 
ATOM     34  C   UNL     1       2.297   7.658  18.903  0.00  0.00    +0.000 A 
ATOM     35  C   UNL     1       1.799   7.870  20.188  0.00  0.00    +0.000 A 
ATOM     36  C   UNL     1       0.982   8.969  20.449  0.00  0.00    +0.000 A 
ENDBRANCH  30  31
ENDBRANCH  29  30
ENDBRANCH  28  29
ENDBRANCH  26  28
ENDBRANCH   3  21
TORSDOF 7
ENDMDL
MODEL 7
REMARK VINA RESULT:      -7.5      3.082      8.883
REMARK  Name = 
REMARK  7 active torsions:
REMARK  status: ('A' for Active; 'I' for Inactive)
REMARK    1  A    between atoms: C_2  and  C_20
REMARK    2  A    between atoms: N_3  and  C_4
REMARK    3  A    between atoms: N_9  and  C_10
REMARK    4  A    between atoms: C_10  and  C_11
REMARK    5  A    between atoms: C_11  and  C_12
REMARK    6  A    between atoms: C_12  and  C_13
REMARK    7  A    between atoms: C_26  and  C_27
REMARK                            x       y       z     vdW  Elec       q    Type
REMARK                         _______ _______ _______ _____ _____    ______ ____
ROOT
ATOM      1  O   UNL     1      -0.749  12.952  18.709  0.00  0.00    +0.000 OA
ATOM      2  C   UNL     1      -1.125  11.800  18.530  0.00  0.00    +0.000 C 
ATOM      3  N   UNL     1      -0.295  10.724  18.701  0.00  0.00    +0.000 N 
ATOM      4  H   UNL     1      -0.609   9.770  18.571  0.00  0.00    +0.000 HD
ENDROOT
BRANCH   2   5
ATOM      5  C   UNL     1      -2.532  11.546  18.127  0.00  0.00    +0.000 A 
ATOM      6  C   UNL     1      -2.929  11.055  16.877  0.00  0.00    +0.000 A 
ATOM      7  C   UNL     1      -4.291  10.969  16.533  0.00  0.00    +0.000 A 
ATOM      8  C   UNL     1      -5.221  11.440  17.472  0.00  0.00    +0.000 A 
ATOM      9  N   UNL     1      -6.585  11.557  17.449  0.00  0.00    +0.000 N 
ATOM     10  N   UNL     1      -7.112  12.143  18.541  0.00  0.00    +0.000 NA
ATOM     11  C   UNL     1      -6.045  12.447  19.299  0.00  0.00    +0.000 A 
ATOM     12  C   UNL     1      -4.849  11.947  18.706  0.00  0.00    +0.000 A 
ATOM     13  C   UNL     1      -3.493  11.945  19.062  0.00  0.00    +0.000 A 
ATOM     14  H   UNL     1      -7.217  11.290  16.703  0.00  0.00    +0.000 HD
BRANCH  11  15
ATOM     15  C   UNL     1      -6.154  13.265  20.507  0.00  0.00    +0.000 A 
ATOM     16  C   UNL     1      -5.731  14.591  20.519  0.00  0.00    +0.000 A 
ATOM     17  C   UNL     1      -5.822  15.299  21.707  0.00  0.00    +0.000 A 
ATOM     18  N   UNL     1      -6.307  14.784  22.860  0.00  0.00    +0.000 NA
ATOM     19  C   UNL     1      -6.709  13.499  22.827  0.00  0.00    +0.000 A 
ATOM     20  C   UNL     1      -6.649  12.709  21.693  0.00  0.00    +0.000 A 
ENDBRANCH  11  15
ENDBRANCH   2   5
BRANCH   3  21
ATOM     21  C   UNL     1       1.112  10.890  19.044  0.00  0.00    +0.000 C 
ATOM     22  C   UNL     1       1.970  10.473  17.849  0.00  0.00    +0.000 C 
ATOM     23  C   UNL     1       1.938   8.980  17.537  0.00  0.00    +0.000 C 
ATOM     24  C   UNL     1       2.580   8.143  18.637  0.00  0.00    +0.000 C 
ATOM     25  C   UNL     1       1.652   7.768  19.801  0.00  0.00    +0.000 C 
ATOM     26  N   UNL     1       0.832   8.824  20.421  0.00  0.00    +0.000 NA
ATOM     27  C   UNL     1       1.449  10.159  20.363  0.00  0.00    +0.000 C 
BRANCH  26  28
ATOM     28  C   UNL     1       0.446   8.423  21.791  0.00  0.00    +0.000 C 
BRANCH  28  29
ATOM     29  C   UNL     1      -0.821   9.088  22.359  0.00  0.00    +0.000 C 
BRANCH  29  30
ATOM     30  C   UNL     1      -0.514  10.220  23.338  0.00  0.00    +0.000 C 
BRANCH  30  31
ATOM     31  C   UNL     1      -1.202  11.502  22.954  0.00  0.00    +0.000 A 
ATOM     32  C   UNL     1      -2.539  11.733  23.315  0.00  0.00    +0.000 A 
ATOM     33  C   UNL     1      -3.170  12.924  22.952  0.00  0.00    +0.000 A 
ATOM     34  C   UNL     1      -2.474  13.885  22.223  0.00  0.00    +0.000 A 
ATOM     35  C   UNL     1      -1.148  13.659  21.856  0.00  0.00    +0.000 A 
ATOM     36  C   UNL     1      -0.515  12.471  22.218  0.00  0.00    +0.000 A 
ENDBRANCH  30  31
ENDBRANCH  29  30
ENDBRANCH  28  29
ENDBRANCH  26  28
ENDBRANCH   3  21
TORSDOF 7
ENDMDL
MODEL 8
REMARK VINA RESULT:      -7.5      3.677      9.243
REMARK  Name = 
REMARK  7 active torsions:
REMARK  status: ('A' for Active; 'I' for Inactive)
REMARK    1  A    between atoms: C_2  and  C_20
REMARK    2  A    between atoms: N_3  and  C_4
REMARK    3  A    between atoms: N_9  and  C_10
REMARK    4  A    between atoms: C_10  and  C_11
REMARK    5  A    between atoms: C_11  and  C_12
REMARK    6  A    between atoms: C_12  and  C_13
REMARK    7  A    between atoms: C_26  and  C_27
REMARK                            x       y       z     vdW  Elec       q    Type
REMARK                         _______ _______ _______ _____ _____    ______ ____
ROOT
ATOM      1  O   UNL     1      -1.151  13.638  23.439  0.00  0.00    +0.000 OA
ATOM      2  C   UNL     1      -1.989  13.138  22.699  0.00  0.00    +0.000 C 
ATOM      3  N   UNL     1      -1.683  12.700  21.438  0.00  0.00    +0.000 N 
ATOM      4  H   UNL     1      -2.370  12.269  20.831  0.00  0.00    +0.000 HD
ENDROOT
BRANCH   2   5
ATOM      5  C   UNL     1      -3.387  12.983  23.177  0.00  0.00    +0.000 A 
ATOM      6  C   UNL     1      -3.749  12.657  24.490  0.00  0.00    +0.000 A 
ATOM      7  C   UNL     1      -5.091  12.398  24.827  0.00  0.00    +0.000 A 
ATOM      8  C   UNL     1      -6.032  12.433  23.786  0.00  0.00    +0.000 A 
ATOM      9  N   UNL     1      -7.378  12.184  23.742  0.00  0.00    +0.000 N 
ATOM     10  N   UNL     1      -7.916  12.249  22.510  0.00  0.00    +0.000 NA
ATOM     11  C   UNL     1      -6.874  12.525  21.709  0.00  0.00    +0.000 A 
ATOM     12  C   UNL     1      -5.691  12.733  22.477  0.00  0.00    +0.000 A 
ATOM     13  C   UNL     1      -4.364  13.070  22.180  0.00  0.00    +0.000 A 
ATOM     14  H   UNL     1      -7.985  11.928  24.513  0.00  0.00    +0.000 HD
BRANCH  11  15
ATOM     15  C   UNL     1      -6.984  12.505  20.250  0.00  0.00    +0.000 A 
ATOM     16  C   UNL     1      -7.461  13.608  19.548  0.00  0.00    +0.000 A 
ATOM     17  C   UNL     1      -7.581  13.509  18.172  0.00  0.00    +0.000 A 
ATOM     18  N   UNL     1      -7.253  12.407  17.460  0.00  0.00    +0.000 NA
ATOM     19  C   UNL     1      -6.794  11.350  18.158  0.00  0.00    +0.000 A 
ATOM     20  C   UNL     1      -6.649  11.349  19.534  0.00  0.00    +0.000 A 
ENDBRANCH  11  15
ENDBRANCH   2   5
BRANCH   3  21
ATOM     21  C   UNL     1      -0.348  12.863  20.874  0.00  0.00    +0.000 C 
ATOM     22  C   UNL     1      -0.472  13.349  19.430  0.00  0.00    +0.000 C 
ATOM     23  C   UNL     1      -1.054  12.320  18.464  0.00  0.00    +0.000 C 
ATOM     24  C   UNL     1      -0.134  11.121  18.269  0.00  0.00    +0.000 C 
ATOM     25  C   UNL     1      -0.283  10.004  19.312  0.00  0.00    +0.000 C 
ATOM     26  N   UNL     1      -0.298  10.368  20.740  0.00  0.00    +0.000 NA
ATOM     27  C   UNL     1       0.487  11.574  21.049  0.00  0.00    +0.000 C 
BRANCH  26  28
ATOM     28  C   UNL     1       0.087   9.200  21.561  0.00  0.00    +0.000 C 
BRANCH  28  29
ATOM     29  C   UNL     1       1.396   8.495  21.164  0.00  0.00    +0.000 C 
BRANCH  29  30
ATOM     30  C   UNL     1       1.257   6.976  21.086  0.00  0.00    +0.000 C 
BRANCH  30  31
ATOM     31  C   UNL     1       2.006   6.399  19.915  0.00  0.00    +0.000 A 
ATOM     32  C   UNL     1       2.158   5.010  19.777  0.00  0.00    +0.000 A 
ATOM     33  C   UNL     1       2.857   4.484  18.689  0.00  0.00    +0.000 A 
ATOM     34  C   UNL     1       3.412   5.339  17.740  0.00  0.00    +0.000 A 
ATOM     35  C   UNL     1       3.270   6.719  17.875  0.00  0.00    +0.000 A 
ATOM     36  C   UNL     1       2.571   7.247  18.960  0.00  0.00    +0.000 A 
ENDBRANCH  30  31
ENDBRANCH  29  30
ENDBRANCH  28  29
ENDBRANCH  26  28
ENDBRANCH   3  21
TORSDOF 7
ENDMDL
MODEL 9
REMARK VINA RESULT:      -7.4      3.928      8.413
REMARK  Name = 
REMARK  7 active torsions:
REMARK  status: ('A' for Active; 'I' for Inactive)
REMARK    1  A    between atoms: C_2  and  C_20
REMARK    2  A    between atoms: N_3  and  C_4
REMARK    3  A    between atoms: N_9  and  C_10
REMARK    4  A    between atoms: C_10  and  C_11
REMARK    5  A    between atoms: C_11  and  C_12
REMARK    6  A    between atoms: C_12  and  C_13
REMARK    7  A    between atoms: C_26  and  C_27
REMARK                            x       y       z     vdW  Elec       q    Type
REMARK                         _______ _______ _______ _____ _____    ______ ____
ROOT
ATOM      1  O   UNL     1      -0.209   9.641  17.577  0.00  0.00    +0.000 OA
ATOM      2  C   UNL     1      -1.024  10.296  18.215  0.00  0.00    +0.000 C 
ATOM      3  N   UNL     1      -0.759  10.771  19.472  0.00  0.00    +0.000 N 
ATOM      4  H   UNL     1      -1.425  11.328  19.993  0.00  0.00    +0.000 HD
ENDROOT
BRANCH   2   5
ATOM      5  C   UNL     1      -2.345  10.607  17.610  0.00  0.00    +0.000 A 
ATOM      6  C   UNL     1      -2.576  10.771  16.238  0.00  0.00    +0.000 A 
ATOM      7  C   UNL     1      -3.832  11.195  15.763  0.00  0.00    +0.000 A 
ATOM      8  C   UNL     1      -4.814  11.491  16.720  0.00  0.00    +0.000 A 
ATOM      9  N   UNL     1      -6.094  11.969  16.619  0.00  0.00    +0.000 N 
ATOM     10  N   UNL     1      -6.696  12.198  17.802  0.00  0.00    +0.000 NA
ATOM     11  C   UNL     1      -5.762  11.884  18.715  0.00  0.00    +0.000 A 
ATOM     12  C   UNL     1      -4.599  11.355  18.081  0.00  0.00    +0.000 A 
ATOM     13  C   UNL     1      -3.371  10.851  18.529  0.00  0.00    +0.000 A 
ATOM     14  H   UNL     1      -6.605  12.196  15.774  0.00  0.00    +0.000 HD
BRANCH  11  15
ATOM     15  C   UNL     1      -5.940  12.160  20.140  0.00  0.00    +0.000 A 
ATOM     16  C   UNL     1      -4.916  12.722  20.898  0.00  0.00    +0.000 A 
ATOM     17  C   UNL     1      -5.133  12.919  22.252  0.00  0.00    +0.000 A 
ATOM     18  N   UNL     1      -6.286  12.608  22.887  0.00  0.00    +0.000 NA
ATOM     19  C   UNL     1      -7.264  12.065  22.136  0.00  0.00    +0.000 A 
ATOM     20  C   UNL     1      -7.138  11.821  20.781  0.00  0.00    +0.000 A 
ENDBRANCH  11  15
ENDBRANCH   2   5
BRANCH   3  21
ATOM     21  C   UNL     1       0.492  10.466  20.156  0.00  0.00    +0.000 C 
ATOM     22  C   UNL     1       0.463   9.011  20.625  0.00  0.00    +0.000 C 
ATOM     23  C   UNL     1      -0.537   8.725  21.741  0.00  0.00    +0.000 C 
ATOM     24  C   UNL     1      -0.168   9.423  23.045  0.00  0.00    +0.000 C 
ATOM     25  C   UNL     1      -0.663  10.870  23.176  0.00  0.00    +0.000 C 
ATOM     26  N   UNL     1      -0.436  11.800  22.056  0.00  0.00    +0.000 NA
ATOM     27  C   UNL     1       0.774  11.495  21.274  0.00  0.00    +0.000 C 
BRANCH  26  28
ATOM     28  C   UNL     1      -0.474  13.195  22.543  0.00  0.00    +0.000 C 
BRANCH  28  29
ATOM     29  C   UNL     1      -1.517  14.115  21.882  0.00  0.00    +0.000 C 
BRANCH  29  30
ATOM     30  C   UNL     1      -1.540  13.996  20.360  0.00  0.00    +0.000 C 
BRANCH  30  31
ATOM     31  C   UNL     1      -0.628  14.995  19.701  0.00  0.00    +0.000 A 
ATOM     32  C   UNL     1       0.665  14.627  19.297  0.00  0.00    +0.000 A 
ATOM     33  C   UNL     1       1.505  15.561  18.690  0.00  0.00    +0.000 A 
ATOM     34  C   UNL     1       1.062  16.866  18.487  0.00  0.00    +0.000 A 
ATOM     35  C   UNL     1      -0.219  17.239  18.890  0.00  0.00    +0.000 A 
ATOM     36  C   UNL     1      -1.061  16.308  19.497  0.00  0.00    +0.000 A 
ENDBRANCH  30  31
ENDBRANCH  29  30
ENDBRANCH  28  29
ENDBRANCH  26  28
ENDBRANCH   3  21
TORSDOF 7
ENDMDL
