MODEL 1
REMARK VINA RESULT:      -8.2      0.000      0.000
REMARK  Name = 
REMARK  12 active torsions:
REMARK  status: ('A' for Active; 'I' for Inactive)
REMARK    1  A    between atoms: C_1  and  C_2
REMARK    2  A    between atoms: C_2  and  C_3
REMARK    3  A    between atoms: C_2  and  C_4
REMARK    4  A    between atoms: C_2  and  O_5
REMARK    5  A    between atoms: O_5  and  C_6
REMARK    6  A    between atoms: C_6  and  C_8
REMARK    7  A    between atoms: C_8  and  C_9
REMARK    8  A    between atoms: C_9  and  C_10
REMARK    9  A    between atoms: C_10  and  N_11
REMARK   10  A    between atoms: C_10  and  C_26
REMARK   11  A    between atoms: C_12  and  C_14
REMARK   12  A    between atoms: C_18  and  C_19
REMARK                            x       y       z     vdW  Elec       q    Type
REMARK                         _______ _______ _______ _____ _____    ______ ____
ROOT
ATOM      1  C   UNL     1       4.310   5.708  17.206  0.00  0.00    +0.000 C 
ENDROOT
BRANCH   1   2
ATOM      2  C   UNL     1       4.681   4.752  18.404  0.00  0.00    +0.000 C 
ATOM      3  O   UNL     1       5.678   4.979  19.098  0.00  0.00    +0.000 OA
ATOM      4  N   UNL     1       3.869   3.662  18.685  0.00  0.00    +0.000 N 
ATOM      5  C   UNL     1       4.085   2.845  19.886  0.00  0.00    +0.000 C 
ATOM      6  C   UNL     1       2.744   2.459  20.567  0.00  0.00    +0.000 C 
ATOM      7  N   UNL     1       1.670   2.011  19.657  0.00  0.00    +0.000 NA
ATOM      8  C   UNL     1       1.559   2.900  18.484  0.00  0.00    +0.000 C 
ATOM      9  C   UNL     1       2.911   3.046  17.773  0.00  0.00    +0.000 C 
ATOM     10  H   UNL     1       0.782   2.011  20.160  0.00  0.00    +0.000 HD
ENDBRANCH   1   2
BRANCH   1  11
ATOM     11  N   UNL     1       3.859   7.020  17.691  0.00  0.00    +0.000 N 
ATOM     12  C   UNL     1       2.544   7.230  18.084  0.00  0.00    +0.000 C 
ATOM     13  O   UNL     1       1.731   6.334  18.181  0.00  0.00    +0.000 OA
ATOM     14  H   UNL     1       4.397   7.851  17.469  0.00  0.00    +0.000 HD
BRANCH  12  15
ATOM     15  C   UNL     1       2.186   8.656  18.411  0.00  0.00    +0.000 A 
ATOM     16  C   UNL     1       2.498   9.661  17.502  0.00  0.00    +0.000 A 
ATOM     17  C   UNL     1       2.050  10.951  17.772  0.00  0.00    +0.000 A 
ATOM     18  C   UNL     1       1.316  11.182  18.929  0.00  0.00    +0.000 A 
ATOM     19  C   UNL     1       1.049  10.127  19.806  0.00  0.00    +0.000 A 
ATOM     20  N   UNL     1       1.494   8.862  19.567  0.00  0.00    +0.000 NA
BRANCH  19  21
ATOM     21  C   UNL     1       0.237  10.311  21.028  0.00  0.00    +0.000 A 
ATOM     22  C   UNL     1      -0.677  11.376  21.155  0.00  0.00    +0.000 A 
ATOM     23  C   UNL     1      -1.437  11.553  22.314  0.00  0.00    +0.000 A 
ATOM     24  C   UNL     1      -1.305  10.665  23.374  0.00  0.00    +0.000 A 
ATOM     25  C   UNL     1      -0.418   9.597  23.273  0.00  0.00    +0.000 A 
ATOM     26  C   UNL     1       0.342   9.421  22.112  0.00  0.00    +0.000 A 
ENDBRANCH  19  21
ENDBRANCH  12  15
ENDBRANCH   1  11
BRANCH   1  27
ATOM     27  C   UNL     1       5.470   5.910  16.203  0.00  0.00    +0.000 C 
BRANCH  27  28
ATOM     28  C   UNL     1       5.390   4.878  15.081  0.00  0.00    +0.000 C 
BRANCH  28  29
ATOM     29  C   UNL     1       6.677   4.573  14.363  0.00  0.00    +0.000 C 
ATOM     30  O   UNL     1       7.692   5.249  14.401  0.00  0.00    +0.000 OA
BRANCH  29  31
ATOM     31  O   UNL     1       6.485   3.417  13.669  0.00  0.00    +0.000 OA
BRANCH  31  33
ATOM     32  C   UNL     1       4.840   3.637  11.867  0.00  0.00    +0.000 C 
ATOM     33  C   UNL     1       6.309   3.419  12.231  0.00  0.00    +0.000 C 
ATOM     34  C   UNL     1       6.856   2.122  11.629  0.00  0.00    +0.000 C 
ATOM     35  C   UNL     1       7.113   4.624  11.707  0.00  0.00    +0.000 C 
ENDBRANCH  31  33
ENDBRANCH  29  31
ENDBRANCH  28  29
ENDBRANCH  27  28
ENDBRANCH   1  27
TORSDOF 9
ENDMDL
MODEL 2
REMARK VINA RESULT:      -8.1      3.271      5.669
REMARK  Name = 
REMARK  12 active torsions:
REMARK  status: ('A' for Active; 'I' for Inactive)
REMARK    1  A    between atoms: C_1  and  C_2
REMARK    2  A    between atoms: C_2  and  C_3
REMARK    3  A    between atoms: C_2  and  C_4
REMARK    4  A    between atoms: C_2  and  O_5
REMARK    5  A    between atoms: O_5  and  C_6
REMARK    6  A    between atoms: C_6  and  C_8
REMARK    7  A    between atoms: C_8  and  C_9
REMARK    8  A    between atoms: C_9  and  C_10
REMARK    9  A    between atoms: C_10  and  N_11
REMARK   10  A    between atoms: C_10  and  C_26
REMARK   11  A    between atoms: C_12  and  C_14
REMARK   12  A    between atoms: C_18  and  C_19
REMARK                            x       y       z     vdW  Elec       q    Type
REMARK                         _______ _______ _______ _____ _____    ______ ____
ROOT
ATOM      1  C   UNL     1       2.695   7.064  19.199  0.00  0.00    +0.000 C 
ENDROOT
BRANCH   1   2
ATOM      2  C   UNL     1       3.612   7.147  17.918  0.00  0.00    +0.000 C 
ATOM      3  O   UNL     1       3.270   7.832  16.949  0.00  0.00    +0.000 OA
ATOM      4  N   UNL     1       4.816   6.457  17.895  0.00  0.00    +0.000 N 
ATOM      5  C   UNL     1       5.772   6.637  16.794  0.00  0.00    +0.000 C 
ATOM      6  C   UNL     1       7.235   6.707  17.310  0.00  0.00    +0.000 C 
ATOM      7  N   UNL     1       7.600   5.708  18.336  0.00  0.00    +0.000 NA
ATOM      8  C   UNL     1       6.559   5.608  19.378  0.00  0.00    +0.000 C 
ATOM      9  C   UNL     1       5.182   5.338  18.756  0.00  0.00    +0.000 C 
ATOM     10  H   UNL     1       8.481   5.982  18.771  0.00  0.00    +0.000 HD
ENDBRANCH   1   2
BRANCH   1  11
ATOM     11  N   UNL     1       1.799   8.226  19.289  0.00  0.00    +0.000 N 
ATOM     12  C   UNL     1       1.357   8.700  20.518  0.00  0.00    +0.000 C 
ATOM     13  O   UNL     1       1.774   8.283  21.578  0.00  0.00    +0.000 OA
ATOM     14  H   UNL     1       1.259   8.510  18.480  0.00  0.00    +0.000 HD
BRANCH  12  15
ATOM     15  C   UNL     1       0.326   9.796  20.454  0.00  0.00    +0.000 A 
ATOM     16  C   UNL     1       0.356  10.814  21.401  0.00  0.00    +0.000 A 
ATOM     17  C   UNL     1      -0.532  11.876  21.250  0.00  0.00    +0.000 A 
ATOM     18  C   UNL     1      -1.405  11.878  20.169  0.00  0.00    +0.000 A 
ATOM     19  C   UNL     1      -1.389  10.814  19.261  0.00  0.00    +0.000 A 
ATOM     20  N   UNL     1      -0.541   9.759  19.403  0.00  0.00    +0.000 NA
BRANCH  19  21
ATOM     21  C   UNL     1      -2.268  10.789  18.072  0.00  0.00    +0.000 A 
ATOM     22  C   UNL     1      -1.952  10.017  16.936  0.00  0.00    +0.000 A 
ATOM     23  C   UNL     1      -2.779  10.001  15.810  0.00  0.00    +0.000 A 
ATOM     24  C   UNL     1      -3.947  10.755  15.794  0.00  0.00    +0.000 A 
ATOM     25  C   UNL     1      -4.290  11.519  16.907  0.00  0.00    +0.000 A 
ATOM     26  C   UNL     1      -3.461  11.532  18.033  0.00  0.00    +0.000 A 
ENDBRANCH  19  21
ENDBRANCH  12  15
ENDBRANCH   1  11
BRANCH   1  27
ATOM     27  C   UNL     1       1.851   5.769  19.264  0.00  0.00    +0.000 C 
BRANCH  27  28
ATOM     28  C   UNL     1       1.961   5.130  20.646  0.00  0.00    +0.000 C 
BRANCH  28  29
ATOM     29  C   UNL     1       2.423   3.698  20.682  0.00  0.00    +0.000 C 
ATOM     30  O   UNL     1       2.235   2.911  21.596  0.00  0.00    +0.000 OA
BRANCH  29  31
ATOM     31  O   UNL     1       3.088   3.461  19.517  0.00  0.00    +0.000 OA
BRANCH  31  33
ATOM     32  C   UNL     1       2.671   3.142  17.125  0.00  0.00    +0.000 C 
ATOM     33  C   UNL     1       2.572   2.539  18.526  0.00  0.00    +0.000 C 
ATOM     34  C   UNL     1       1.135   2.140  18.872  0.00  0.00    +0.000 C 
ATOM     35  C   UNL     1       3.490   1.302  18.578  0.00  0.00    +0.000 C 
ENDBRANCH  31  33
ENDBRANCH  29  31
ENDBRANCH  28  29
ENDBRANCH  27  28
ENDBRANCH   1  27
TORSDOF 9
ENDMDL
MODEL 3
REMARK VINA RESULT:      -8.0      4.025      9.610
REMARK  Name = 
REMARK  12 active torsions:
REMARK  status: ('A' for Active; 'I' for Inactive)
REMARK    1  A    between atoms: C_1  and  C_2
REMARK    2  A    between atoms: C_2  and  C_3
REMARK    3  A    between atoms: C_2  and  C_4
REMARK    4  A    between atoms: C_2  and  O_5
REMARK    5  A    between atoms: O_5  and  C_6
REMARK    6  A    between atoms: C_6  and  C_8
REMARK    7  A    between atoms: C_8  and  C_9
REMARK    8  A    between atoms: C_9  and  C_10
REMARK    9  A    between atoms: C_10  and  N_11
REMARK   10  A    between atoms: C_10  and  C_26
REMARK   11  A    between atoms: C_12  and  C_14
REMARK   12  A    between atoms: C_18  and  C_19
REMARK                            x       y       z     vdW  Elec       q    Type
REMARK                         _______ _______ _______ _____ _____    ______ ____
ROOT
ATOM      1  C   UNL     1      -0.224  10.540  18.559  0.00  0.00    +0.000 C 
ENDROOT
BRANCH   1   2
ATOM      2  C   UNL     1       0.012  11.375  19.876  0.00  0.00    +0.000 C 
ATOM      3  O   UNL     1      -0.374  10.942  20.967  0.00  0.00    +0.000 OA
ATOM      4  N   UNL     1       0.672  12.594  19.803  0.00  0.00    +0.000 N 
ATOM      5  C   UNL     1       1.055  13.323  21.019  0.00  0.00    +0.000 C 
ATOM      6  C   UNL     1       2.473  13.943  20.894  0.00  0.00    +0.000 C 
ATOM      7  N   UNL     1       2.766  14.614  19.611  0.00  0.00    +0.000 NA
ATOM      8  C   UNL     1       2.324  13.794  18.466  0.00  0.00    +0.000 C 
ATOM      9  C   UNL     1       0.845  13.407  18.604  0.00  0.00    +0.000 C 
ATOM     10  H   UNL     1       3.772  14.772  19.538  0.00  0.00    +0.000 HD
ENDBRANCH   1   2
BRANCH   1  11
ATOM     11  N   UNL     1       0.637   9.349  18.521  0.00  0.00    +0.000 N 
ATOM     12  C   UNL     1       1.912   9.400  17.973  0.00  0.00    +0.000 C 
ATOM     13  O   UNL     1       2.441  10.433  17.620  0.00  0.00    +0.000 OA
ATOM     14  H   UNL     1       0.225   8.427  18.610  0.00  0.00    +0.000 HD
BRANCH  12  15
ATOM     15  C   UNL     1       2.621   8.076  17.861  0.00  0.00    +0.000 A 
ATOM     16  C   UNL     1       3.797   7.994  17.124  0.00  0.00    +0.000 A 
ATOM     17  C   UNL     1       4.495   6.789  17.135  0.00  0.00    +0.000 A 
ATOM     18  C   UNL     1       3.993   5.725  17.875  0.00  0.00    +0.000 A 
ATOM     19  C   UNL     1       2.797   5.874  18.584  0.00  0.00    +0.000 A 
ATOM     20  N   UNL     1       2.092   7.039  18.571  0.00  0.00    +0.000 NA
BRANCH  19  21
ATOM     21  C   UNL     1       2.243   4.787  19.420  0.00  0.00    +0.000 A 
ATOM     22  C   UNL     1       1.374   3.815  18.889  0.00  0.00    +0.000 A 
ATOM     23  C   UNL     1       0.845   2.794  19.683  0.00  0.00    +0.000 A 
ATOM     24  C   UNL     1       1.178   2.719  21.030  0.00  0.00    +0.000 A 
ATOM     25  C   UNL     1       2.044   3.660  21.581  0.00  0.00    +0.000 A 
ATOM     26  C   UNL     1       2.572   4.680  20.784  0.00  0.00    +0.000 A 
ENDBRANCH  19  21
ENDBRANCH  12  15
ENDBRANCH   1  11
BRANCH   1  27
ATOM     27  C   UNL     1      -1.696  10.107  18.365  0.00  0.00    +0.000 C 
BRANCH  27  28
ATOM     28  C   UNL     1      -2.071  10.138  16.885  0.00  0.00    +0.000 C 
BRANCH  28  29
ATOM     29  C   UNL     1      -3.377  10.800  16.542  0.00  0.00    +0.000 C 
ATOM     30  O   UNL     1      -4.055  10.571  15.554  0.00  0.00    +0.000 OA
BRANCH  29  31
ATOM     31  O   UNL     1      -3.644  11.698  17.532  0.00  0.00    +0.000 OA
BRANCH  31  33
ATOM     32  C   UNL     1      -4.875  12.519  19.484  0.00  0.00    +0.000 C 
ATOM     33  C   UNL     1      -4.951  11.771  18.154  0.00  0.00    +0.000 C 
ATOM     34  C   UNL     1      -5.535  10.367  18.325  0.00  0.00    +0.000 C 
ATOM     35  C   UNL     1      -5.831  12.595  17.194  0.00  0.00    +0.000 C 
ENDBRANCH  31  33
ENDBRANCH  29  31
ENDBRANCH  28  29
ENDBRANCH  27  28
ENDBRANCH   1  27
TORSDOF 9
ENDMDL
MODEL 4
REMARK VINA RESULT:      -7.9      0.268      1.169
REMARK  Name = 
REMARK  12 active torsions:
REMARK  status: ('A' for Active; 'I' for Inactive)
REMARK    1  A    between atoms: C_1  and  C_2
REMARK    2  A    between atoms: C_2  and  C_3
REMARK    3  A    between atoms: C_2  and  C_4
REMARK    4  A    between atoms: C_2  and  O_5
REMARK    5  A    between atoms: O_5  and  C_6
REMARK    6  A    between atoms: C_6  and  C_8
REMARK    7  A    between atoms: C_8  and  C_9
REMARK    8  A    between atoms: C_9  and  C_10
REMARK    9  A    between atoms: C_10  and  N_11
REMARK   10  A    between atoms: C_10  and  C_26
REMARK   11  A    between atoms: C_12  and  C_14
REMARK   12  A    between atoms: C_18  and  C_19
REMARK                            x       y       z     vdW  Elec       q    Type
REMARK                         _______ _______ _______ _____ _____    ______ ____
ROOT
ATOM      1  C   UNL     1       4.421   5.646  17.227  0.00  0.00    +0.000 C 
ENDROOT
BRANCH   1   2
ATOM      2  C   UNL     1       4.711   4.707  18.461  0.00  0.00    +0.000 C 
ATOM      3  O   UNL     1       5.611   4.986  19.259  0.00  0.00    +0.000 OA
ATOM      4  N   UNL     1       3.936   3.572  18.652  0.00  0.00    +0.000 N 
ATOM      5  C   UNL     1       4.065   2.762  19.870  0.00  0.00    +0.000 C 
ATOM      6  C   UNL     1       2.681   2.297  20.400  0.00  0.00    +0.000 C 
ATOM      7  N   UNL     1       1.741   1.794  19.377  0.00  0.00    +0.000 NA
ATOM      8  C   UNL     1       1.709   2.681  18.198  0.00  0.00    +0.000 C 
ATOM      9  C   UNL     1       3.121   2.907  17.641  0.00  0.00    +0.000 C 
ATOM     10  H   UNL     1       0.805   1.741  19.779  0.00  0.00    +0.000 HD
ENDBRANCH   1   2
BRANCH   1  11
ATOM     11  N   UNL     1       3.947   6.968  17.663  0.00  0.00    +0.000 N 
ATOM     12  C   UNL     1       2.685   7.134  18.219  0.00  0.00    +0.000 C 
ATOM     13  O   UNL     1       1.958   6.204  18.499  0.00  0.00    +0.000 OA
ATOM     14  H   UNL     1       4.391   7.806  17.303  0.00  0.00    +0.000 HD
BRANCH  12  15
ATOM     15  C   UNL     1       2.274   8.559  18.477  0.00  0.00    +0.000 A 
ATOM     16  C   UNL     1       2.532   9.526  17.512  0.00  0.00    +0.000 A 
ATOM     17  C   UNL     1       2.036  10.811  17.722  0.00  0.00    +0.000 A 
ATOM     18  C   UNL     1       1.310  11.073  18.878  0.00  0.00    +0.000 A 
ATOM     19  C   UNL     1       1.099  10.055  19.813  0.00  0.00    +0.000 A 
ATOM     20  N   UNL     1       1.591   8.798  19.632  0.00  0.00    +0.000 NA
BRANCH  19  21
ATOM     21  C   UNL     1       0.298  10.270  21.036  0.00  0.00    +0.000 A 
ATOM     22  C   UNL     1       0.332   9.362  22.112  0.00  0.00    +0.000 A 
ATOM     23  C   UNL     1      -0.432   9.563  23.265  0.00  0.00    +0.000 A 
ATOM     24  C   UNL     1      -1.249  10.683  23.370  0.00  0.00    +0.000 A 
ATOM     25  C   UNL     1      -1.295  11.604  22.327  0.00  0.00    +0.000 A 
ATOM     26  C   UNL     1      -0.528  11.400  21.174  0.00  0.00    +0.000 A 
ENDBRANCH  19  21
ENDBRANCH  12  15
ENDBRANCH   1  11
BRANCH   1  27
ATOM     27  C   UNL     1       5.642   5.828  16.296  0.00  0.00    +0.000 C 
BRANCH  27  28
ATOM     28  C   UNL     1       6.123   4.476  15.777  0.00  0.00    +0.000 C 
BRANCH  28  29
ATOM     29  C   UNL     1       6.822   4.483  14.445  0.00  0.00    +0.000 C 
ATOM     30  O   UNL     1       7.664   5.291  14.086  0.00  0.00    +0.000 OA
BRANCH  29  31
ATOM     31  O   UNL     1       6.333   3.432  13.728  0.00  0.00    +0.000 OA
BRANCH  31  33
ATOM     32  C   UNL     1       7.164   4.548  11.713  0.00  0.00    +0.000 C 
ATOM     33  C   UNL     1       6.224   3.487  12.285  0.00  0.00    +0.000 C 
ATOM     34  C   UNL     1       4.771   3.735  11.873  0.00  0.00    +0.000 C 
ATOM     35  C   UNL     1       6.691   2.111  11.772  0.00  0.00    +0.000 C 
ENDBRANCH  31  33
ENDBRANCH  29  31
ENDBRANCH  28  29
ENDBRANCH  27  28
ENDBRANCH   1  27
TORSDOF 9
ENDMDL
MODEL 5
REMARK VINA RESULT:      -7.9      3.976      9.526
REMARK  Name = 
REMARK  12 active torsions:
REMARK  status: ('A' for Active; 'I' for Inactive)
REMARK    1  A    between atoms: C_1  and  C_2
REMARK    2  A    between atoms: C_2  and  C_3
REMARK    3  A    between atoms: C_2  and  C_4
REMARK    4  A    between atoms: C_2  and  O_5
REMARK    5  A    between atoms: O_5  and  C_6
REMARK    6  A    between atoms: C_6  and  C_8
REMARK    7  A    between atoms: C_8  and  C_9
REMARK    8  A    between atoms: C_9  and  C_10
REMARK    9  A    between atoms: C_10  and  N_11
REMARK   10  A    between atoms: C_10  and  C_26
REMARK   11  A    between atoms: C_12  and  C_14
REMARK   12  A    between atoms: C_18  and  C_19
REMARK                            x       y       z     vdW  Elec       q    Type
REMARK                         _______ _______ _______ _____ _____    ______ ____
ROOT
ATOM      1  C   UNL     1       0.037  10.578  18.741  0.00  0.00    +0.000 C 
ENDROOT
BRANCH   1   2
ATOM      2  C   UNL     1       0.410  11.493  19.970  0.00  0.00    +0.000 C 
ATOM      3  O   UNL     1       0.095  11.159  21.117  0.00  0.00    +0.000 OA
ATOM      4  N   UNL     1       1.112  12.672  19.755  0.00  0.00    +0.000 N 
ATOM      5  C   UNL     1       1.620  13.468  20.881  0.00  0.00    +0.000 C 
ATOM      6  C   UNL     1       3.047  14.011  20.602  0.00  0.00    +0.000 C 
ATOM      7  N   UNL     1       3.265  14.573  19.253  0.00  0.00    +0.000 NA
ATOM      8  C   UNL     1       2.701  13.694  18.210  0.00  0.00    +0.000 C 
ATOM      9  C   UNL     1       1.223  13.387  18.489  0.00  0.00    +0.000 C 
ATOM     10  H   UNL     1       4.267  14.679  19.092  0.00  0.00    +0.000 HD
ENDBRANCH   1   2
BRANCH   1  11
ATOM     11  N   UNL     1       0.887   9.379  18.692  0.00  0.00    +0.000 N 
ATOM     12  C   UNL     1       2.051   9.352  17.934  0.00  0.00    +0.000 C 
ATOM     13  O   UNL     1       2.504  10.333  17.383  0.00  0.00    +0.000 OA
ATOM     14  H   UNL     1       0.502   8.478  18.953  0.00  0.00    +0.000 HD
BRANCH  12  15
ATOM     15  C   UNL     1       2.739   8.016  17.853  0.00  0.00    +0.000 A 
ATOM     16  C   UNL     1       3.923   7.903  17.133  0.00  0.00    +0.000 A 
ATOM     17  C   UNL     1       4.601   6.687  17.173  0.00  0.00    +0.000 A 
ATOM     18  C   UNL     1       4.072   5.643  17.923  0.00  0.00    +0.000 A 
ATOM     19  C   UNL     1       2.869   5.823  18.612  0.00  0.00    +0.000 A 
ATOM     20  N   UNL     1       2.183   6.998  18.571  0.00  0.00    +0.000 NA
BRANCH  19  21
ATOM     21  C   UNL     1       2.286   4.759  19.458  0.00  0.00    +0.000 A 
ATOM     22  C   UNL     1       2.622   4.630  20.820  0.00  0.00    +0.000 A 
ATOM     23  C   UNL     1       2.077   3.618  21.616  0.00  0.00    +0.000 A 
ATOM     24  C   UNL     1       1.177   2.712  21.067  0.00  0.00    +0.000 A 
ATOM     25  C   UNL     1       0.818   2.822  19.726  0.00  0.00    +0.000 A 
ATOM     26  C   UNL     1       1.364   3.836  18.932  0.00  0.00    +0.000 A 
ENDBRANCH  19  21
ENDBRANCH  12  15
ENDBRANCH   1  11
BRANCH   1  27
ATOM     27  C   UNL     1      -1.448  10.145  18.730  0.00  0.00    +0.000 C 
BRANCH  27  28
ATOM     28  C   UNL     1      -1.911   9.868  17.302  0.00  0.00    +0.000 C 
BRANCH  28  29
ATOM     29  C   UNL     1      -3.056  10.704  16.798  0.00  0.00    +0.000 C 
ATOM     30  O   UNL     1      -2.985  11.563  15.934  0.00  0.00    +0.000 OA
BRANCH  29  31
ATOM     31  O   UNL     1      -4.166  10.326  17.492  0.00  0.00    +0.000 OA
BRANCH  31  33
ATOM     32  C   UNL     1      -6.221  10.612  18.794  0.00  0.00    +0.000 C 
ATOM     33  C   UNL     1      -5.076  11.303  18.054  0.00  0.00    +0.000 C 
ATOM     34  C   UNL     1      -5.592  12.238  16.958  0.00  0.00    +0.000 C 
ATOM     35  C   UNL     1      -4.256  12.103  19.086  0.00  0.00    +0.000 C 
ENDBRANCH  31  33
ENDBRANCH  29  31
ENDBRANCH  28  29
ENDBRANCH  27  28
ENDBRANCH   1  27
TORSDOF 9
ENDMDL
MODEL 6
REMARK VINA RESULT:      -7.8      3.780     10.185
REMARK  Name = 
REMARK  12 active torsions:
REMARK  status: ('A' for Active; 'I' for Inactive)
REMARK    1  A    between atoms: C_1  and  C_2
REMARK    2  A    between atoms: C_2  and  C_3
REMARK    3  A    between atoms: C_2  and  C_4
REMARK    4  A    between atoms: C_2  and  O_5
REMARK    5  A    between atoms: O_5  and  C_6
REMARK    6  A    between atoms: C_6  and  C_8
REMARK    7  A    between atoms: C_8  and  C_9
REMARK    8  A    between atoms: C_9  and  C_10
REMARK    9  A    between atoms: C_10  and  N_11
REMARK   10  A    between atoms: C_10  and  C_26
REMARK   11  A    between atoms: C_12  and  C_14
REMARK   12  A    between atoms: C_18  and  C_19
REMARK                            x       y       z     vdW  Elec       q    Type
REMARK                         _______ _______ _______ _____ _____    ______ ____
ROOT
ATOM      1  C   UNL     1      -0.346  10.625  18.691  0.00  0.00    +0.000 C 
ENDROOT
BRANCH   1   2
ATOM      2  C   UNL     1      -0.317  11.774  19.771  0.00  0.00    +0.000 C 
ATOM      3  O   UNL     1      -1.089  11.744  20.735  0.00  0.00    +0.000 OA
ATOM      4  N   UNL     1       0.595  12.812  19.640  0.00  0.00    +0.000 N 
ATOM      5  C   UNL     1       0.766  13.811  20.703  0.00  0.00    +0.000 C 
ATOM      6  C   UNL     1       2.262  14.163  20.925  0.00  0.00    +0.000 C 
ATOM      7  N   UNL     1       3.058  14.373  19.698  0.00  0.00    +0.000 NA
ATOM      8  C   UNL     1       2.790  13.318  18.701  0.00  0.00    +0.000 C 
ATOM      9  C   UNL     1       1.287  13.198  18.415  0.00  0.00    +0.000 C 
ATOM     10  H   UNL     1       4.050  14.362  19.936  0.00  0.00    +0.000 HD
ENDBRANCH   1   2
BRANCH   1  11
ATOM     11  N   UNL     1       0.494   9.490  19.098  0.00  0.00    +0.000 N 
ATOM     12  C   UNL     1       1.607   9.115  18.356  0.00  0.00    +0.000 C 
ATOM     13  O   UNL     1       2.028   9.763  17.421  0.00  0.00    +0.000 OA
ATOM     14  H   UNL     1       0.124   8.791  19.732  0.00  0.00    +0.000 HD
BRANCH  12  15
ATOM     15  C   UNL     1       2.283   7.845  18.801  0.00  0.00    +0.000 A 
ATOM     16  C   UNL     1       1.827   7.196  19.943  0.00  0.00    +0.000 A 
ATOM     17  C   UNL     1       2.390   5.963  20.265  0.00  0.00    +0.000 A 
ATOM     18  C   UNL     1       3.376   5.436  19.440  0.00  0.00    +0.000 A 
ATOM     19  C   UNL     1       3.796   6.149  18.313  0.00  0.00    +0.000 A 
ATOM     20  N   UNL     1       3.270   7.363  17.993  0.00  0.00    +0.000 NA
BRANCH  19  21
ATOM     21  C   UNL     1       4.811   5.613  17.381  0.00  0.00    +0.000 A 
ATOM     22  C   UNL     1       4.597   4.421  16.661  0.00  0.00    +0.000 A 
ATOM     23  C   UNL     1       5.560   3.911  15.787  0.00  0.00    +0.000 A 
ATOM     24  C   UNL     1       6.762   4.585  15.608  0.00  0.00    +0.000 A 
ATOM     25  C   UNL     1       6.997   5.772  16.298  0.00  0.00    +0.000 A 
ATOM     26  C   UNL     1       6.031   6.280  17.172  0.00  0.00    +0.000 A 
ENDBRANCH  19  21
ENDBRANCH  12  15
ENDBRANCH   1  11
BRANCH   1  27
ATOM     27  C   UNL     1      -1.773  10.113  18.381  0.00  0.00    +0.000 C 
BRANCH  27  28
ATOM     28  C   UNL     1      -2.075  10.250  16.891  0.00  0.00    +0.000 C 
BRANCH  28  29
ATOM     29  C   UNL     1      -3.394  10.880  16.535  0.00  0.00    +0.000 C 
ATOM     30  O   UNL     1      -4.066  10.620  15.550  0.00  0.00    +0.000 OA
BRANCH  29  31
ATOM     31  O   UNL     1      -3.681  11.789  17.508  0.00  0.00    +0.000 OA
BRANCH  31  33
ATOM     32  C   UNL     1      -5.957  12.643  17.210  0.00  0.00    +0.000 C 
ATOM     33  C   UNL     1      -4.997  11.864  18.109  0.00  0.00    +0.000 C 
ATOM     34  C   UNL     1      -4.906  12.477  19.508  0.00  0.00    +0.000 C 
ATOM     35  C   UNL     1      -5.504  10.412  18.201  0.00  0.00    +0.000 C 
ENDBRANCH  31  33
ENDBRANCH  29  31
ENDBRANCH  28  29
ENDBRANCH  27  28
ENDBRANCH   1  27
TORSDOF 9
ENDMDL
MODEL 7
REMARK VINA RESULT:      -7.8      2.472      8.313
REMARK  Name = 
REMARK  12 active torsions:
REMARK  status: ('A' for Active; 'I' for Inactive)
REMARK    1  A    between atoms: C_1  and  C_2
REMARK    2  A    between atoms: C_2  and  C_3
REMARK    3  A    between atoms: C_2  and  C_4
REMARK    4  A    between atoms: C_2  and  O_5
REMARK    5  A    between atoms: O_5  and  C_6
REMARK    6  A    between atoms: C_6  and  C_8
REMARK    7  A    between atoms: C_8  and  C_9
REMARK    8  A    between atoms: C_9  and  C_10
REMARK    9  A    between atoms: C_10  and  N_11
REMARK   10  A    between atoms: C_10  and  C_26
REMARK   11  A    between atoms: C_12  and  C_14
REMARK   12  A    between atoms: C_18  and  C_19
REMARK                            x       y       z     vdW  Elec       q    Type
REMARK                         _______ _______ _______ _____ _____    ______ ____
ROOT
ATOM      1  C   UNL     1       1.758   6.703  20.079  0.00  0.00    +0.000 C 
ENDROOT
BRANCH   1   2
ATOM      2  C   UNL     1       1.494   8.112  20.739  0.00  0.00    +0.000 C 
ATOM      3  O   UNL     1       1.555   8.248  21.965  0.00  0.00    +0.000 OA
ATOM      4  N   UNL     1       1.208   9.202  19.929  0.00  0.00    +0.000 N 
ATOM      5  C   UNL     1       1.117  10.558  20.487  0.00  0.00    +0.000 C 
ATOM      6  C   UNL     1       1.791  11.606  19.560  0.00  0.00    +0.000 C 
ATOM      7  N   UNL     1       1.493  11.471  18.119  0.00  0.00    +0.000 NA
ATOM      8  C   UNL     1       1.602  10.066  17.681  0.00  0.00    +0.000 C 
ATOM      9  C   UNL     1       0.733   9.148  18.551  0.00  0.00    +0.000 C 
ATOM     10  H   UNL     1       2.152  12.039  17.586  0.00  0.00    +0.000 HD
ENDBRANCH   1   2
BRANCH   1  11
ATOM     11  N   UNL     1       3.110   6.627  19.510  0.00  0.00    +0.000 N 
ATOM     12  C   UNL     1       3.309   6.443  18.147  0.00  0.00    +0.000 C 
ATOM     13  O   UNL     1       2.406   6.466  17.338  0.00  0.00    +0.000 OA
ATOM     14  H   UNL     1       3.898   6.408  20.110  0.00  0.00    +0.000 HD
BRANCH  12  15
ATOM     15  C   UNL     1       4.738   6.229  17.725  0.00  0.00    +0.000 A 
ATOM     16  C   UNL     1       5.755   6.395  18.658  0.00  0.00    +0.000 A 
ATOM     17  C   UNL     1       7.055   6.076  18.275  0.00  0.00    +0.000 A 
ATOM     18  C   UNL     1       7.284   5.609  16.986  0.00  0.00    +0.000 A 
ATOM     19  C   UNL     1       6.214   5.478  16.094  0.00  0.00    +0.000 A 
ATOM     20  N   UNL     1       4.940   5.802  16.446  0.00  0.00    +0.000 NA
BRANCH  19  21
ATOM     21  C   UNL     1       6.397   4.945  14.727  0.00  0.00    +0.000 A 
ATOM     22  C   UNL     1       5.488   4.030  14.163  0.00  0.00    +0.000 A 
ATOM     23  C   UNL     1       5.666   3.521  12.873  0.00  0.00    +0.000 A 
ATOM     24  C   UNL     1       6.761   3.920  12.115  0.00  0.00    +0.000 A 
ATOM     25  C   UNL     1       7.671   4.832  12.643  0.00  0.00    +0.000 A 
ATOM     26  C   UNL     1       7.489   5.340  13.933  0.00  0.00    +0.000 A 
ENDBRANCH  19  21
ENDBRANCH  12  15
ENDBRANCH   1  11
BRANCH   1  27
ATOM     27  C   UNL     1       1.553   5.522  21.057  0.00  0.00    +0.000 C 
BRANCH  27  28
ATOM     28  C   UNL     1       1.144   4.264  20.295  0.00  0.00    +0.000 C 
BRANCH  28  29
ATOM     29  C   UNL     1       1.751   2.972  20.769  0.00  0.00    +0.000 C 
ATOM     30  O   UNL     1       1.993   2.680  21.928  0.00  0.00    +0.000 OA
BRANCH  29  31
ATOM     31  O   UNL     1       1.979   2.207  19.664  0.00  0.00    +0.000 OA
BRANCH  31  33
ATOM     32  C   UNL     1       3.777   0.946  18.579  0.00  0.00    +0.000 C 
ATOM     33  C   UNL     1       3.205   2.326  18.902  0.00  0.00    +0.000 C 
ATOM     34  C   UNL     1       4.214   3.195  19.656  0.00  0.00    +0.000 C 
ATOM     35  C   UNL     1       2.815   3.003  17.574  0.00  0.00    +0.000 C 
ENDBRANCH  31  33
ENDBRANCH  29  31
ENDBRANCH  28  29
ENDBRANCH  27  28
ENDBRANCH   1  27
TORSDOF 9
ENDMDL
MODEL 8
REMARK VINA RESULT:      -7.8      3.845     10.304
REMARK  Name = 
REMARK  12 active torsions:
REMARK  status: ('A' for Active; 'I' for Inactive)
REMARK    1  A    between atoms: C_1  and  C_2
REMARK    2  A    between atoms: C_2  and  C_3
REMARK    3  A    between atoms: C_2  and  C_4
REMARK    4  A    between atoms: C_2  and  O_5
REMARK    5  A    between atoms: O_5  and  C_6
REMARK    6  A    between atoms: C_6  and  C_8
REMARK    7  A    between atoms: C_8  and  C_9
REMARK    8  A    between atoms: C_9  and  C_10
REMARK    9  A    between atoms: C_10  and  N_11
REMARK   10  A    between atoms: C_10  and  C_26
REMARK   11  A    between atoms: C_12  and  C_14
REMARK   12  A    between atoms: C_18  and  C_19
REMARK                            x       y       z     vdW  Elec       q    Type
REMARK                         _______ _______ _______ _____ _____    ______ ____
ROOT
ATOM      1  C   UNL     1      -0.181  10.731  18.650  0.00  0.00    +0.000 C 
ENDROOT
BRANCH   1   2
ATOM      2  C   UNL     1      -0.151  11.835  19.777  0.00  0.00    +0.000 C 
ATOM      3  O   UNL     1      -0.885  11.738  20.765  0.00  0.00    +0.000 OA
ATOM      4  N   UNL     1       0.720  12.909  19.657  0.00  0.00    +0.000 N 
ATOM      5  C   UNL     1       0.896  13.868  20.756  0.00  0.00    +0.000 C 
ATOM      6  C   UNL     1       2.386  14.264  20.939  0.00  0.00    +0.000 C 
ATOM      7  N   UNL     1       3.129  14.553  19.694  0.00  0.00    +0.000 NA
ATOM      8  C   UNL     1       2.860  13.530  18.663  0.00  0.00    +0.000 C 
ATOM      9  C   UNL     1       1.353  13.369  18.426  0.00  0.00    +0.000 C 
ATOM     10  H   UNL     1       4.128  14.567  19.896  0.00  0.00    +0.000 HD
ENDBRANCH   1   2
BRANCH   1  11
ATOM     11  N   UNL     1       0.604   9.551  19.040  0.00  0.00    +0.000 N 
ATOM     12  C   UNL     1       1.747   9.183  18.341  0.00  0.00    +0.000 C 
ATOM     13  O   UNL     1       2.238   9.868  17.468  0.00  0.00    +0.000 OA
ATOM     14  H   UNL     1       0.179   8.830  19.612  0.00  0.00    +0.000 HD
BRANCH  12  15
ATOM     15  C   UNL     1       2.362   7.872  18.751  0.00  0.00    +0.000 A 
ATOM     16  C   UNL     1       1.858   7.201  19.860  0.00  0.00    +0.000 A 
ATOM     17  C   UNL     1       2.364   5.936  20.147  0.00  0.00    +0.000 A 
ATOM     18  C   UNL     1       3.344   5.398  19.322  0.00  0.00    +0.000 A 
ATOM     19  C   UNL     1       3.815   6.134  18.230  0.00  0.00    +0.000 A 
ATOM     20  N   UNL     1       3.345   7.379  17.945  0.00  0.00    +0.000 NA
BRANCH  19  21
ATOM     21  C   UNL     1       4.826   5.590  17.297  0.00  0.00    +0.000 A 
ATOM     22  C   UNL     1       6.061   6.232  17.089  0.00  0.00    +0.000 A 
ATOM     23  C   UNL     1       7.012   5.722  16.201  0.00  0.00    +0.000 A 
ATOM     24  C   UNL     1       6.749   4.550  15.502  0.00  0.00    +0.000 A 
ATOM     25  C   UNL     1       5.540   3.886  15.695  0.00  0.00    +0.000 A 
ATOM     26  C   UNL     1       4.591   4.400  16.585  0.00  0.00    +0.000 A 
ENDBRANCH  19  21
ENDBRANCH  12  15
ENDBRANCH   1  11
BRANCH   1  27
ATOM     27  C   UNL     1      -1.612  10.284  18.270  0.00  0.00    +0.000 C 
BRANCH  27  28
ATOM     28  C   UNL     1      -2.370  11.430  17.605  0.00  0.00    +0.000 C 
BRANCH  28  29
ATOM     29  C   UNL     1      -3.595  11.051  16.820  0.00  0.00    +0.000 C 
ATOM     30  O   UNL     1      -3.714  11.116  15.607  0.00  0.00    +0.000 OA
BRANCH  29  31
ATOM     31  O   UNL     1      -4.534  10.636  17.716  0.00  0.00    +0.000 OA
BRANCH  31  33
ATOM     32  C   UNL     1      -6.816  10.732  18.602  0.00  0.00    +0.000 C 
ATOM     33  C   UNL     1      -5.577  11.525  18.185  0.00  0.00    +0.000 C 
ATOM     34  C   UNL     1      -5.905  12.569  17.115  0.00  0.00    +0.000 C 
ATOM     35  C   UNL     1      -5.010  12.217  19.441  0.00  0.00    +0.000 C 
ENDBRANCH  31  33
ENDBRANCH  29  31
ENDBRANCH  28  29
ENDBRANCH  27  28
ENDBRANCH   1  27
TORSDOF 9
ENDMDL
MODEL 9
REMARK VINA RESULT:      -7.8      3.804     10.274
REMARK  Name = 
REMARK  12 active torsions:
REMARK  status: ('A' for Active; 'I' for Inactive)
REMARK    1  A    between atoms: C_1  and  C_2
REMARK    2  A    between atoms: C_2  and  C_3
REMARK    3  A    between atoms: C_2  and  C_4
REMARK    4  A    between atoms: C_2  and  O_5
REMARK    5  A    between atoms: O_5  and  C_6
REMARK    6  A    between atoms: C_6  and  C_8
REMARK    7  A    between atoms: C_8  and  C_9
REMARK    8  A    between atoms: C_9  and  C_10
REMARK    9  A    between atoms: C_10  and  N_11
REMARK   10  A    between atoms: C_10  and  C_26
REMARK   11  A    between atoms: C_12  and  C_14
REMARK   12  A    between atoms: C_18  and  C_19
REMARK                            x       y       z     vdW  Elec       q    Type
REMARK                         _______ _______ _______ _____ _____    ______ ____
ROOT
ATOM      1  C   UNL     1      -0.084  10.687  18.660  0.00  0.00    +0.000 C 
ENDROOT
BRANCH   1   2
ATOM      2  C   UNL     1      -0.031  11.797  19.780  0.00  0.00    +0.000 C 
ATOM      3  O   UNL     1      -0.735  11.698  20.790  0.00  0.00    +0.000 OA
ATOM      4  N   UNL     1       0.825  12.878  19.628  0.00  0.00    +0.000 N 
ATOM      5  C   UNL     1       1.026  13.845  20.716  0.00  0.00    +0.000 C 
ATOM      6  C   UNL     1       2.517  14.256  20.852  0.00  0.00    +0.000 C 
ATOM      7  N   UNL     1       3.219  14.544  19.585  0.00  0.00    +0.000 NA
ATOM      8  C   UNL     1       2.930  13.514  18.567  0.00  0.00    +0.000 C 
ATOM      9  C   UNL     1       1.417  13.338  18.377  0.00  0.00    +0.000 C 
ATOM     10  H   UNL     1       4.224  14.569  19.756  0.00  0.00    +0.000 HD
ENDBRANCH   1   2
BRANCH   1  11
ATOM     11  N   UNL     1       0.717   9.513  19.035  0.00  0.00    +0.000 N 
ATOM     12  C   UNL     1       1.790   9.096  18.259  0.00  0.00    +0.000 C 
ATOM     13  O   UNL     1       2.213   9.733  17.317  0.00  0.00    +0.000 OA
ATOM     14  H   UNL     1       0.334   8.825  19.675  0.00  0.00    +0.000 HD
BRANCH  12  15
ATOM     15  C   UNL     1       2.422   7.794  18.676  0.00  0.00    +0.000 A 
ATOM     16  C   UNL     1       1.875   7.081  19.737  0.00  0.00    +0.000 A 
ATOM     17  C   UNL     1       2.404   5.825  20.025  0.00  0.00    +0.000 A 
ATOM     18  C   UNL     1       3.449   5.339  19.248  0.00  0.00    +0.000 A 
ATOM     19  C   UNL     1       3.960   6.116  18.204  0.00  0.00    +0.000 A 
ATOM     20  N   UNL     1       3.467   7.352  17.919  0.00  0.00    +0.000 NA
BRANCH  19  21
ATOM     21  C   UNL     1       5.041   5.627  17.321  0.00  0.00    +0.000 A 
ATOM     22  C   UNL     1       4.949   5.718  15.919  0.00  0.00    +0.000 A 
ATOM     23  C   UNL     1       5.968   5.248  15.086  0.00  0.00    +0.000 A 
ATOM     24  C   UNL     1       7.109   4.677  15.639  0.00  0.00    +0.000 A 
ATOM     25  C   UNL     1       7.232   4.583  17.023  0.00  0.00    +0.000 A 
ATOM     26  C   UNL     1       6.210   5.055  17.854  0.00  0.00    +0.000 A 
ENDBRANCH  19  21
ENDBRANCH  12  15
ENDBRANCH   1  11
BRANCH   1  27
ATOM     27  C   UNL     1      -1.523  10.230  18.319  0.00  0.00    +0.000 C 
BRANCH  27  28
ATOM     28  C   UNL     1      -2.327  11.391  17.740  0.00  0.00    +0.000 C 
BRANCH  28  29
ATOM     29  C   UNL     1      -3.507  11.021  16.883  0.00  0.00    +0.000 C 
ATOM     30  O   UNL     1      -3.568  11.126  15.669  0.00  0.00    +0.000 OA
BRANCH  29  31
ATOM     31  O   UNL     1      -4.481  10.561  17.718  0.00  0.00    +0.000 OA
BRANCH  31  33
ATOM     32  C   UNL     1      -4.949  12.261  19.418  0.00  0.00    +0.000 C 
ATOM     33  C   UNL     1      -5.500  11.443  18.250  0.00  0.00    +0.000 C 
ATOM     34  C   UNL     1      -6.737  10.639  18.655  0.00  0.00    +0.000 C 
ATOM     35  C   UNL     1      -5.853  12.419  17.111  0.00  0.00    +0.000 C 
ENDBRANCH  31  33
ENDBRANCH  29  31
ENDBRANCH  28  29
ENDBRANCH  27  28
ENDBRANCH   1  27
TORSDOF 9
ENDMDL
