MODEL 1
REMARK VINA RESULT:      -8.6      0.000      0.000
REMARK  Name = 
REMARK  6 active torsions:
REMARK  status: ('A' for Active; 'I' for Inactive)
REMARK    1  A    between atoms: C_1  and  O_2
REMARK    2  A    between atoms: O_2  and  C_3
REMARK    3  A    between atoms: C_6  and  C_7
REMARK    4  A    between atoms: C_14  and  C_15
REMARK    5  A    between atoms: C_24  and  O_25
REMARK    6  A    between atoms: O_25  and  C_26
REMARK                            x       y       z     vdW  Elec       q    Type
REMARK                         _______ _______ _______ _____ _____    ______ ____
ROOT
ATOM      1  C   UNL     1       2.307   6.276  19.856  0.00  0.00    +0.000 A 
ATOM      2  C   UNL     1       1.773   5.577  20.873  0.00  0.00    +0.000 A 
ATOM      3  C   UNL     1       2.220   4.178  21.101  0.00  0.00    +0.000 A 
ATOM      4  O   UNL     1       1.788   3.474  22.005  0.00  0.00    +0.000 OA
ATOM      5  N   UNL     1       3.194   3.722  20.190  0.00  0.00    +0.000 N 
ATOM      6  N   UNL     1       3.736   2.479  20.233  0.00  0.00    +0.000 NA
ATOM      7  C   UNL     1       4.588   2.474  19.203  0.00  0.00    +0.000 A 
ATOM      8  C   UNL     1       4.626   3.696  18.486  0.00  0.00    +0.000 A 
ATOM      9  C   UNL     1       3.713   4.482  19.154  0.00  0.00    +0.000 A 
ATOM     10  N   UNL     1       3.258   5.749  19.006  0.00  0.00    +0.000 N 
ATOM     11  H   UNL     1       3.593   6.329  18.234  0.00  0.00    +0.000 HD
ENDROOT
BRANCH   1  15
ATOM     12  C   UNL     1       1.001  10.290  19.178  0.00  0.00    +0.000 A 
ATOM     13  C   UNL     1       1.675   9.573  18.176  0.00  0.00    +0.000 A 
ATOM     14  C   UNL     1       2.098   8.262  18.395  0.00  0.00    +0.000 A 
ATOM     15  C   UNL     1       1.897   7.664  19.638  0.00  0.00    +0.000 A 
ATOM     16  C   UNL     1       1.305   8.406  20.665  0.00  0.00    +0.000 A 
ATOM     17  C   UNL     1       0.858   9.719  20.453  0.00  0.00    +0.000 A 
BRANCH  12  19
ATOM     18  C   UNL     1      -0.867  11.619  18.577  0.00  0.00    +0.000 C 
ATOM     19  O   UNL     1       0.514  11.546  18.933  0.00  0.00    +0.000 OA
ENDBRANCH  12  19
BRANCH  17  20
ATOM     20  O   UNL     1       0.297  10.254  21.581  0.00  0.00    +0.000 OA
ATOM     21  C   UNL     1       0.042   9.415  22.695  0.00  0.00    +0.000 C 
ENDBRANCH  17  20
ENDBRANCH   1  15
BRANCH   8  22
ATOM     22  C   UNL     1       5.402   4.084  17.315  0.00  0.00    +0.000 A 
ATOM     23  C   UNL     1       4.829   4.075  16.044  0.00  0.00    +0.000 A 
ATOM     24  C   UNL     1       5.588   4.500  14.956  0.00  0.00    +0.000 A 
ATOM     25  C   UNL     1       6.896   4.917  15.162  0.00  0.00    +0.000 A 
ATOM     26  C   UNL     1       7.397   4.879  16.451  0.00  0.00    +0.000 A 
ATOM     27  N   UNL     1       6.686   4.472  17.529  0.00  0.00    +0.000 NA
ENDBRANCH   8  22
TORSDOF 4
ENDMDL
MODEL 2
REMARK VINA RESULT:      -8.0      1.636      1.892
REMARK  Name = 
REMARK  6 active torsions:
REMARK  status: ('A' for Active; 'I' for Inactive)
REMARK    1  A    between atoms: C_1  and  O_2
REMARK    2  A    between atoms: O_2  and  C_3
REMARK    3  A    between atoms: C_6  and  C_7
REMARK    4  A    between atoms: C_14  and  C_15
REMARK    5  A    between atoms: C_24  and  O_25
REMARK    6  A    between atoms: O_25  and  C_26
REMARK                            x       y       z     vdW  Elec       q    Type
REMARK                         _______ _______ _______ _____ _____    ______ ____
ROOT
ATOM      1  C   UNL     1       1.839   6.730  20.250  0.00  0.00    +0.000 A 
ATOM      2  C   UNL     1       0.978   5.751  20.577  0.00  0.00    +0.000 A 
ATOM      3  C   UNL     1       1.424   4.336  20.482  0.00  0.00    +0.000 A 
ATOM      4  O   UNL     1       0.706   3.385  20.764  0.00  0.00    +0.000 OA
ATOM      5  N   UNL     1       2.754   4.172  20.043  0.00  0.00    +0.000 N 
ATOM      6  N   UNL     1       3.351   2.964  19.898  0.00  0.00    +0.000 NA
ATOM      7  C   UNL     1       4.577   3.270  19.464  0.00  0.00    +0.000 A 
ATOM      8  C   UNL     1       4.805   4.663  19.330  0.00  0.00    +0.000 A 
ATOM      9  C   UNL     1       3.603   5.217  19.716  0.00  0.00    +0.000 A 
ATOM     10  N   UNL     1       3.128   6.480  19.826  0.00  0.00    +0.000 N 
ATOM     11  H   UNL     1       3.714   7.275  19.561  0.00  0.00    +0.000 HD
ENDROOT
BRANCH   1  15
ATOM     12  C   UNL     1       0.508  10.781  20.561  0.00  0.00    +0.000 A 
ATOM     13  C   UNL     1       0.996  10.274  19.345  0.00  0.00    +0.000 A 
ATOM     14  C   UNL     1       1.426   8.952  19.242  0.00  0.00    +0.000 A 
ATOM     15  C   UNL     1       1.423   8.129  20.366  0.00  0.00    +0.000 A 
ATOM     16  C   UNL     1       1.021   8.656  21.597  0.00  0.00    +0.000 A 
ATOM     17  C   UNL     1       0.567   9.979  21.712  0.00  0.00    +0.000 A 
BRANCH  12  19
ATOM     18  C   UNL     1       0.895  13.095  20.229  0.00  0.00    +0.000 C 
ATOM     19  O   UNL     1       0.009  12.054  20.640  0.00  0.00    +0.000 OA
ENDBRANCH  12  19
BRANCH  17  20
ATOM     20  O   UNL     1       0.209  10.285  22.998  0.00  0.00    +0.000 OA
ATOM     21  C   UNL     1      -1.155  10.525  23.300  0.00  0.00    +0.000 C 
ENDBRANCH  17  20
ENDBRANCH   1  15
BRANCH   8  22
ATOM     22  C   UNL     1       5.984   5.393  18.883  0.00  0.00    +0.000 A 
ATOM     23  C   UNL     1       5.980   6.087  17.675  0.00  0.00    +0.000 A 
ATOM     24  C   UNL     1       7.110   6.813  17.306  0.00  0.00    +0.000 A 
ATOM     25  C   UNL     1       8.215   6.823  18.147  0.00  0.00    +0.000 A 
ATOM     26  C   UNL     1       8.147   6.093  19.321  0.00  0.00    +0.000 A 
ATOM     27  N   UNL     1       7.064   5.378  19.707  0.00  0.00    +0.000 NA
ENDBRANCH   8  22
TORSDOF 4
ENDMDL
MODEL 3
REMARK VINA RESULT:      -7.9      1.658      2.470
REMARK  Name = 
REMARK  6 active torsions:
REMARK  status: ('A' for Active; 'I' for Inactive)
REMARK    1  A    between atoms: C_1  and  O_2
REMARK    2  A    between atoms: O_2  and  C_3
REMARK    3  A    between atoms: C_6  and  C_7
REMARK    4  A    between atoms: C_14  and  C_15
REMARK    5  A    between atoms: C_24  and  O_25
REMARK    6  A    between atoms: O_25  and  C_26
REMARK                            x       y       z     vdW  Elec       q    Type
REMARK                         _______ _______ _______ _____ _____    ______ ____
ROOT
ATOM      1  C   UNL     1       1.787   6.549  20.384  0.00  0.00    +0.000 A 
ATOM      2  C   UNL     1       0.959   5.523  20.647  0.00  0.00    +0.000 A 
ATOM      3  C   UNL     1       1.440   4.133  20.434  0.00  0.00    +0.000 A 
ATOM      4  O   UNL     1       0.753   3.143  20.653  0.00  0.00    +0.000 OA
ATOM      5  N   UNL     1       2.766   4.042  19.961  0.00  0.00    +0.000 N 
ATOM      6  N   UNL     1       3.391   2.865  19.711  0.00  0.00    +0.000 NA
ATOM      7  C   UNL     1       4.601   3.239  19.280  0.00  0.00    +0.000 A 
ATOM      8  C   UNL     1       4.788   4.644  19.252  0.00  0.00    +0.000 A 
ATOM      9  C   UNL     1       3.580   5.132  19.701  0.00  0.00    +0.000 A 
ATOM     10  N   UNL     1       3.074   6.369  19.918  0.00  0.00    +0.000 N 
ATOM     11  H   UNL     1       3.633   7.198  19.707  0.00  0.00    +0.000 HD
ENDROOT
BRANCH   1  15
ATOM     12  C   UNL     1       0.586  10.590  21.092  0.00  0.00    +0.000 A 
ATOM     13  C   UNL     1       0.546   9.636  22.121  0.00  0.00    +0.000 A 
ATOM     14  C   UNL     1       0.941   8.318  21.893  0.00  0.00    +0.000 A 
ATOM     15  C   UNL     1       1.336   7.922  20.617  0.00  0.00    +0.000 A 
ATOM     16  C   UNL     1       1.293   8.848  19.569  0.00  0.00    +0.000 A 
ATOM     17  C   UNL     1       0.915  10.181  19.789  0.00  0.00    +0.000 A 
BRANCH  12  19
ATOM     18  C   UNL     1      -1.116  12.203  21.434  0.00  0.00    +0.000 C 
ATOM     19  O   UNL     1       0.276  11.901  21.338  0.00  0.00    +0.000 OA
ENDBRANCH  12  19
BRANCH  17  20
ATOM     20  O   UNL     1       0.957  10.919  18.636  0.00  0.00    +0.000 OA
ATOM     21  C   UNL     1       2.187  11.486  18.219  0.00  0.00    +0.000 C 
ENDBRANCH  17  20
ENDBRANCH   1  15
BRANCH   8  22
ATOM     22  C   UNL     1       5.939   5.439  18.843  0.00  0.00    +0.000 A 
ATOM     23  C   UNL     1       5.897   6.215  17.686  0.00  0.00    +0.000 A 
ATOM     24  C   UNL     1       6.999   6.999  17.355  0.00  0.00    +0.000 A 
ATOM     25  C   UNL     1       8.115   6.985  18.182  0.00  0.00    +0.000 A 
ATOM     26  C   UNL     1       8.085   6.175  19.303  0.00  0.00    +0.000 A 
ATOM     27  N   UNL     1       7.029   5.402  19.652  0.00  0.00    +0.000 NA
ENDBRANCH   8  22
TORSDOF 4
ENDMDL
MODEL 4
REMARK VINA RESULT:      -7.8      1.711      2.630
REMARK  Name = 
REMARK  6 active torsions:
REMARK  status: ('A' for Active; 'I' for Inactive)
REMARK    1  A    between atoms: C_1  and  O_2
REMARK    2  A    between atoms: O_2  and  C_3
REMARK    3  A    between atoms: C_6  and  C_7
REMARK    4  A    between atoms: C_14  and  C_15
REMARK    5  A    between atoms: C_24  and  O_25
REMARK    6  A    between atoms: O_25  and  C_26
REMARK                            x       y       z     vdW  Elec       q    Type
REMARK                         _______ _______ _______ _____ _____    ______ ____
ROOT
ATOM      1  C   UNL     1       1.745   6.613  20.461  0.00  0.00    +0.000 A 
ATOM      2  C   UNL     1       0.988   5.554  20.795  0.00  0.00    +0.000 A 
ATOM      3  C   UNL     1       1.523   4.185  20.573  0.00  0.00    +0.000 A 
ATOM      4  O   UNL     1       0.902   3.168  20.853  0.00  0.00    +0.000 OA
ATOM      5  N   UNL     1       2.819   4.149  20.016  0.00  0.00    +0.000 N 
ATOM      6  N   UNL     1       3.485   2.999  19.746  0.00  0.00    +0.000 NA
ATOM      7  C   UNL     1       4.643   3.423  19.231  0.00  0.00    +0.000 A 
ATOM      8  C   UNL     1       4.758   4.835  19.167  0.00  0.00    +0.000 A 
ATOM      9  C   UNL     1       3.559   5.272  19.686  0.00  0.00    +0.000 A 
ATOM     10  N   UNL     1       3.007   6.487  19.915  0.00  0.00    +0.000 N 
ATOM     11  H   UNL     1       3.509   7.338  19.654  0.00  0.00    +0.000 HD
ENDROOT
BRANCH   1  15
ATOM     12  C   UNL     1       0.390  10.601  21.191  0.00  0.00    +0.000 A 
ATOM     13  C   UNL     1       0.341   9.628  22.202  0.00  0.00    +0.000 A 
ATOM     14  C   UNL     1       0.787   8.327  21.966  0.00  0.00    +0.000 A 
ATOM     15  C   UNL     1       1.242   7.967  20.699  0.00  0.00    +0.000 A 
ATOM     16  C   UNL     1       1.210   8.911  19.668  0.00  0.00    +0.000 A 
ATOM     17  C   UNL     1       0.782  10.227  19.895  0.00  0.00    +0.000 A 
BRANCH  12  19
ATOM     18  C   UNL     1      -0.891  12.085  22.523  0.00  0.00    +0.000 C 
ATOM     19  O   UNL     1       0.029  11.897  21.448  0.00  0.00    +0.000 OA
ENDBRANCH  12  19
BRANCH  17  20
ATOM     20  O   UNL     1       0.844  10.987  18.758  0.00  0.00    +0.000 OA
ATOM     21  C   UNL     1       1.946  11.857  18.564  0.00  0.00    +0.000 C 
ENDBRANCH  17  20
ENDBRANCH   1  15
BRANCH   8  22
ATOM     22  C   UNL     1       5.839   5.676  18.671  0.00  0.00    +0.000 A 
ATOM     23  C   UNL     1       7.094   5.658  19.276  0.00  0.00    +0.000 A 
ATOM     24  C   UNL     1       8.116   6.440  18.742  0.00  0.00    +0.000 A 
ATOM     25  C   UNL     1       7.858   7.221  17.623  0.00  0.00    +0.000 A 
ATOM     26  C   UNL     1       6.581   7.198  17.091  0.00  0.00    +0.000 A 
ATOM     27  N   UNL     1       5.568   6.450  17.587  0.00  0.00    +0.000 NA
ENDBRANCH   8  22
TORSDOF 4
ENDMDL
MODEL 5
REMARK VINA RESULT:      -7.8      1.023      1.358
REMARK  Name = 
REMARK  6 active torsions:
REMARK  status: ('A' for Active; 'I' for Inactive)
REMARK    1  A    between atoms: C_1  and  O_2
REMARK    2  A    between atoms: O_2  and  C_3
REMARK    3  A    between atoms: C_6  and  C_7
REMARK    4  A    between atoms: C_14  and  C_15
REMARK    5  A    between atoms: C_24  and  O_25
REMARK    6  A    between atoms: O_25  and  C_26
REMARK                            x       y       z     vdW  Elec       q    Type
REMARK                         _______ _______ _______ _____ _____    ______ ____
ROOT
ATOM      1  C   UNL     1       2.080   6.470  20.293  0.00  0.00    +0.000 A 
ATOM      2  C   UNL     1       1.395   5.569  21.018  0.00  0.00    +0.000 A 
ATOM      3  C   UNL     1       1.844   4.152  21.022  0.00  0.00    +0.000 A 
ATOM      4  O   UNL     1       1.281   3.271  21.658  0.00  0.00    +0.000 OA
ATOM      5  N   UNL     1       2.986   3.901  20.232  0.00  0.00    +0.000 N 
ATOM      6  N   UNL     1       3.556   2.677  20.109  0.00  0.00    +0.000 NA
ATOM      7  C   UNL     1       4.581   2.891  19.279  0.00  0.00    +0.000 A 
ATOM      8  C   UNL     1       4.705   4.240  18.860  0.00  0.00    +0.000 A 
ATOM      9  C   UNL     1       3.656   4.866  19.499  0.00  0.00    +0.000 A 
ATOM     10  N   UNL     1       3.190   6.136  19.542  0.00  0.00    +0.000 N 
ATOM     11  H   UNL     1       3.639   6.869  18.988  0.00  0.00    +0.000 HD
ENDROOT
BRANCH   1  15
ATOM     12  C   UNL     1       0.756  10.534  20.301  0.00  0.00    +0.000 A 
ATOM     13  C   UNL     1       1.203   9.925  19.118  0.00  0.00    +0.000 A 
ATOM     14  C   UNL     1       1.632   8.598  19.113  0.00  0.00    +0.000 A 
ATOM     15  C   UNL     1       1.666   7.874  20.303  0.00  0.00    +0.000 A 
ATOM     16  C   UNL     1       1.305   8.504  21.497  0.00  0.00    +0.000 A 
ATOM     17  C   UNL     1       0.854   9.833  21.514  0.00  0.00    +0.000 A 
BRANCH  12  19
ATOM     18  C   UNL     1      -1.110  11.939  19.901  0.00  0.00    +0.000 C 
ATOM     19  O   UNL     1       0.258  11.810  20.289  0.00  0.00    +0.000 OA
ENDBRANCH  12  19
BRANCH  17  20
ATOM     20  O   UNL     1       0.538  10.248  22.780  0.00  0.00    +0.000 OA
ATOM     21  C   UNL     1      -0.815  10.216  23.204  0.00  0.00    +0.000 C 
ENDBRANCH  17  20
ENDBRANCH   1  15
BRANCH   8  22
ATOM     22  C   UNL     1       5.667   4.870  17.965  0.00  0.00    +0.000 A 
ATOM     23  C   UNL     1       6.605   5.779  18.449  0.00  0.00    +0.000 A 
ATOM     24  C   UNL     1       7.540   6.322  17.570  0.00  0.00    +0.000 A 
ATOM     25  C   UNL     1       7.511   5.949  16.233  0.00  0.00    +0.000 A 
ATOM     26  C   UNL     1       6.536   5.054  15.827  0.00  0.00    +0.000 A 
ATOM     27  N   UNL     1       5.615   4.509  16.656  0.00  0.00    +0.000 NA
ENDBRANCH   8  22
TORSDOF 4
ENDMDL
MODEL 6
REMARK VINA RESULT:      -7.7      1.067      1.941
REMARK  Name = 
REMARK  6 active torsions:
REMARK  status: ('A' for Active; 'I' for Inactive)
REMARK    1  A    between atoms: C_1  and  O_2
REMARK    2  A    between atoms: O_2  and  C_3
REMARK    3  A    between atoms: C_6  and  C_7
REMARK    4  A    between atoms: C_14  and  C_15
REMARK    5  A    between atoms: C_24  and  O_25
REMARK    6  A    between atoms: O_25  and  C_26
REMARK                            x       y       z     vdW  Elec       q    Type
REMARK                         _______ _______ _______ _____ _____    ______ ____
ROOT
ATOM      1  C   UNL     1       2.098   6.134  20.216  0.00  0.00    +0.000 A 
ATOM      2  C   UNL     1       1.729   5.300  21.205  0.00  0.00    +0.000 A 
ATOM      3  C   UNL     1       2.246   3.906  21.203  0.00  0.00    +0.000 A 
ATOM      4  O   UNL     1       1.964   3.085  22.067  0.00  0.00    +0.000 OA
ATOM      5  N   UNL     1       3.100   3.603  20.123  0.00  0.00    +0.000 N 
ATOM      6  N   UNL     1       3.680   2.390  19.946  0.00  0.00    +0.000 NA
ATOM      7  C   UNL     1       4.383   2.541  18.819  0.00  0.00    +0.000 A 
ATOM      8  C   UNL     1       4.285   3.838  18.254  0.00  0.00    +0.000 A 
ATOM      9  C   UNL     1       3.448   4.499  19.126  0.00  0.00    +0.000 A 
ATOM     10  N   UNL     1       2.939   5.752  19.191  0.00  0.00    +0.000 N 
ATOM     11  H   UNL     1       3.147   6.431  18.456  0.00  0.00    +0.000 HD
ENDROOT
BRANCH   1  15
ATOM     12  C   UNL     1       0.808  10.210  20.275  0.00  0.00    +0.000 A 
ATOM     13  C   UNL     1       0.565   9.362  21.367  0.00  0.00    +0.000 A 
ATOM     14  C   UNL     1       0.988   8.033  21.351  0.00  0.00    +0.000 A 
ATOM     15  C   UNL     1       1.619   7.518  20.220  0.00  0.00    +0.000 A 
ATOM     16  C   UNL     1       1.784   8.335  19.098  0.00  0.00    +0.000 A 
ATOM     17  C   UNL     1       1.380   9.679  19.107  0.00  0.00    +0.000 A 
BRANCH  12  19
ATOM     18  C   UNL     1      -0.905  11.833  20.057  0.00  0.00    +0.000 C 
ATOM     19  O   UNL     1       0.465  11.535  20.325  0.00  0.00    +0.000 OA
ENDBRANCH  12  19
BRANCH  17  20
ATOM     20  O   UNL     1       1.647  10.299  17.916  0.00  0.00    +0.000 OA
ATOM     21  C   UNL     1       2.487  11.441  17.902  0.00  0.00    +0.000 C 
ENDBRANCH  17  20
ENDBRANCH   1  15
BRANCH   8  22
ATOM     22  C   UNL     1       4.881   4.392  17.045  0.00  0.00    +0.000 A 
ATOM     23  C   UNL     1       5.561   3.575  16.144  0.00  0.00    +0.000 A 
ATOM     24  C   UNL     1       6.074   4.133  14.975  0.00  0.00    +0.000 A 
ATOM     25  C   UNL     1       5.898   5.490  14.738  0.00  0.00    +0.000 A 
ATOM     26  C   UNL     1       5.227   6.237  15.690  0.00  0.00    +0.000 A 
ATOM     27  N   UNL     1       4.717   5.724  16.835  0.00  0.00    +0.000 NA
ENDBRANCH   8  22
TORSDOF 4
ENDMDL
MODEL 7
REMARK VINA RESULT:      -7.5      3.119      6.826
REMARK  Name = 
REMARK  6 active torsions:
REMARK  status: ('A' for Active; 'I' for Inactive)
REMARK    1  A    between atoms: C_1  and  O_2
REMARK    2  A    between atoms: O_2  and  C_3
REMARK    3  A    between atoms: C_6  and  C_7
REMARK    4  A    between atoms: C_14  and  C_15
REMARK    5  A    between atoms: C_24  and  O_25
REMARK    6  A    between atoms: O_25  and  C_26
REMARK                            x       y       z     vdW  Elec       q    Type
REMARK                         _______ _______ _______ _____ _____    ______ ____
ROOT
ATOM      1  C   UNL     1       4.320   3.865  17.623  0.00  0.00    +0.000 A 
ATOM      2  C   UNL     1       4.150   2.556  17.880  0.00  0.00    +0.000 A 
ATOM      3  C   UNL     1       3.118   2.141  18.866  0.00  0.00    +0.000 A 
ATOM      4  O   UNL     1       2.895   0.973  19.154  0.00  0.00    +0.000 OA
ATOM      5  N   UNL     1       2.402   3.211  19.444  0.00  0.00    +0.000 N 
ATOM      6  N   UNL     1       1.416   3.043  20.359  0.00  0.00    +0.000 NA
ATOM      7  C   UNL     1       1.030   4.292  20.635  0.00  0.00    +0.000 A 
ATOM      8  C   UNL     1       1.738   5.283  19.910  0.00  0.00    +0.000 A 
ATOM      9  C   UNL     1       2.618   4.546  19.147  0.00  0.00    +0.000 A 
ATOM     10  N   UNL     1       3.575   4.850  18.239  0.00  0.00    +0.000 N 
ATOM     11  H   UNL     1       3.785   5.826  18.019  0.00  0.00    +0.000 HD
ENDROOT
BRANCH   1  15
ATOM     12  C   UNL     1       7.137   5.170  14.684  0.00  0.00    +0.000 A 
ATOM     13  C   UNL     1       6.311   4.060  14.446  0.00  0.00    +0.000 A 
ATOM     14  C   UNL     1       5.388   3.636  15.402  0.00  0.00    +0.000 A 
ATOM     15  C   UNL     1       5.313   4.285  16.633  0.00  0.00    +0.000 A 
ATOM     16  C   UNL     1       6.196   5.335  16.906  0.00  0.00    +0.000 A 
ATOM     17  C   UNL     1       7.115   5.784  15.947  0.00  0.00    +0.000 A 
BRANCH  12  19
ATOM     18  C   UNL     1       7.735   5.156  12.391  0.00  0.00    +0.000 C 
ATOM     19  O   UNL     1       7.983   5.635  13.713  0.00  0.00    +0.000 OA
ENDBRANCH  12  19
BRANCH  17  20
ATOM     20  O   UNL     1       7.869   6.828  16.413  0.00  0.00    +0.000 OA
ATOM     21  C   UNL     1       7.405   7.578  17.522  0.00  0.00    +0.000 C 
ENDBRANCH  17  20
ENDBRANCH   1  15
BRANCH   8  22
ATOM     22  C   UNL     1       1.626   6.736  19.933  0.00  0.00    +0.000 A 
ATOM     23  C   UNL     1       1.179   7.400  21.074  0.00  0.00    +0.000 A 
ATOM     24  C   UNL     1       1.133   8.792  21.074  0.00  0.00    +0.000 A 
ATOM     25  C   UNL     1       1.528   9.484  19.936  0.00  0.00    +0.000 A 
ATOM     26  C   UNL     1       1.942   8.751  18.838  0.00  0.00    +0.000 A 
ATOM     27  N   UNL     1       1.999   7.399  18.808  0.00  0.00    +0.000 NA
ENDBRANCH   8  22
TORSDOF 4
ENDMDL
MODEL 8
REMARK VINA RESULT:      -7.4      3.258      6.180
REMARK  Name = 
REMARK  6 active torsions:
REMARK  status: ('A' for Active; 'I' for Inactive)
REMARK    1  A    between atoms: C_1  and  O_2
REMARK    2  A    between atoms: O_2  and  C_3
REMARK    3  A    between atoms: C_6  and  C_7
REMARK    4  A    between atoms: C_14  and  C_15
REMARK    5  A    between atoms: C_24  and  O_25
REMARK    6  A    between atoms: O_25  and  C_26
REMARK                            x       y       z     vdW  Elec       q    Type
REMARK                         _______ _______ _______ _____ _____    ______ ____
ROOT
ATOM      1  C   UNL     1       5.045   4.691  16.772  0.00  0.00    +0.000 A 
ATOM      2  C   UNL     1       5.943   5.542  17.298  0.00  0.00    +0.000 A 
ATOM      3  C   UNL     1       7.080   6.003  16.458  0.00  0.00    +0.000 A 
ATOM      4  O   UNL     1       7.938   6.779  16.857  0.00  0.00    +0.000 OA
ATOM      5  N   UNL     1       7.088   5.475  15.150  0.00  0.00    +0.000 N 
ATOM      6  N   UNL     1       8.035   5.778  14.228  0.00  0.00    +0.000 NA
ATOM      7  C   UNL     1       7.668   5.066  13.158  0.00  0.00    +0.000 A 
ATOM      8  C   UNL     1       6.487   4.306  13.354  0.00  0.00    +0.000 A 
ATOM      9  C   UNL     1       6.139   4.597  14.655  0.00  0.00    +0.000 A 
ATOM     10  N   UNL     1       5.131   4.220  15.478  0.00  0.00    +0.000 N 
ATOM     11  H   UNL     1       4.430   3.548  15.159  0.00  0.00    +0.000 HD
ENDROOT
BRANCH   1  15
ATOM     12  C   UNL     1       1.794   3.368  19.214  0.00  0.00    +0.000 A 
ATOM     13  C   UNL     1       2.360   2.521  18.247  0.00  0.00    +0.000 A 
ATOM     14  C   UNL     1       3.423   2.950  17.452  0.00  0.00    +0.000 A 
ATOM     15  C   UNL     1       3.905   4.252  17.579  0.00  0.00    +0.000 A 
ATOM     16  C   UNL     1       3.287   5.125  18.479  0.00  0.00    +0.000 A 
ATOM     17  C   UNL     1       2.229   4.701  19.298  0.00  0.00    +0.000 A 
BRANCH  12  19
ATOM     18  C   UNL     1       1.206   2.641  21.391  0.00  0.00    +0.000 C 
ATOM     19  O   UNL     1       0.807   2.917  20.048  0.00  0.00    +0.000 OA
ENDBRANCH  12  19
BRANCH  17  20
ATOM     20  O   UNL     1       1.782   5.705  20.114  0.00  0.00    +0.000 OA
ATOM     21  C   UNL     1       2.221   7.033  19.884  0.00  0.00    +0.000 C 
ENDBRANCH  17  20
ENDBRANCH   1  15
BRANCH   8  22
ATOM     22  C   UNL     1       5.778   3.407  12.453  0.00  0.00    +0.000 A 
ATOM     23  C   UNL     1       4.508   3.727  11.978  0.00  0.00    +0.000 A 
ATOM     24  C   UNL     1       3.883   2.865  11.079  0.00  0.00    +0.000 A 
ATOM     25  C   UNL     1       4.538   1.707  10.683  0.00  0.00    +0.000 A 
ATOM     26  C   UNL     1       5.790   1.451  11.214  0.00  0.00    +0.000 A 
ATOM     27  N   UNL     1       6.423   2.268  12.088  0.00  0.00    +0.000 NA
ENDBRANCH   8  22
TORSDOF 4
ENDMDL
MODEL 9
REMARK VINA RESULT:      -7.3      3.034      6.821
REMARK  Name = 
REMARK  6 active torsions:
REMARK  status: ('A' for Active; 'I' for Inactive)
REMARK    1  A    between atoms: C_1  and  O_2
REMARK    2  A    between atoms: O_2  and  C_3
REMARK    3  A    between atoms: C_6  and  C_7
REMARK    4  A    between atoms: C_14  and  C_15
REMARK    5  A    between atoms: C_24  and  O_25
REMARK    6  A    between atoms: O_25  and  C_26
REMARK                            x       y       z     vdW  Elec       q    Type
REMARK                         _______ _______ _______ _____ _____    ______ ____
ROOT
ATOM      1  C   UNL     1       4.470   4.660  18.270  0.00  0.00    +0.000 A 
ATOM      2  C   UNL     1       4.379   3.474  18.898  0.00  0.00    +0.000 A 
ATOM      3  C   UNL     1       3.372   3.304  19.978  0.00  0.00    +0.000 A 
ATOM      4  O   UNL     1       3.221   2.258  20.596  0.00  0.00    +0.000 OA
ATOM      5  N   UNL     1       2.593   4.451  20.233  0.00  0.00    +0.000 N 
ATOM      6  N   UNL     1       1.616   4.497  21.173  0.00  0.00    +0.000 NA
ATOM      7  C   UNL     1       1.154   5.749  21.082  0.00  0.00    +0.000 A 
ATOM      8  C   UNL     1       1.802   6.527  20.090  0.00  0.00    +0.000 A 
ATOM      9  C   UNL     1       2.727   5.653  19.559  0.00  0.00    +0.000 A 
ATOM     10  N   UNL     1       3.666   5.736  18.587  0.00  0.00    +0.000 N 
ATOM     11  H   UNL     1       3.816   6.617  18.090  0.00  0.00    +0.000 HD
ENDROOT
BRANCH   1  15
ATOM     12  C   UNL     1       7.214   5.237  15.043  0.00  0.00    +0.000 A 
ATOM     13  C   UNL     1       6.322   4.152  15.044  0.00  0.00    +0.000 A 
ATOM     14  C   UNL     1       5.424   3.965  16.095  0.00  0.00    +0.000 A 
ATOM     15  C   UNL     1       5.437   4.833  17.185  0.00  0.00    +0.000 A 
ATOM     16  C   UNL     1       6.383   5.862  17.227  0.00  0.00    +0.000 A 
ATOM     17  C   UNL     1       7.280   6.073  16.169  0.00  0.00    +0.000 A 
BRANCH  12  19
ATOM     18  C   UNL     1       7.587   4.949  12.721  0.00  0.00    +0.000 C 
ATOM     19  O   UNL     1       8.038   5.466  13.973  0.00  0.00    +0.000 OA
ENDBRANCH  12  19
BRANCH  17  20
ATOM     20  O   UNL     1       8.106   7.139  16.406  0.00  0.00    +0.000 OA
ATOM     21  C   UNL     1       7.846   7.986  17.513  0.00  0.00    +0.000 C 
ENDBRANCH  17  20
ENDBRANCH   1  15
BRANCH   8  22
ATOM     22  C   UNL     1       1.602   7.915  19.693  0.00  0.00    +0.000 A 
ATOM     23  C   UNL     1       1.013   8.829  20.564  0.00  0.00    +0.000 A 
ATOM     24  C   UNL     1       0.884  10.158  20.167  0.00  0.00    +0.000 A 
ATOM     25  C   UNL     1       1.340  10.538  18.912  0.00  0.00    +0.000 A 
ATOM     26  C   UNL     1       1.898   9.567  18.099  0.00  0.00    +0.000 A 
ATOM     27  N   UNL     1       2.037   8.268  18.456  0.00  0.00    +0.000 NA
ENDBRANCH   8  22
TORSDOF 4
ENDMDL
