MODEL 1
REMARK VINA RESULT:      -7.2      0.000      0.000
REMARK  Name = 
REMARK  6 active torsions:
REMARK  status: ('A' for Active; 'I' for Inactive)
REMARK    1  A    between atoms: C_1  and  O_2
REMARK    2  A    between atoms: O_2  and  C_3
REMARK    3  A    between atoms: C_6  and  C_7
REMARK    4  A    between atoms: C_12  and  C_13
REMARK    5  A    between atoms: C_15  and  C_16
REMARK    6  A    between atoms: N_20  and  O_21
REMARK                            x       y       z     vdW  Elec       q    Type
REMARK                         _______ _______ _______ _____ _____    ______ ____
ROOT
ATOM      1  C   UNL     1       2.938   6.823  18.410  0.00  0.00    +0.000 A 
ATOM      2  C   UNL     1       2.386   6.550  19.654  0.00  0.00    +0.000 A 
ATOM      3 BR   UNL     1       2.339   4.919  20.612  0.00  0.00    +0.000 Br
ATOM      4  C   UNL     1       1.799   7.718  20.185  0.00  0.00    +0.000 A 
ATOM      5  C   UNL     1       1.305   8.076  21.452  0.00  0.00    +0.000 A 
ATOM      6  C   UNL     1       0.607   9.272  21.620  0.00  0.00    +0.000 A 
ATOM      7  C   UNL     1       0.364  10.105  20.512  0.00  0.00    +0.000 A 
ATOM      8  C   UNL     1       0.943   9.803  19.256  0.00  0.00    +0.000 A 
ATOM      9  C   UNL     1       1.694   8.614  19.129  0.00  0.00    +0.000 A 
ATOM     10  N   UNL     1       2.416   8.064  18.081  0.00  0.00    +0.000 N 
ENDROOT
BRANCH   1  14
ATOM     11  C   UNL     1       5.490   4.280  16.026  0.00  0.00    +0.000 A 
ATOM     12  C   UNL     1       5.872   5.607  16.271  0.00  0.00    +0.000 A 
ATOM     13  C   UNL     1       5.081   6.462  17.068  0.00  0.00    +0.000 A 
ATOM     14  C   UNL     1       3.888   6.002  17.632  0.00  0.00    +0.000 A 
ATOM     15  C   UNL     1       3.559   4.651  17.412  0.00  0.00    +0.000 A 
ATOM     16  C   UNL     1       4.319   3.813  16.597  0.00  0.00    +0.000 A 
BRANCH  11  18
ATOM     17  C   UNL     1       6.315   3.920  13.835  0.00  0.00    +0.000 C 
ATOM     18  O   UNL     1       6.308   3.545  15.214  0.00  0.00    +0.000 OA
ENDBRANCH  11  18
ENDBRANCH   1  14
BRANCH   6  19
ATOM     19  C   UNL     1       0.149   9.594  22.945  0.00  0.00    +0.000 C 
ATOM     20  N   UNL     1      -0.193   9.906  24.006  0.00  0.00    +0.000 NA
ENDBRANCH   6  19
BRANCH   7  21
ATOM     21  C   UNL     1      -0.505  11.239  20.642  0.00  0.00    +0.000 C 
ATOM     22  N   UNL     1      -1.235  12.130  20.751  0.00  0.00    +0.000 NA
ENDBRANCH   7  21
BRANCH  10  23
ATOM     23  O   UNL     1       2.626   8.731  16.880  0.00  0.00    +0.000 OA
ATOM     24  H   UNL     1       2.573   7.981  16.267  0.00  0.00    +0.000 HD
ENDBRANCH  10  23
TORSDOF 5
ENDMDL
MODEL 2
REMARK VINA RESULT:      -7.0      0.239      1.020
REMARK  Name = 
REMARK  6 active torsions:
REMARK  status: ('A' for Active; 'I' for Inactive)
REMARK    1  A    between atoms: C_1  and  O_2
REMARK    2  A    between atoms: O_2  and  C_3
REMARK    3  A    between atoms: C_6  and  C_7
REMARK    4  A    between atoms: C_12  and  C_13
REMARK    5  A    between atoms: C_15  and  C_16
REMARK    6  A    between atoms: N_20  and  O_21
REMARK                            x       y       z     vdW  Elec       q    Type
REMARK                         _______ _______ _______ _____ _____    ______ ____
ROOT
ATOM      1  C   UNL     1       2.847   6.837  18.374  0.00  0.00    +0.000 A 
ATOM      2  C   UNL     1       2.345   6.538  19.633  0.00  0.00    +0.000 A 
ATOM      3 BR   UNL     1       2.315   4.881  20.547  0.00  0.00    +0.000 Br
ATOM      4  C   UNL     1       1.798   7.698  20.221  0.00  0.00    +0.000 A 
ATOM      5  C   UNL     1       1.364   8.027  21.517  0.00  0.00    +0.000 A 
ATOM      6  C   UNL     1       0.691   9.226  21.748  0.00  0.00    +0.000 A 
ATOM      7  C   UNL     1       0.413  10.094  20.675  0.00  0.00    +0.000 A 
ATOM      8  C   UNL     1       0.932   9.819  19.387  0.00  0.00    +0.000 A 
ATOM      9  C   UNL     1       1.660   8.624  19.195  0.00  0.00    +0.000 A 
ATOM     10  N   UNL     1       2.329   8.094  18.102  0.00  0.00    +0.000 N 
ENDROOT
BRANCH   1  14
ATOM     11  C   UNL     1       5.710   4.630  16.010  0.00  0.00    +0.000 A 
ATOM     12  C   UNL     1       4.601   3.964  16.550  0.00  0.00    +0.000 A 
ATOM     13  C   UNL     1       3.627   4.653  17.305  0.00  0.00    +0.000 A 
ATOM     14  C   UNL     1       3.751   6.026  17.533  0.00  0.00    +0.000 A 
ATOM     15  C   UNL     1       4.846   6.676  16.934  0.00  0.00    +0.000 A 
ATOM     16  C   UNL     1       5.828   5.993  16.218  0.00  0.00    +0.000 A 
BRANCH  11  18
ATOM     17  C   UNL     1       6.515   3.915  13.900  0.00  0.00    +0.000 C 
ATOM     18  O   UNL     1       6.612   3.865  15.324  0.00  0.00    +0.000 OA
ENDBRANCH  11  18
ENDBRANCH   1  14
BRANCH   6  19
ATOM     19  C   UNL     1       0.296   9.517  23.100  0.00  0.00    +0.000 C 
ATOM     20  N   UNL     1      -0.031   9.693  24.197  0.00  0.00    +0.000 NA
ENDBRANCH   6  19
BRANCH   7  21
ATOM     21  C   UNL     1      -0.433  11.235  20.873  0.00  0.00    +0.000 C 
ATOM     22  N   UNL     1      -1.089  12.170  21.056  0.00  0.00    +0.000 NA
ENDBRANCH   7  21
BRANCH  10  23
ATOM     23  O   UNL     1       2.496   8.792  16.911  0.00  0.00    +0.000 OA
ATOM     24  H   UNL     1       1.788   9.448  17.009  0.00  0.00    +0.000 HD
ENDBRANCH  10  23
TORSDOF 5
ENDMDL
MODEL 3
REMARK VINA RESULT:      -6.9      3.210      7.309
REMARK  Name = 
REMARK  6 active torsions:
REMARK  status: ('A' for Active; 'I' for Inactive)
REMARK    1  A    between atoms: C_1  and  O_2
REMARK    2  A    between atoms: O_2  and  C_3
REMARK    3  A    between atoms: C_6  and  C_7
REMARK    4  A    between atoms: C_12  and  C_13
REMARK    5  A    between atoms: C_15  and  C_16
REMARK    6  A    between atoms: N_20  and  O_21
REMARK                            x       y       z     vdW  Elec       q    Type
REMARK                         _______ _______ _______ _____ _____    ______ ____
ROOT
ATOM      1  C   UNL     1       1.516   9.277  19.289  0.00  0.00    +0.000 A 
ATOM      2  C   UNL     1       1.401   8.557  20.470  0.00  0.00    +0.000 A 
ATOM      3 BR   UNL     1       0.938   9.163  22.203  0.00  0.00    +0.000 Br
ATOM      4  C   UNL     1       1.700   7.198  20.236  0.00  0.00    +0.000 A 
ATOM      5  C   UNL     1       1.543   6.018  20.984  0.00  0.00    +0.000 A 
ATOM      6  C   UNL     1       2.113   4.825  20.539  0.00  0.00    +0.000 A 
ATOM      7  C   UNL     1       2.879   4.809  19.359  0.00  0.00    +0.000 A 
ATOM      8  C   UNL     1       2.959   5.968  18.548  0.00  0.00    +0.000 A 
ATOM      9  C   UNL     1       2.323   7.147  18.995  0.00  0.00    +0.000 A 
ATOM     10  N   UNL     1       2.169   8.405  18.432  0.00  0.00    +0.000 N 
ENDROOT
BRANCH   1  14
ATOM     11  C   UNL     1      -0.135  13.212  18.624  0.00  0.00    +0.000 A 
ATOM     12  C   UNL     1       1.254  13.029  18.570  0.00  0.00    +0.000 A 
ATOM     13  C   UNL     1       1.832  11.754  18.754  0.00  0.00    +0.000 A 
ATOM     14  C   UNL     1       1.026  10.640  18.998  0.00  0.00    +0.000 A 
ATOM     15  C   UNL     1      -0.367  10.847  18.995  0.00  0.00    +0.000 A 
ATOM     16  C   UNL     1      -0.940  12.109  18.848  0.00  0.00    +0.000 A 
BRANCH  11  18
ATOM     17  C   UNL     1       0.306  15.527  18.869  0.00  0.00    +0.000 C 
ATOM     18  O   UNL     1      -0.592  14.492  18.467  0.00  0.00    +0.000 OA
ENDBRANCH  11  18
ENDBRANCH   1  14
BRANCH   6  19
ATOM     19  C   UNL     1       1.895   3.647  21.335  0.00  0.00    +0.000 C 
ATOM     20  N   UNL     1       1.662   2.706  21.968  0.00  0.00    +0.000 NA
ENDBRANCH   6  19
BRANCH   7  21
ATOM     21  C   UNL     1       3.615   3.634  18.994  0.00  0.00    +0.000 C 
ATOM     22  N   UNL     1       4.192   2.667  18.729  0.00  0.00    +0.000 NA
ENDBRANCH   7  21
BRANCH  10  23
ATOM     23  O   UNL     1       2.576   8.705  17.137  0.00  0.00    +0.000 OA
ATOM     24  H   UNL     1       2.162   9.576  17.036  0.00  0.00    +0.000 HD
ENDBRANCH  10  23
TORSDOF 5
ENDMDL
MODEL 4
REMARK VINA RESULT:      -6.9      3.190      7.468
REMARK  Name = 
REMARK  6 active torsions:
REMARK  status: ('A' for Active; 'I' for Inactive)
REMARK    1  A    between atoms: C_1  and  O_2
REMARK    2  A    between atoms: O_2  and  C_3
REMARK    3  A    between atoms: C_6  and  C_7
REMARK    4  A    between atoms: C_12  and  C_13
REMARK    5  A    between atoms: C_15  and  C_16
REMARK    6  A    between atoms: N_20  and  O_21
REMARK                            x       y       z     vdW  Elec       q    Type
REMARK                         _______ _______ _______ _____ _____    ______ ____
ROOT
ATOM      1  C   UNL     1       1.278   9.539  19.470  0.00  0.00    +0.000 A 
ATOM      2  C   UNL     1       1.238   8.769  20.625  0.00  0.00    +0.000 A 
ATOM      3 BR   UNL     1       0.804   9.284  22.394  0.00  0.00    +0.000 Br
ATOM      4  C   UNL     1       1.596   7.437  20.327  0.00  0.00    +0.000 A 
ATOM      5  C   UNL     1       1.522   6.222  21.031  0.00  0.00    +0.000 A 
ATOM      6  C   UNL     1       2.136   5.078  20.522  0.00  0.00    +0.000 A 
ATOM      7  C   UNL     1       2.861   5.146  19.318  0.00  0.00    +0.000 A 
ATOM      8  C   UNL     1       2.856   6.338  18.553  0.00  0.00    +0.000 A 
ATOM      9  C   UNL     1       2.178   7.465  19.066  0.00  0.00    +0.000 A 
ATOM     10  N   UNL     1       1.944   8.734  18.559  0.00  0.00    +0.000 N 
ENDROOT
BRANCH   1  14
ATOM     11  C   UNL     1      -0.109  13.572  18.790  0.00  0.00    +0.000 A 
ATOM     12  C   UNL     1      -0.892  12.491  18.361  0.00  0.00    +0.000 A 
ATOM     13  C   UNL     1      -0.489  11.158  18.589  0.00  0.00    +0.000 A 
ATOM     14  C   UNL     1       0.711  10.885  19.250  0.00  0.00    +0.000 A 
ATOM     15  C   UNL     1       1.449  11.990  19.714  0.00  0.00    +0.000 A 
ATOM     16  C   UNL     1       1.072  13.308  19.460  0.00  0.00    +0.000 A 
BRANCH  11  18
ATOM     17  C   UNL     1       0.287  15.907  18.848  0.00  0.00    +0.000 C 
ATOM     18  O   UNL     1      -0.572  14.823  18.489  0.00  0.00    +0.000 OA
ENDBRANCH  11  18
ENDBRANCH   1  14
BRANCH   6  19
ATOM     19  C   UNL     1       2.003   3.861  21.277  0.00  0.00    +0.000 C 
ATOM     20  N   UNL     1       1.936   2.902  21.923  0.00  0.00    +0.000 NA
ENDBRANCH   6  19
BRANCH   7  21
ATOM     21  C   UNL     1       3.642   4.024  18.884  0.00  0.00    +0.000 C 
ATOM     22  N   UNL     1       4.270   3.105  18.569  0.00  0.00    +0.000 NA
ENDBRANCH   7  21
BRANCH  10  23
ATOM     23  O   UNL     1       2.292   9.104  17.265  0.00  0.00    +0.000 OA
ATOM     24  H   UNL     1       2.682   9.973  17.445  0.00  0.00    +0.000 HD
ENDBRANCH  10  23
TORSDOF 5
ENDMDL
MODEL 5
REMARK VINA RESULT:      -6.5      4.504      9.766
REMARK  Name = 
REMARK  6 active torsions:
REMARK  status: ('A' for Active; 'I' for Inactive)
REMARK    1  A    between atoms: C_1  and  O_2
REMARK    2  A    between atoms: O_2  and  C_3
REMARK    3  A    between atoms: C_6  and  C_7
REMARK    4  A    between atoms: C_12  and  C_13
REMARK    5  A    between atoms: C_15  and  C_16
REMARK    6  A    between atoms: N_20  and  O_21
REMARK                            x       y       z     vdW  Elec       q    Type
REMARK                         _______ _______ _______ _____ _____    ______ ____
ROOT
ATOM      1  C   UNL     1      -0.991  11.191  22.099  0.00  0.00    +0.000 A 
ATOM      2  C   UNL     1      -0.819  11.164  20.722  0.00  0.00    +0.000 A 
ATOM      3 BR   UNL     1      -1.684  12.188  19.385  0.00  0.00    +0.000 Br
ATOM      4  C   UNL     1       0.151  10.198  20.379  0.00  0.00    +0.000 A 
ATOM      5  C   UNL     1       0.859   9.897  19.201  0.00  0.00    +0.000 A 
ATOM      6  C   UNL     1       1.638   8.743  19.128  0.00  0.00    +0.000 A 
ATOM      7  C   UNL     1       1.687   7.857  20.220  0.00  0.00    +0.000 A 
ATOM      8  C   UNL     1       1.059   8.201  21.442  0.00  0.00    +0.000 A 
ATOM      9  C   UNL     1       0.325   9.405  21.506  0.00  0.00    +0.000 A 
ATOM     10  N   UNL     1      -0.348  10.045  22.536  0.00  0.00    +0.000 N 
ENDROOT
BRANCH   1  14
ATOM     11  C   UNL     1      -2.836  14.401  24.324  0.00  0.00    +0.000 A 
ATOM     12  C   UNL     1      -3.544  13.209  24.117  0.00  0.00    +0.000 A 
ATOM     13  C   UNL     1      -2.968  12.125  23.420  0.00  0.00    +0.000 A 
ATOM     14  C   UNL     1      -1.668  12.220  22.914  0.00  0.00    +0.000 A 
ATOM     15  C   UNL     1      -0.965  13.410  23.183  0.00  0.00    +0.000 A 
ATOM     16  C   UNL     1      -1.543  14.495  23.841  0.00  0.00    +0.000 A 
BRANCH  11  18
ATOM     17  C   UNL     1      -4.624  15.955  24.300  0.00  0.00    +0.000 C 
ATOM     18  O   UNL     1      -3.497  15.402  24.981  0.00  0.00    +0.000 OA
ENDBRANCH  11  18
ENDBRANCH   1  14
BRANCH   6  19
ATOM     19  C   UNL     1       2.358   8.504  17.906  0.00  0.00    +0.000 C 
ATOM     20  N   UNL     1       2.976   8.279  16.953  0.00  0.00    +0.000 NA
ENDBRANCH   6  19
BRANCH   7  21
ATOM     21  C   UNL     1       2.335   6.585  20.086  0.00  0.00    +0.000 C 
ATOM     22  N   UNL     1       2.847   5.550  20.013  0.00  0.00    +0.000 NA
ENDBRANCH   7  21
BRANCH  10  23
ATOM     23  O   UNL     1      -0.310   9.596  23.852  0.00  0.00    +0.000 OA
ATOM     24  H   UNL     1      -0.979  10.181  24.241  0.00  0.00    +0.000 HD
ENDBRANCH  10  23
TORSDOF 5
ENDMDL
MODEL 6
REMARK VINA RESULT:      -6.4      4.463      9.687
REMARK  Name = 
REMARK  6 active torsions:
REMARK  status: ('A' for Active; 'I' for Inactive)
REMARK    1  A    between atoms: C_1  and  O_2
REMARK    2  A    between atoms: O_2  and  C_3
REMARK    3  A    between atoms: C_6  and  C_7
REMARK    4  A    between atoms: C_12  and  C_13
REMARK    5  A    between atoms: C_15  and  C_16
REMARK    6  A    between atoms: N_20  and  O_21
REMARK                            x       y       z     vdW  Elec       q    Type
REMARK                         _______ _______ _______ _____ _____    ______ ____
ROOT
ATOM      1  C   UNL     1      -0.886  11.280  21.971  0.00  0.00    +0.000 A 
ATOM      2  C   UNL     1      -0.691  11.211  20.598  0.00  0.00    +0.000 A 
ATOM      3 BR   UNL     1      -1.493  12.234  19.222  0.00  0.00    +0.000 Br
ATOM      4  C   UNL     1       0.247  10.201  20.295  0.00  0.00    +0.000 A 
ATOM      5  C   UNL     1       0.963   9.845  19.139  0.00  0.00    +0.000 A 
ATOM      6  C   UNL     1       1.697   8.660  19.106  0.00  0.00    +0.000 A 
ATOM      7  C   UNL     1       1.693   7.800  20.220  0.00  0.00    +0.000 A 
ATOM      8  C   UNL     1       1.059   8.198  21.422  0.00  0.00    +0.000 A 
ATOM      9  C   UNL     1       0.371   9.430  21.444  0.00  0.00    +0.000 A 
ATOM     10  N   UNL     1      -0.295  10.120  22.447  0.00  0.00    +0.000 N 
ENDROOT
BRANCH   1  14
ATOM     11  C   UNL     1      -2.916  14.213  24.405  0.00  0.00    +0.000 A 
ATOM     12  C   UNL     1      -1.638  14.498  23.903  0.00  0.00    +0.000 A 
ATOM     13  C   UNL     1      -0.952  13.579  23.080  0.00  0.00    +0.000 A 
ATOM     14  C   UNL     1      -1.536  12.353  22.749  0.00  0.00    +0.000 A 
ATOM     15  C   UNL     1      -2.840  12.119  23.225  0.00  0.00    +0.000 A 
ATOM     16  C   UNL     1      -3.506  13.009  24.066  0.00  0.00    +0.000 A 
BRANCH  11  18
ATOM     17  C   UNL     1      -3.257  16.516  24.845  0.00  0.00    +0.000 C 
ATOM     18  O   UNL     1      -3.479  15.156  25.220  0.00  0.00    +0.000 OA
ENDBRANCH  11  18
ENDBRANCH   1  14
BRANCH   6  19
ATOM     19  C   UNL     1       2.428   8.364  17.904  0.00  0.00    +0.000 C 
ATOM     20  N   UNL     1       3.061   8.105  16.969  0.00  0.00    +0.000 NA
ENDBRANCH   6  19
BRANCH   7  21
ATOM     21  C   UNL     1       2.294   6.501  20.128  0.00  0.00    +0.000 C 
ATOM     22  N   UNL     1       2.754   5.444  20.027  0.00  0.00    +0.000 NA
ENDBRANCH   7  21
BRANCH  10  23
ATOM     23  O   UNL     1      -0.296   9.703  23.773  0.00  0.00    +0.000 OA
ATOM     24  H   UNL     1      -1.106  10.140  24.078  0.00  0.00    +0.000 HD
ENDBRANCH  10  23
TORSDOF 5
ENDMDL
MODEL 7
REMARK VINA RESULT:      -6.4      3.107      7.836
REMARK  Name = 
REMARK  6 active torsions:
REMARK  status: ('A' for Active; 'I' for Inactive)
REMARK    1  A    between atoms: C_1  and  O_2
REMARK    2  A    between atoms: O_2  and  C_3
REMARK    3  A    between atoms: C_6  and  C_7
REMARK    4  A    between atoms: C_12  and  C_13
REMARK    5  A    between atoms: C_15  and  C_16
REMARK    6  A    between atoms: N_20  and  O_21
REMARK                            x       y       z     vdW  Elec       q    Type
REMARK                         _______ _______ _______ _____ _____    ______ ____
ROOT
ATOM      1  C   UNL     1       1.017   9.913  19.759  0.00  0.00    +0.000 A 
ATOM      2  C   UNL     1       1.082   8.996  20.799  0.00  0.00    +0.000 A 
ATOM      3 BR   UNL     1       0.768   9.256  22.648  0.00  0.00    +0.000 Br
ATOM      4  C   UNL     1       1.450   7.729  20.299  0.00  0.00    +0.000 A 
ATOM      5  C   UNL     1       1.459   6.429  20.837  0.00  0.00    +0.000 A 
ATOM      6  C   UNL     1       2.061   5.385  20.136  0.00  0.00    +0.000 A 
ATOM      7  C   UNL     1       2.693   5.638  18.904  0.00  0.00    +0.000 A 
ATOM      8  C   UNL     1       2.602   6.920  18.309  0.00  0.00    +0.000 A 
ATOM      9  C   UNL     1       1.936   7.944  19.016  0.00  0.00    +0.000 A 
ATOM     10  N   UNL     1       1.633   9.261  18.704  0.00  0.00    +0.000 N 
ENDROOT
BRANCH   1  14
ATOM     11  C   UNL     1      -0.978  13.739  19.957  0.00  0.00    +0.000 A 
ATOM     12  C   UNL     1       0.412  13.694  19.779  0.00  0.00    +0.000 A 
ATOM     13  C   UNL     1       1.099  12.465  19.681  0.00  0.00    +0.000 A 
ATOM     14  C   UNL     1       0.402  11.256  19.763  0.00  0.00    +0.000 A 
ATOM     15  C   UNL     1      -0.998  11.335  19.890  0.00  0.00    +0.000 A 
ATOM     16  C   UNL     1      -1.676  12.546  20.022  0.00  0.00    +0.000 A 
BRANCH  11  18
ATOM     17  C   UNL     1      -2.695  15.062  20.913  0.00  0.00    +0.000 C 
ATOM     18  O   UNL     1      -1.542  14.979  20.075  0.00  0.00    +0.000 OA
ENDBRANCH  11  18
ENDBRANCH   1  14
BRANCH   6  19
ATOM     19  C   UNL     1       2.015   4.074  20.726  0.00  0.00    +0.000 C 
ATOM     20  N   UNL     1       2.027   3.033  21.232  0.00  0.00    +0.000 NA
ENDBRANCH   6  19
BRANCH   7  21
ATOM     21  C   UNL     1       3.467   4.611  18.268  0.00  0.00    +0.000 C 
ATOM     22  N   UNL     1       4.103   3.809  17.730  0.00  0.00    +0.000 NA
ENDBRANCH   7  21
BRANCH  10  23
ATOM     23  O   UNL     1       1.875   9.811  17.450  0.00  0.00    +0.000 OA
ATOM     24  H   UNL     1       2.697   9.347  17.226  0.00  0.00    +0.000 HD
ENDBRANCH  10  23
TORSDOF 5
ENDMDL
MODEL 8
REMARK VINA RESULT:      -6.4      2.930      7.862
REMARK  Name = 
REMARK  6 active torsions:
REMARK  status: ('A' for Active; 'I' for Inactive)
REMARK    1  A    between atoms: C_1  and  O_2
REMARK    2  A    between atoms: O_2  and  C_3
REMARK    3  A    between atoms: C_6  and  C_7
REMARK    4  A    between atoms: C_12  and  C_13
REMARK    5  A    between atoms: C_15  and  C_16
REMARK    6  A    between atoms: N_20  and  O_21
REMARK                            x       y       z     vdW  Elec       q    Type
REMARK                         _______ _______ _______ _____ _____    ______ ____
ROOT
ATOM      1  C   UNL     1       1.049   9.513  19.295  0.00  0.00    +0.000 A 
ATOM      2  C   UNL     1       1.354   8.434  20.114  0.00  0.00    +0.000 A 
ATOM      3 BR   UNL     1       0.861   8.119  21.914  0.00  0.00    +0.000 Br
ATOM      4  C   UNL     1       2.154   7.508  19.411  0.00  0.00    +0.000 A 
ATOM      5  C   UNL     1       2.565   6.186  19.655  0.00  0.00    +0.000 A 
ATOM      6  C   UNL     1       3.522   5.587  18.837  0.00  0.00    +0.000 A 
ATOM      7  C   UNL     1       4.106   6.319  17.786  0.00  0.00    +0.000 A 
ATOM      8  C   UNL     1       3.627   7.615  17.472  0.00  0.00    +0.000 A 
ATOM      9  C   UNL     1       2.616   8.174  18.282  0.00  0.00    +0.000 A 
ATOM     10  N   UNL     1       1.909   9.365  18.220  0.00  0.00    +0.000 N 
ENDROOT
BRANCH   1  14
ATOM     11  C   UNL     1      -2.157  12.357  19.835  0.00  0.00    +0.000 A 
ATOM     12  C   UNL     1      -0.998  12.467  20.616  0.00  0.00    +0.000 A 
ATOM     13  C   UNL     1       0.084  11.575  20.452  0.00  0.00    +0.000 A 
ATOM     14  C   UNL     1       0.021  10.554  19.501  0.00  0.00    +0.000 A 
ATOM     15  C   UNL     1      -1.134  10.501  18.697  0.00  0.00    +0.000 A 
ATOM     16  C   UNL     1      -2.218  11.358  18.880  0.00  0.00    +0.000 A 
BRANCH  11  18
ATOM     17  C   UNL     1      -4.489  12.726  20.033  0.00  0.00    +0.000 C 
ATOM     18  O   UNL     1      -3.161  13.248  20.097  0.00  0.00    +0.000 OA
ENDBRANCH  11  18
ENDBRANCH   1  14
BRANCH   6  19
ATOM     19  C   UNL     1       3.881   4.224  19.122  0.00  0.00    +0.000 C 
ATOM     20  N   UNL     1       4.187   3.121  19.296  0.00  0.00    +0.000 NA
ENDBRANCH   6  19
BRANCH   7  21
ATOM     21  C   UNL     1       5.216   5.774  17.059  0.00  0.00    +0.000 C 
ATOM     22  N   UNL     1       6.133   5.362  16.487  0.00  0.00    +0.000 NA
ENDBRANCH   7  21
BRANCH  10  23
ATOM     23  O   UNL     1       2.028  10.255  17.157  0.00  0.00    +0.000 OA
ATOM     24  H   UNL     1       2.193   9.625  16.438  0.00  0.00    +0.000 HD
ENDBRANCH  10  23
TORSDOF 5
ENDMDL
MODEL 9
REMARK VINA RESULT:      -6.3      2.949      7.997
REMARK  Name = 
REMARK  6 active torsions:
REMARK  status: ('A' for Active; 'I' for Inactive)
REMARK    1  A    between atoms: C_1  and  O_2
REMARK    2  A    between atoms: O_2  and  C_3
REMARK    3  A    between atoms: C_6  and  C_7
REMARK    4  A    between atoms: C_12  and  C_13
REMARK    5  A    between atoms: C_15  and  C_16
REMARK    6  A    between atoms: N_20  and  O_21
REMARK                            x       y       z     vdW  Elec       q    Type
REMARK                         _______ _______ _______ _____ _____    ______ ____
ROOT
ATOM      1  C   UNL     1       0.992   9.904  19.601  0.00  0.00    +0.000 A 
ATOM      2  C   UNL     1       1.224   8.857  20.483  0.00  0.00    +0.000 A 
ATOM      3 BR   UNL     1       0.872   8.755  22.340  0.00  0.00    +0.000 Br
ATOM      4  C   UNL     1       1.813   7.774  19.798  0.00  0.00    +0.000 A 
ATOM      5  C   UNL     1       2.058   6.427  20.122  0.00  0.00    +0.000 A 
ATOM      6  C   UNL     1       2.836   5.634  19.280  0.00  0.00    +0.000 A 
ATOM      7  C   UNL     1       3.410   6.191  18.122  0.00  0.00    +0.000 A 
ATOM      8  C   UNL     1       3.088   7.515  17.736  0.00  0.00    +0.000 A 
ATOM      9  C   UNL     1       2.249   8.276  18.579  0.00  0.00    +0.000 A 
ATOM     10  N   UNL     1       1.713   9.551  18.472  0.00  0.00    +0.000 N 
ENDROOT
BRANCH   1  14
ATOM     11  C   UNL     1      -1.243  13.553  20.190  0.00  0.00    +0.000 A 
ATOM     12  C   UNL     1      -1.802  12.516  19.430  0.00  0.00    +0.000 A 
ATOM     13  C   UNL     1      -1.117  11.297  19.237  0.00  0.00    +0.000 A 
ATOM     14  C   UNL     1       0.145  11.097  19.802  0.00  0.00    +0.000 A 
ATOM     15  C   UNL     1       0.657  12.136  20.602  0.00  0.00    +0.000 A 
ATOM     16  C   UNL     1      -0.001  13.354  20.767  0.00  0.00    +0.000 A 
BRANCH  11  18
ATOM     17  C   UNL     1      -3.245  14.584  20.926  0.00  0.00    +0.000 C 
ATOM     18  O   UNL     1      -1.972  14.705  20.288  0.00  0.00    +0.000 OA
ENDBRANCH  11  18
ENDBRANCH   1  14
BRANCH   6  19
ATOM     19  C   UNL     1       3.029   4.258  19.653  0.00  0.00    +0.000 C 
ATOM     20  N   UNL     1       3.145   3.159  19.998  0.00  0.00    +0.000 NA
ENDBRANCH   6  19
BRANCH   7  21
ATOM     21  C   UNL     1       4.355   5.435  17.352  0.00  0.00    +0.000 C 
ATOM     22  N   UNL     1       5.138   4.857  16.727  0.00  0.00    +0.000 NA
ENDBRANCH   7  21
BRANCH  10  23
ATOM     23  O   UNL     1       1.849  10.330  17.328  0.00  0.00    +0.000 OA
ATOM     24  H   UNL     1       1.623  11.198  17.698  0.00  0.00    +0.000 HD
ENDBRANCH  10  23
TORSDOF 5
ENDMDL
