MODEL 1
REMARK VINA RESULT:      -7.6      0.000      0.000
REMARK  Name = 
REMARK  10 active torsions:
REMARK  status: ('A' for Active; 'I' for Inactive)
REMARK    1  A    between atoms: C_1  and  C_2
REMARK    2  A    between atoms: C_2  and  C_3
REMARK    3  A    between atoms: C_4  and  C_5
REMARK    4  A    between atoms: C_5  and  C_6
REMARK    5  A    between atoms: C_6  and  C_7
REMARK    6  A    between atoms: C_7  and  C_8
REMARK    7  A    between atoms: C_9  and  C_10
REMARK    8  A    between atoms: C_10  and  N_11
REMARK    9  A    between atoms: C_13  and  C_14
REMARK   10  A    between atoms: C_18  and  O_19
REMARK                            x       y       z     vdW  Elec       q    Type
REMARK                         _______ _______ _______ _____ _____    ______ ____
ROOT
ATOM      1  N   UNL     1       3.902   4.267  18.188  0.00  0.00    +0.000 N 
ATOM      2  C   UNL     1       3.230   5.395  17.823  0.00  0.00    +0.000 A 
ATOM      3  C   UNL     1       3.022   6.056  19.012  0.00  0.00    +0.000 A 
ATOM      4  N   UNL     1       3.555   5.308  20.035  0.00  0.00    +0.000 NA
ATOM      5  N   UNL     1       4.091   4.210  19.517  0.00  0.00    +0.000 NA
ENDROOT
BRANCH   3   6
ATOM      6  C   UNL     1       2.355   7.331  19.194  0.00  0.00    +0.000 A 
ATOM      7  C   UNL     1       1.629   7.580  20.368  0.00  0.00    +0.000 A 
ATOM      8  C   UNL     1       0.970   8.799  20.555  0.00  0.00    +0.000 A 
ATOM      9  C   UNL     1       1.027   9.784  19.571  0.00  0.00    +0.000 A 
ATOM     10  C   UNL     1       1.748   9.542  18.408  0.00  0.00    +0.000 A 
ATOM     11  C   UNL     1       2.410   8.332  18.215  0.00  0.00    +0.000 A 
BRANCH  10  12
ATOM     12  O   UNL     1       1.837  10.470  17.413  0.00  0.00    +0.000 OA
ATOM     13  H   UNL     1       2.749  10.482  17.086  0.00  0.00    +0.000 HD
ENDBRANCH  10  12
ENDBRANCH   3   6
BRANCH   1  14
ATOM     14  C   UNL     1       4.400   3.220  17.315  0.00  0.00    +0.000 C 
BRANCH  14  17
ATOM     15  C   UNL     1       6.315   4.353  16.068  0.00  0.00    +0.000 C 
ATOM     16  C   UNL     1       7.152   4.447  17.318  0.00  0.00    +0.000 C 
ATOM     17  C   UNL     1       5.081   3.803  16.106  0.00  0.00    +0.000 C 
BRANCH  15  18
ATOM     18  C   UNL     1       6.846   4.868  14.738  0.00  0.00    +0.000 C 
BRANCH  18  19
ATOM     19  C   UNL     1       5.975   4.574  13.514  0.00  0.00    +0.000 C 
BRANCH  19  23
ATOM     20  C   UNL     1       6.101   1.489  11.144  0.00  0.00    +0.000 C 
ATOM     21  C   UNL     1       5.592   2.710  11.851  0.00  0.00    +0.000 C 
ATOM     22  C   UNL     1       4.237   3.229  11.452  0.00  0.00    +0.000 C 
ATOM     23  C   UNL     1       6.336   3.298  12.812  0.00  0.00    +0.000 C 
ENDBRANCH  19  23
ENDBRANCH  18  19
ENDBRANCH  15  18
ENDBRANCH  14  17
ENDBRANCH   1  14
TORSDOF 7
ENDMDL
MODEL 2
REMARK VINA RESULT:      -7.5      2.901      4.156
REMARK  Name = 
REMARK  10 active torsions:
REMARK  status: ('A' for Active; 'I' for Inactive)
REMARK    1  A    between atoms: C_1  and  C_2
REMARK    2  A    between atoms: C_2  and  C_3
REMARK    3  A    between atoms: C_4  and  C_5
REMARK    4  A    between atoms: C_5  and  C_6
REMARK    5  A    between atoms: C_6  and  C_7
REMARK    6  A    between atoms: C_7  and  C_8
REMARK    7  A    between atoms: C_9  and  C_10
REMARK    8  A    between atoms: C_10  and  N_11
REMARK    9  A    between atoms: C_13  and  C_14
REMARK   10  A    between atoms: C_18  and  O_19
REMARK                            x       y       z     vdW  Elec       q    Type
REMARK                         _______ _______ _______ _____ _____    ______ ____
ROOT
ATOM      1  N   UNL     1       6.274   4.434  16.744  0.00  0.00    +0.000 N 
ATOM      2  C   UNL     1       4.949   4.115  16.782  0.00  0.00    +0.000 A 
ATOM      3  C   UNL     1       4.674   4.007  18.126  0.00  0.00    +0.000 A 
ATOM      4  N   UNL     1       5.827   4.248  18.837  0.00  0.00    +0.000 NA
ATOM      5  N   UNL     1       6.803   4.506  17.976  0.00  0.00    +0.000 NA
ENDROOT
BRANCH   3   6
ATOM      6  C   UNL     1       3.392   3.694  18.730  0.00  0.00    +0.000 A 
ATOM      7  C   UNL     1       2.810   2.434  18.524  0.00  0.00    +0.000 A 
ATOM      8  C   UNL     1       1.570   2.120  19.087  0.00  0.00    +0.000 A 
ATOM      9  C   UNL     1       0.896   3.060  19.864  0.00  0.00    +0.000 A 
ATOM     10  C   UNL     1       1.471   4.307  20.074  0.00  0.00    +0.000 A 
ATOM     11  C   UNL     1       2.708   4.628  19.518  0.00  0.00    +0.000 A 
BRANCH  10  12
ATOM     12  O   UNL     1       0.855   5.264  20.825  0.00  0.00    +0.000 OA
ATOM     13  H   UNL     1       0.354   5.844  20.231  0.00  0.00    +0.000 HD
ENDBRANCH  10  12
ENDBRANCH   3   6
BRANCH   1  14
ATOM     14  C   UNL     1       7.080   4.694  15.566  0.00  0.00    +0.000 C 
BRANCH  14  17
ATOM     15  C   UNL     1       6.884   4.173  13.076  0.00  0.00    +0.000 C 
ATOM     16  C   UNL     1       7.902   5.224  12.715  0.00  0.00    +0.000 C 
ATOM     17  C   UNL     1       6.534   3.968  14.365  0.00  0.00    +0.000 C 
BRANCH  15  18
ATOM     18  C   UNL     1       6.236   3.318  11.996  0.00  0.00    +0.000 C 
BRANCH  18  19
ATOM     19  C   UNL     1       4.705   3.349  11.952  0.00  0.00    +0.000 C 
BRANCH  19  23
ATOM     20  C   UNL     1       2.583   4.650   8.961  0.00  0.00    +0.000 C 
ATOM     21  C   UNL     1       3.117   3.739  10.026  0.00  0.00    +0.000 C 
ATOM     22  C   UNL     1       2.461   2.394  10.182  0.00  0.00    +0.000 C 
ATOM     23  C   UNL     1       4.154   4.131  10.796  0.00  0.00    +0.000 C 
ENDBRANCH  19  23
ENDBRANCH  18  19
ENDBRANCH  15  18
ENDBRANCH  14  17
ENDBRANCH   1  14
TORSDOF 7
ENDMDL
MODEL 3
REMARK VINA RESULT:      -7.5      4.692      6.928
REMARK  Name = 
REMARK  10 active torsions:
REMARK  status: ('A' for Active; 'I' for Inactive)
REMARK    1  A    between atoms: C_1  and  C_2
REMARK    2  A    between atoms: C_2  and  C_3
REMARK    3  A    between atoms: C_4  and  C_5
REMARK    4  A    between atoms: C_5  and  C_6
REMARK    5  A    between atoms: C_6  and  C_7
REMARK    6  A    between atoms: C_7  and  C_8
REMARK    7  A    between atoms: C_9  and  C_10
REMARK    8  A    between atoms: C_10  and  N_11
REMARK    9  A    between atoms: C_13  and  C_14
REMARK   10  A    between atoms: C_18  and  O_19
REMARK                            x       y       z     vdW  Elec       q    Type
REMARK                         _______ _______ _______ _____ _____    ______ ____
ROOT
ATOM      1  N   UNL     1       4.733   6.411  17.144  0.00  0.00    +0.000 N 
ATOM      2  C   UNL     1       4.388   5.176  17.605  0.00  0.00    +0.000 A 
ATOM      3  C   UNL     1       3.218   5.396  18.295  0.00  0.00    +0.000 A 
ATOM      4  N   UNL     1       2.913   6.736  18.236  0.00  0.00    +0.000 NA
ATOM      5  N   UNL     1       3.852   7.349  17.529  0.00  0.00    +0.000 NA
ENDROOT
BRANCH   3   6
ATOM      6  C   UNL     1       2.412   4.404  18.982  0.00  0.00    +0.000 A 
ATOM      7  C   UNL     1       1.456   3.665  18.270  0.00  0.00    +0.000 A 
ATOM      8  C   UNL     1       0.662   2.714  18.918  0.00  0.00    +0.000 A 
ATOM      9  C   UNL     1       0.814   2.490  20.285  0.00  0.00    +0.000 A 
ATOM     10  C   UNL     1       1.763   3.217  20.992  0.00  0.00    +0.000 A 
ATOM     11  C   UNL     1       2.560   4.165  20.354  0.00  0.00    +0.000 A 
BRANCH  10  12
ATOM     12  O   UNL     1       1.953   3.038  22.331  0.00  0.00    +0.000 OA
ATOM     13  H   UNL     1       2.746   2.494  22.457  0.00  0.00    +0.000 HD
ENDBRANCH  10  12
ENDBRANCH   3   6
BRANCH   1  14
ATOM     14  C   UNL     1       5.880   6.753  16.322  0.00  0.00    +0.000 C 
BRANCH  14  17
ATOM     15  C   UNL     1       7.708   7.239  18.034  0.00  0.00    +0.000 C 
ATOM     16  C   UNL     1       7.771   5.796  18.464  0.00  0.00    +0.000 C 
ATOM     17  C   UNL     1       6.842   7.633  17.075  0.00  0.00    +0.000 C 
BRANCH  15  18
ATOM     18  C   UNL     1       8.624   8.278  18.665  0.00  0.00    +0.000 C 
BRANCH  18  19
ATOM     19  C   UNL     1       8.398   9.725  18.218  0.00  0.00    +0.000 C 
BRANCH  19  23
ATOM     20  C   UNL     1      11.416  11.892  19.373  0.00  0.00    +0.000 C 
ATOM     21  C   UNL     1      10.114  11.149  19.405  0.00  0.00    +0.000 C 
ATOM     22  C   UNL     1       9.382  11.089  20.718  0.00  0.00    +0.000 C 
ATOM     23  C   UNL     1       9.633  10.573  18.283  0.00  0.00    +0.000 C 
ENDBRANCH  19  23
ENDBRANCH  18  19
ENDBRANCH  15  18
ENDBRANCH  14  17
ENDBRANCH   1  14
TORSDOF 7
ENDMDL
MODEL 4
REMARK VINA RESULT:      -7.4      3.706      8.101
REMARK  Name = 
REMARK  10 active torsions:
REMARK  status: ('A' for Active; 'I' for Inactive)
REMARK    1  A    between atoms: C_1  and  C_2
REMARK    2  A    between atoms: C_2  and  C_3
REMARK    3  A    between atoms: C_4  and  C_5
REMARK    4  A    between atoms: C_5  and  C_6
REMARK    5  A    between atoms: C_6  and  C_7
REMARK    6  A    between atoms: C_7  and  C_8
REMARK    7  A    between atoms: C_9  and  C_10
REMARK    8  A    between atoms: C_10  and  N_11
REMARK    9  A    between atoms: C_13  and  C_14
REMARK   10  A    between atoms: C_18  and  O_19
REMARK                            x       y       z     vdW  Elec       q    Type
REMARK                         _______ _______ _______ _____ _____    ______ ____
ROOT
ATOM      1  N   UNL     1       6.936   4.757  16.206  0.00  0.00    +0.000 N 
ATOM      2  C   UNL     1       6.170   3.865  15.516  0.00  0.00    +0.000 A 
ATOM      3  C   UNL     1       6.400   4.183  14.197  0.00  0.00    +0.000 A 
ATOM      4  N   UNL     1       7.272   5.245  14.141  0.00  0.00    +0.000 NA
ATOM      5  N   UNL     1       7.591   5.591  15.381  0.00  0.00    +0.000 NA
ENDROOT
BRANCH   3   6
ATOM      6  C   UNL     1       5.836   3.527  13.032  0.00  0.00    +0.000 A 
ATOM      7  C   UNL     1       4.632   3.991  12.482  0.00  0.00    +0.000 A 
ATOM      8  C   UNL     1       4.067   3.363  11.368  0.00  0.00    +0.000 A 
ATOM      9  C   UNL     1       4.698   2.264  10.790  0.00  0.00    +0.000 A 
ATOM     10  C   UNL     1       5.893   1.804  11.329  0.00  0.00    +0.000 A 
ATOM     11  C   UNL     1       6.464   2.425  12.438  0.00  0.00    +0.000 A 
BRANCH  10  12
ATOM     12  O   UNL     1       6.552   0.732  10.803  0.00  0.00    +0.000 OA
ATOM     13  H   UNL     1       6.725   0.909   9.866  0.00  0.00    +0.000 HD
ENDBRANCH  10  12
ENDBRANCH   3   6
BRANCH   1  14
ATOM     14  C   UNL     1       7.092   4.852  17.646  0.00  0.00    +0.000 C 
BRANCH  14  17
ATOM     15  C   UNL     1       4.786   5.059  18.718  0.00  0.00    +0.000 C 
ATOM     16  C   UNL     1       4.538   3.576  18.612  0.00  0.00    +0.000 C 
ATOM     17  C   UNL     1       5.940   5.597  18.267  0.00  0.00    +0.000 C 
BRANCH  15  18
ATOM     18  C   UNL     1       3.744   5.977  19.342  0.00  0.00    +0.000 C 
BRANCH  18  19
ATOM     19  C   UNL     1       2.313   5.433  19.376  0.00  0.00    +0.000 C 
BRANCH  19  23
ATOM     20  C   UNL     1       1.271   2.593  21.823  0.00  0.00    +0.000 C 
ATOM     21  C   UNL     1       1.424   3.385  20.559  0.00  0.00    +0.000 C 
ATOM     22  C   UNL     1       0.885   2.781  19.291  0.00  0.00    +0.000 C 
ATOM     23  C   UNL     1       2.017   4.598  20.586  0.00  0.00    +0.000 C 
ENDBRANCH  19  23
ENDBRANCH  18  19
ENDBRANCH  15  18
ENDBRANCH  14  17
ENDBRANCH   1  14
TORSDOF 7
ENDMDL
MODEL 5
REMARK VINA RESULT:      -7.4      4.859      6.825
REMARK  Name = 
REMARK  10 active torsions:
REMARK  status: ('A' for Active; 'I' for Inactive)
REMARK    1  A    between atoms: C_1  and  C_2
REMARK    2  A    between atoms: C_2  and  C_3
REMARK    3  A    between atoms: C_4  and  C_5
REMARK    4  A    between atoms: C_5  and  C_6
REMARK    5  A    between atoms: C_6  and  C_7
REMARK    6  A    between atoms: C_7  and  C_8
REMARK    7  A    between atoms: C_9  and  C_10
REMARK    8  A    between atoms: C_10  and  N_11
REMARK    9  A    between atoms: C_13  and  C_14
REMARK   10  A    between atoms: C_18  and  O_19
REMARK                            x       y       z     vdW  Elec       q    Type
REMARK                         _______ _______ _______ _____ _____    ______ ____
ROOT
ATOM      1  N   UNL     1       7.527   6.638  17.898  0.00  0.00    +0.000 N 
ATOM      2  C   UNL     1       8.342   7.476  18.599  0.00  0.00    +0.000 A 
ATOM      3  C   UNL     1       8.088   8.715  18.057  0.00  0.00    +0.000 A 
ATOM      4  N   UNL     1       7.153   8.579  17.057  0.00  0.00    +0.000 NA
ATOM      5  N   UNL     1       6.819   7.298  16.967  0.00  0.00    +0.000 NA
ENDROOT
BRANCH   3   6
ATOM      6  C   UNL     1       8.686   9.977  18.450  0.00  0.00    +0.000 A 
ATOM      7  C   UNL     1       9.399  10.068  19.655  0.00  0.00    +0.000 A 
ATOM      8  C   UNL     1       9.971  11.279  20.056  0.00  0.00    +0.000 A 
ATOM      9  C   UNL     1       9.838  12.414  19.258  0.00  0.00    +0.000 A 
ATOM     10  C   UNL     1       9.136  12.326  18.062  0.00  0.00    +0.000 A 
ATOM     11  C   UNL     1       8.565  11.123  17.653  0.00  0.00    +0.000 A 
BRANCH  10  12
ATOM     12  O   UNL     1       8.976  13.405  17.244  0.00  0.00    +0.000 OA
ATOM     13  H   UNL     1       9.616  13.338  16.519  0.00  0.00    +0.000 HD
ENDBRANCH  10  12
ENDBRANCH   3   6
BRANCH   1  14
ATOM     14  C   UNL     1       7.371   5.207  18.082  0.00  0.00    +0.000 C 
BRANCH  14  17
ATOM     15  C   UNL     1       5.338   4.220  16.899  0.00  0.00    +0.000 C 
ATOM     16  C   UNL     1       6.131   3.930  15.651  0.00  0.00    +0.000 C 
ATOM     17  C   UNL     1       5.925   4.801  17.968  0.00  0.00    +0.000 C 
BRANCH  15  18
ATOM     18  C   UNL     1       3.861   3.858  16.983  0.00  0.00    +0.000 C 
BRANCH  18  19
ATOM     19  C   UNL     1       3.069   4.547  18.097  0.00  0.00    +0.000 C 
BRANCH  19  23
ATOM     20  C   UNL     1       1.286   2.928  21.154  0.00  0.00    +0.000 C 
ATOM     21  C   UNL     1       1.880   3.967  20.249  0.00  0.00    +0.000 C 
ATOM     22  C   UNL     1       1.732   5.408  20.657  0.00  0.00    +0.000 C 
ATOM     23  C   UNL     1       2.525   3.597  19.123  0.00  0.00    +0.000 C 
ENDBRANCH  19  23
ENDBRANCH  18  19
ENDBRANCH  15  18
ENDBRANCH  14  17
ENDBRANCH   1  14
TORSDOF 7
ENDMDL
MODEL 6
REMARK VINA RESULT:      -7.4      4.716      6.878
REMARK  Name = 
REMARK  10 active torsions:
REMARK  status: ('A' for Active; 'I' for Inactive)
REMARK    1  A    between atoms: C_1  and  C_2
REMARK    2  A    between atoms: C_2  and  C_3
REMARK    3  A    between atoms: C_4  and  C_5
REMARK    4  A    between atoms: C_5  and  C_6
REMARK    5  A    between atoms: C_6  and  C_7
REMARK    6  A    between atoms: C_7  and  C_8
REMARK    7  A    between atoms: C_9  and  C_10
REMARK    8  A    between atoms: C_10  and  N_11
REMARK    9  A    between atoms: C_13  and  C_14
REMARK   10  A    between atoms: C_18  and  O_19
REMARK                            x       y       z     vdW  Elec       q    Type
REMARK                         _______ _______ _______ _____ _____    ______ ____
ROOT
ATOM      1  N   UNL     1       4.709   6.574  17.155  0.00  0.00    +0.000 N 
ATOM      2  C   UNL     1       4.361   5.357  17.660  0.00  0.00    +0.000 A 
ATOM      3  C   UNL     1       3.176   5.599  18.318  0.00  0.00    +0.000 A 
ATOM      4  N   UNL     1       2.866   6.933  18.198  0.00  0.00    +0.000 NA
ATOM      5  N   UNL     1       3.817   7.522  17.484  0.00  0.00    +0.000 NA
ENDROOT
BRANCH   3   6
ATOM      6  C   UNL     1       2.362   4.631  19.030  0.00  0.00    +0.000 A 
ATOM      7  C   UNL     1       2.257   4.698  20.427  0.00  0.00    +0.000 A 
ATOM      8  C   UNL     1       1.488   3.766  21.130  0.00  0.00    +0.000 A 
ATOM      9  C   UNL     1       0.813   2.757  20.446  0.00  0.00    +0.000 A 
ATOM     10  C   UNL     1       0.911   2.691  19.062  0.00  0.00    +0.000 A 
ATOM     11  C   UNL     1       1.674   3.616  18.353  0.00  0.00    +0.000 A 
BRANCH  10  12
ATOM     12  O   UNL     1       0.272   1.724  18.343  0.00  0.00    +0.000 OA
ATOM     13  H   UNL     1      -0.268   1.197  18.951  0.00  0.00    +0.000 HD
ENDBRANCH  10  12
ENDBRANCH   3   6
BRANCH   1  14
ATOM     14  C   UNL     1       5.870   6.887  16.342  0.00  0.00    +0.000 C 
BRANCH  14  17
ATOM     15  C   UNL     1       7.692   7.320  18.074  0.00  0.00    +0.000 C 
ATOM     16  C   UNL     1       7.705   5.877  18.508  0.00  0.00    +0.000 C 
ATOM     17  C   UNL     1       6.850   7.739  17.105  0.00  0.00    +0.000 C 
BRANCH  15  18
ATOM     18  C   UNL     1       8.633   8.331  18.715  0.00  0.00    +0.000 C 
BRANCH  18  19
ATOM     19  C   UNL     1       8.478   9.779  18.239  0.00  0.00    +0.000 C 
BRANCH  19  23
ATOM     20  C   UNL     1      11.581  11.850  19.347  0.00  0.00    +0.000 C 
ATOM     21  C   UNL     1      10.242  11.176  19.389  0.00  0.00    +0.000 C 
ATOM     22  C   UNL     1       9.482  11.222  20.686  0.00  0.00    +0.000 C 
ATOM     23  C   UNL     1       9.754  10.566  18.287  0.00  0.00    +0.000 C 
ENDBRANCH  19  23
ENDBRANCH  18  19
ENDBRANCH  15  18
ENDBRANCH  14  17
ENDBRANCH   1  14
TORSDOF 7
ENDMDL
MODEL 7
REMARK VINA RESULT:      -7.4      3.780      7.834
REMARK  Name = 
REMARK  10 active torsions:
REMARK  status: ('A' for Active; 'I' for Inactive)
REMARK    1  A    between atoms: C_1  and  C_2
REMARK    2  A    between atoms: C_2  and  C_3
REMARK    3  A    between atoms: C_4  and  C_5
REMARK    4  A    between atoms: C_5  and  C_6
REMARK    5  A    between atoms: C_6  and  C_7
REMARK    6  A    between atoms: C_7  and  C_8
REMARK    7  A    between atoms: C_9  and  C_10
REMARK    8  A    between atoms: C_10  and  N_11
REMARK    9  A    between atoms: C_13  and  C_14
REMARK   10  A    between atoms: C_18  and  O_19
REMARK                            x       y       z     vdW  Elec       q    Type
REMARK                         _______ _______ _______ _____ _____    ______ ____
ROOT
ATOM      1  N   UNL     1       7.042   4.817  16.084  0.00  0.00    +0.000 N 
ATOM      2  C   UNL     1       6.283   3.889  15.436  0.00  0.00    +0.000 A 
ATOM      3  C   UNL     1       6.439   4.205  14.106  0.00  0.00    +0.000 A 
ATOM      4  N   UNL     1       7.262   5.302  14.003  0.00  0.00    +0.000 NA
ATOM      5  N   UNL     1       7.624   5.670  15.225  0.00  0.00    +0.000 NA
ENDROOT
BRANCH   3   6
ATOM      6  C   UNL     1       5.848   3.517  12.972  0.00  0.00    +0.000 A 
ATOM      7  C   UNL     1       4.646   3.983  12.420  0.00  0.00    +0.000 A 
ATOM      8  C   UNL     1       4.056   3.325  11.336  0.00  0.00    +0.000 A 
ATOM      9  C   UNL     1       4.661   2.194  10.791  0.00  0.00    +0.000 A 
ATOM     10  C   UNL     1       5.854   1.733  11.333  0.00  0.00    +0.000 A 
ATOM     11  C   UNL     1       6.450   2.383  12.411  0.00  0.00    +0.000 A 
BRANCH  10  12
ATOM     12  O   UNL     1       6.488   0.632  10.838  0.00  0.00    +0.000 OA
ATOM     13  H   UNL     1       5.906  -0.135  10.954  0.00  0.00    +0.000 HD
ENDBRANCH  10  12
ENDBRANCH   3   6
BRANCH   1  14
ATOM     14  C   UNL     1       7.261   4.929  17.514  0.00  0.00    +0.000 C 
BRANCH  14  17
ATOM     15  C   UNL     1       4.988   5.900  18.146  0.00  0.00    +0.000 C 
ATOM     16  C   UNL     1       5.164   7.072  17.215  0.00  0.00    +0.000 C 
ATOM     17  C   UNL     1       5.953   4.961  18.260  0.00  0.00    +0.000 C 
BRANCH  15  18
ATOM     18  C   UNL     1       3.716   5.747  18.969  0.00  0.00    +0.000 C 
BRANCH  18  19
ATOM     19  C   UNL     1       2.416   5.631  18.169  0.00  0.00    +0.000 C 
BRANCH  19  23
ATOM     20  C   UNL     1       0.699   2.186  18.740  0.00  0.00    +0.000 C 
ATOM     21  C   UNL     1       1.249   3.554  19.012  0.00  0.00    +0.000 C 
ATOM     22  C   UNL     1       1.040   4.125  20.388  0.00  0.00    +0.000 C 
ATOM     23  C   UNL     1       1.911   4.223  18.044  0.00  0.00    +0.000 C 
ENDBRANCH  19  23
ENDBRANCH  18  19
ENDBRANCH  15  18
ENDBRANCH  14  17
ENDBRANCH   1  14
TORSDOF 7
ENDMDL
MODEL 8
REMARK VINA RESULT:      -7.3      4.678      6.674
REMARK  Name = 
REMARK  10 active torsions:
REMARK  status: ('A' for Active; 'I' for Inactive)
REMARK    1  A    between atoms: C_1  and  C_2
REMARK    2  A    between atoms: C_2  and  C_3
REMARK    3  A    between atoms: C_4  and  C_5
REMARK    4  A    between atoms: C_5  and  C_6
REMARK    5  A    between atoms: C_6  and  C_7
REMARK    6  A    between atoms: C_7  and  C_8
REMARK    7  A    between atoms: C_9  and  C_10
REMARK    8  A    between atoms: C_10  and  N_11
REMARK    9  A    between atoms: C_13  and  C_14
REMARK   10  A    between atoms: C_18  and  O_19
REMARK                            x       y       z     vdW  Elec       q    Type
REMARK                         _______ _______ _______ _____ _____    ______ ____
ROOT
ATOM      1  N   UNL     1       6.206   4.865  17.633  0.00  0.00    +0.000 N 
ATOM      2  C   UNL     1       4.849   4.777  17.548  0.00  0.00    +0.000 A 
ATOM      3  C   UNL     1       4.479   4.210  18.745  0.00  0.00    +0.000 A 
ATOM      4  N   UNL     1       5.609   3.969  19.491  0.00  0.00    +0.000 NA
ATOM      5  N   UNL     1       6.664   4.374  18.796  0.00  0.00    +0.000 NA
ENDROOT
BRANCH   3   6
ATOM      6  C   UNL     1       3.130   3.903  19.184  0.00  0.00    +0.000 A 
ATOM      7  C   UNL     1       2.612   4.515  20.335  0.00  0.00    +0.000 A 
ATOM      8  C   UNL     1       1.319   4.222  20.779  0.00  0.00    +0.000 A 
ATOM      9  C   UNL     1       0.528   3.313  20.079  0.00  0.00    +0.000 A 
ATOM     10  C   UNL     1       1.036   2.708  18.936  0.00  0.00    +0.000 A 
ATOM     11  C   UNL     1       2.323   2.996  18.485  0.00  0.00    +0.000 A 
BRANCH  10  12
ATOM     12  O   UNL     1       0.306   1.812  18.214  0.00  0.00    +0.000 OA
ATOM     13  H   UNL     1      -0.566   2.198  18.039  0.00  0.00    +0.000 HD
ENDBRANCH  10  12
ENDBRANCH   3   6
BRANCH   1  14
ATOM     14  C   UNL     1       7.114   5.421  16.646  0.00  0.00    +0.000 C 
BRANCH  14  17
ATOM     15  C   UNL     1       7.785   7.607  17.776  0.00  0.00    +0.000 C 
ATOM     16  C   UNL     1       8.427   6.882  18.931  0.00  0.00    +0.000 C 
ATOM     17  C   UNL     1       7.199   6.919  16.772  0.00  0.00    +0.000 C 
BRANCH  15  18
ATOM     18  C   UNL     1       7.793   9.128  17.715  0.00  0.00    +0.000 C 
BRANCH  18  19
ATOM     19  C   UNL     1       8.699   9.831  18.729  0.00  0.00    +0.000 C 
BRANCH  19  23
ATOM     20  C   UNL     1      10.947  12.652  17.268  0.00  0.00    +0.000 C 
ATOM     21  C   UNL     1       9.741  11.938  17.804  0.00  0.00    +0.000 C 
ATOM     22  C   UNL     1       8.481  12.742  17.981  0.00  0.00    +0.000 C 
ATOM     23  C   UNL     1       9.806  10.623  18.098  0.00  0.00    +0.000 C 
ENDBRANCH  19  23
ENDBRANCH  18  19
ENDBRANCH  15  18
ENDBRANCH  14  17
ENDBRANCH   1  14
TORSDOF 7
ENDMDL
MODEL 9
REMARK VINA RESULT:      -7.3      5.162      7.002
REMARK  Name = 
REMARK  10 active torsions:
REMARK  status: ('A' for Active; 'I' for Inactive)
REMARK    1  A    between atoms: C_1  and  C_2
REMARK    2  A    between atoms: C_2  and  C_3
REMARK    3  A    between atoms: C_4  and  C_5
REMARK    4  A    between atoms: C_5  and  C_6
REMARK    5  A    between atoms: C_6  and  C_7
REMARK    6  A    between atoms: C_7  and  C_8
REMARK    7  A    between atoms: C_9  and  C_10
REMARK    8  A    between atoms: C_10  and  N_11
REMARK    9  A    between atoms: C_13  and  C_14
REMARK   10  A    between atoms: C_18  and  O_19
REMARK                            x       y       z     vdW  Elec       q    Type
REMARK                         _______ _______ _______ _____ _____    ______ ____
ROOT
ATOM      1  N   UNL     1       7.643   6.699  18.001  0.00  0.00    +0.000 N 
ATOM      2  C   UNL     1       8.460   7.473  18.769  0.00  0.00    +0.000 A 
ATOM      3  C   UNL     1       8.315   8.734  18.238  0.00  0.00    +0.000 A 
ATOM      4  N   UNL     1       7.441   8.672  17.178  0.00  0.00    +0.000 NA
ATOM      5  N   UNL     1       7.037   7.416  17.041  0.00  0.00    +0.000 NA
ENDROOT
BRANCH   3   6
ATOM      6  C   UNL     1       8.960   9.951  18.695  0.00  0.00    +0.000 A 
ATOM      7  C   UNL     1       9.493  10.854  17.761  0.00  0.00    +0.000 A 
ATOM      8  C   UNL     1      10.129  12.024  18.184  0.00  0.00    +0.000 A 
ATOM      9  C   UNL     1      10.241  12.308  19.544  0.00  0.00    +0.000 A 
ATOM     10  C   UNL     1       9.712  11.419  20.470  0.00  0.00    +0.000 A 
ATOM     11  C   UNL     1       9.074  10.251  20.058  0.00  0.00    +0.000 A 
BRANCH  10  12
ATOM     12  O   UNL     1       9.794  11.648  21.812  0.00  0.00    +0.000 OA
ATOM     13  H   UNL     1      10.717  11.534  22.086  0.00  0.00    +0.000 HD
ENDBRANCH  10  12
ENDBRANCH   3   6
BRANCH   1  14
ATOM     14  C   UNL     1       7.392   5.277  18.145  0.00  0.00    +0.000 C 
BRANCH  14  17
ATOM     15  C   UNL     1       5.254   4.368  17.089  0.00  0.00    +0.000 C 
ATOM     16  C   UNL     1       5.986   3.919  15.851  0.00  0.00    +0.000 C 
ATOM     17  C   UNL     1       5.916   4.981  18.096  0.00  0.00    +0.000 C 
BRANCH  15  18
ATOM     18  C   UNL     1       3.757   4.133  17.234  0.00  0.00    +0.000 C 
BRANCH  18  19
ATOM     19  C   UNL     1       3.350   2.786  17.837  0.00  0.00    +0.000 C 
BRANCH  19  23
ATOM     20  C   UNL     1       2.144   2.719  21.536  0.00  0.00    +0.000 C 
ATOM     21  C   UNL     1       2.112   2.810  20.040  0.00  0.00    +0.000 C 
ATOM     22  C   UNL     1       0.765   2.921  19.380  0.00  0.00    +0.000 C 
ATOM     23  C   UNL     1       3.263   2.800  19.335  0.00  0.00    +0.000 C 
ENDBRANCH  19  23
ENDBRANCH  18  19
ENDBRANCH  15  18
ENDBRANCH  14  17
ENDBRANCH   1  14
TORSDOF 7
ENDMDL
