MODEL 1
REMARK VINA RESULT:      -7.3      0.000      0.000
REMARK  Name = 
REMARK  7 active torsions:
REMARK  status: ('A' for Active; 'I' for Inactive)
REMARK    1  A    between atoms: C_1  and  O_2
REMARK    2  A    between atoms: O_2  and  C_3
REMARK    3  A    between atoms: C_6  and  N_7
REMARK    4  A    between atoms: N_10  and  C_11
REMARK    5  A    between atoms: C_11  and  C_12
REMARK    6  A    between atoms: C_12  and  C_13
REMARK    7  A    between atoms: C_13  and  N_14
REMARK                            x       y       z     vdW  Elec       q    Type
REMARK                         _______ _______ _______ _____ _____    ______ ____
ROOT
ATOM      1  N   UNL     1       2.170   6.549  19.760  0.00  0.00    +0.000 N 
ATOM      2  C   UNL     1       2.105   5.455  20.724  0.00  0.00    +0.000 C 
ATOM      3  C   UNL     1       1.351   4.295  20.081  0.00  0.00    +0.000 C 
ATOM      4  N   UNL     1       2.019   3.866  18.832  0.00  0.00    +0.000 NA
ATOM      5  C   UNL     1       2.019   4.993  17.867  0.00  0.00    +0.000 C 
ATOM      6  C   UNL     1       2.726   6.236  18.446  0.00  0.00    +0.000 C 
ENDROOT
BRANCH   1  10
ATOM      7  C   UNL     1       0.707  10.427  20.722  0.00  0.00    +0.000 A 
ATOM      8  C   UNL     1       1.078  10.092  19.414  0.00  0.00    +0.000 A 
ATOM      9  C   UNL     1       1.528   8.820  19.118  0.00  0.00    +0.000 A 
ATOM     10  C   UNL     1       1.627   7.829  20.108  0.00  0.00    +0.000 A 
ATOM     11  C   UNL     1       1.206   8.144  21.418  0.00  0.00    +0.000 A 
ATOM     12  C   UNL     1       0.755   9.440  21.719  0.00  0.00    +0.000 A 
BRANCH   7  14
ATOM     13  C   UNL     1      -0.919  12.223  20.734  0.00  0.00    +0.000 C 
ATOM     14  O   UNL     1       0.316  11.685  21.044  0.00  0.00    +0.000 OA
ENDBRANCH   7  14
ENDBRANCH   1  10
BRANCH   4  15
ATOM     15  C   UNL     1       3.380   3.298  19.038  0.00  0.00    +0.000 C 
BRANCH  15  16
ATOM     16  C   UNL     1       4.233   3.303  17.760  0.00  0.00    +0.000 C 
BRANCH  16  17
ATOM     17  C   UNL     1       5.567   4.021  17.984  0.00  0.00    +0.000 C 
BRANCH  17  18
ATOM     18  N   UNL     1       6.133   4.440  16.699  0.00  0.00    +0.000 N 
ATOM     19  C   UNL     1       5.991   3.744  15.554  0.00  0.00    +0.000 A 
ATOM     20  C   UNL     1       6.648   4.413  14.550  0.00  0.00    +0.000 A 
ATOM     21  N   UNL     1       7.204   5.532  15.051  0.00  0.00    +0.000 NA
ATOM     22  C   UNL     1       6.882   5.528  16.363  0.00  0.00    +0.000 A 
ATOM     23  N   UNL     1       7.310   6.566  17.238  0.00  0.00    +0.000 N 
ATOM     24  O   UNL     1       7.031   6.567  18.397  0.00  0.00    +0.000 OA
ATOM     25  O   UNL     1       8.050   7.544  16.762  0.00  0.00    +0.000 OA
ENDBRANCH  17  18
ENDBRANCH  16  17
ENDBRANCH  15  16
ENDBRANCH   4  15
TORSDOF 6
ENDMDL
MODEL 2
REMARK VINA RESULT:      -7.2      0.714      1.222
REMARK  Name = 
REMARK  7 active torsions:
REMARK  status: ('A' for Active; 'I' for Inactive)
REMARK    1  A    between atoms: C_1  and  O_2
REMARK    2  A    between atoms: O_2  and  C_3
REMARK    3  A    between atoms: C_6  and  N_7
REMARK    4  A    between atoms: N_10  and  C_11
REMARK    5  A    between atoms: C_11  and  C_12
REMARK    6  A    between atoms: C_12  and  C_13
REMARK    7  A    between atoms: C_13  and  N_14
REMARK                            x       y       z     vdW  Elec       q    Type
REMARK                         _______ _______ _______ _____ _____    ______ ____
ROOT
ATOM      1  N   UNL     1       2.310   6.701  19.391  0.00  0.00    +0.000 N 
ATOM      2  C   UNL     1       2.239   5.871  20.590  0.00  0.00    +0.000 C 
ATOM      3  C   UNL     1       1.431   4.620  20.257  0.00  0.00    +0.000 C 
ATOM      4  N   UNL     1       2.048   3.882  19.133  0.00  0.00    +0.000 NA
ATOM      5  C   UNL     1       2.056   4.748  17.927  0.00  0.00    +0.000 C 
ATOM      6  C   UNL     1       2.817   6.064  18.179  0.00  0.00    +0.000 C 
ENDROOT
BRANCH   1  10
ATOM      7  C   UNL     1       0.693  10.632  19.580  0.00  0.00    +0.000 A 
ATOM      8  C   UNL     1       0.685   9.786  20.697  0.00  0.00    +0.000 A 
ATOM      9  C   UNL     1       1.237   8.523  20.622  0.00  0.00    +0.000 A 
ATOM     10  C   UNL     1       1.819   8.046  19.435  0.00  0.00    +0.000 A 
ATOM     11  C   UNL     1       1.876   8.912  18.321  0.00  0.00    +0.000 A 
ATOM     12  C   UNL     1       1.308  10.194  18.397  0.00  0.00    +0.000 A 
BRANCH   7  14
ATOM     13  C   UNL     1      -0.896  12.267  18.760  0.00  0.00    +0.000 C 
ATOM     14  O   UNL     1       0.106  11.855  19.618  0.00  0.00    +0.000 OA
ENDBRANCH   7  14
ENDBRANCH   1  10
BRANCH   4  15
ATOM     15  C   UNL     1       3.396   3.329  19.440  0.00  0.00    +0.000 C 
BRANCH  15  16
ATOM     16  C   UNL     1       4.256   3.112  18.185  0.00  0.00    +0.000 C 
BRANCH  16  17
ATOM     17  C   UNL     1       5.534   3.955  18.235  0.00  0.00    +0.000 C 
BRANCH  17  18
ATOM     18  N   UNL     1       5.875   4.429  16.890  0.00  0.00    +0.000 N 
ATOM     19  C   UNL     1       5.486   3.811  15.757  0.00  0.00    +0.000 A 
ATOM     20  C   UNL     1       5.981   4.513  14.685  0.00  0.00    +0.000 A 
ATOM     21  N   UNL     1       6.682   5.572  15.131  0.00  0.00    +0.000 NA
ATOM     22  C   UNL     1       6.608   5.501  16.477  0.00  0.00    +0.000 A 
ATOM     23  N   UNL     1       7.246   6.462  17.311  0.00  0.00    +0.000 N 
ATOM     24  O   UNL     1       7.187   6.404  18.499  0.00  0.00    +0.000 OA
ATOM     25  O   UNL     1       7.938   7.434  16.757  0.00  0.00    +0.000 OA
ENDBRANCH  17  18
ENDBRANCH  16  17
ENDBRANCH  15  16
ENDBRANCH   4  15
TORSDOF 6
ENDMDL
MODEL 3
REMARK VINA RESULT:      -7.0      1.136      1.675
REMARK  Name = 
REMARK  7 active torsions:
REMARK  status: ('A' for Active; 'I' for Inactive)
REMARK    1  A    between atoms: C_1  and  O_2
REMARK    2  A    between atoms: O_2  and  C_3
REMARK    3  A    between atoms: C_6  and  N_7
REMARK    4  A    between atoms: N_10  and  C_11
REMARK    5  A    between atoms: C_11  and  C_12
REMARK    6  A    between atoms: C_12  and  C_13
REMARK    7  A    between atoms: C_13  and  N_14
REMARK                            x       y       z     vdW  Elec       q    Type
REMARK                         _______ _______ _______ _____ _____    ______ ____
ROOT
ATOM      1  N   UNL     1       1.790   7.590  19.389  0.00  0.00    +0.000 N 
ATOM      2  C   UNL     1       2.145   7.735  17.980  0.00  0.00    +0.000 C 
ATOM      3  C   UNL     1       3.622   7.386  17.822  0.00  0.00    +0.000 C 
ATOM      4  N   UNL     1       3.889   6.011  18.301  0.00  0.00    +0.000 NA
ATOM      5  C   UNL     1       3.558   5.925  19.745  0.00  0.00    +0.000 C 
ATOM      6  C   UNL     1       2.088   6.304  20.014  0.00  0.00    +0.000 C 
ENDROOT
BRANCH   1  10
ATOM      7  C   UNL     1       0.329  11.019  21.441  0.00  0.00    +0.000 A 
ATOM      8  C   UNL     1       0.610  11.055  20.069  0.00  0.00    +0.000 A 
ATOM      9  C   UNL     1       1.060   9.925  19.417  0.00  0.00    +0.000 A 
ATOM     10  C   UNL     1       1.251   8.712  20.099  0.00  0.00    +0.000 A 
ATOM     11  C   UNL     1       0.921   8.654  21.471  0.00  0.00    +0.000 A 
ATOM     12  C   UNL     1       0.470   9.807  22.134  0.00  0.00    +0.000 A 
BRANCH   7  14
ATOM     13  C   UNL     1      -1.154  12.195  22.953  0.00  0.00    +0.000 C 
ATOM     14  O   UNL     1      -0.060  12.133  22.110  0.00  0.00    +0.000 OA
ENDBRANCH   7  14
ENDBRANCH   1  10
BRANCH   4  15
ATOM     15  C   UNL     1       3.215   4.951  17.503  0.00  0.00    +0.000 C 
BRANCH  15  16
ATOM     16  C   UNL     1       4.040   3.658  17.402  0.00  0.00    +0.000 C 
BRANCH  16  17
ATOM     17  C   UNL     1       5.529   3.929  17.639  0.00  0.00    +0.000 C 
BRANCH  17  18
ATOM     18  N   UNL     1       6.154   4.411  16.405  0.00  0.00    +0.000 N 
ATOM     19  C   UNL     1       6.053   3.781  15.217  0.00  0.00    +0.000 A 
ATOM     20  C   UNL     1       6.759   4.497  14.281  0.00  0.00    +0.000 A 
ATOM     21  N   UNL     1       7.306   5.579  14.867  0.00  0.00    +0.000 NA
ATOM     22  C   UNL     1       6.929   5.506  16.161  0.00  0.00    +0.000 A 
ATOM     23  N   UNL     1       7.330   6.488  17.111  0.00  0.00    +0.000 N 
ATOM     24  O   UNL     1       7.002   6.428  18.255  0.00  0.00    +0.000 OA
ATOM     25  O   UNL     1       8.100   7.480  16.722  0.00  0.00    +0.000 OA
ENDBRANCH  17  18
ENDBRANCH  16  17
ENDBRANCH  15  16
ENDBRANCH   4  15
TORSDOF 6
ENDMDL
MODEL 4
REMARK VINA RESULT:      -7.0      0.752      1.225
REMARK  Name = 
REMARK  7 active torsions:
REMARK  status: ('A' for Active; 'I' for Inactive)
REMARK    1  A    between atoms: C_1  and  O_2
REMARK    2  A    between atoms: O_2  and  C_3
REMARK    3  A    between atoms: C_6  and  N_7
REMARK    4  A    between atoms: N_10  and  C_11
REMARK    5  A    between atoms: C_11  and  C_12
REMARK    6  A    between atoms: C_12  and  C_13
REMARK    7  A    between atoms: C_13  and  N_14
REMARK                            x       y       z     vdW  Elec       q    Type
REMARK                         _______ _______ _______ _____ _____    ______ ____
ROOT
ATOM      1  N   UNL     1       2.056   7.005  20.075  0.00  0.00    +0.000 N 
ATOM      2  C   UNL     1       1.823   5.916  21.018  0.00  0.00    +0.000 C 
ATOM      3  C   UNL     1       1.244   4.733  20.248  0.00  0.00    +0.000 C 
ATOM      4  N   UNL     1       2.162   4.314  19.165  0.00  0.00    +0.000 NA
ATOM      5  C   UNL     1       2.330   5.435  18.208  0.00  0.00    +0.000 C 
ATOM      6  C   UNL     1       2.874   6.699  18.904  0.00  0.00    +0.000 C 
ENDROOT
BRANCH   1  10
ATOM      7  C   UNL     1       0.038  10.683  20.789  0.00  0.00    +0.000 A 
ATOM      8  C   UNL     1       0.277   9.769  21.824  0.00  0.00    +0.000 A 
ATOM      9  C   UNL     1       0.955   8.592  21.576  0.00  0.00    +0.000 A 
ATOM     10  C   UNL     1       1.424   8.273  20.291  0.00  0.00    +0.000 A 
ATOM     11  C   UNL     1       1.231   9.213  19.254  0.00  0.00    +0.000 A 
ATOM     12  C   UNL     1       0.536  10.406  19.506  0.00  0.00    +0.000 A 
BRANCH   7  14
ATOM     13  C   UNL     1      -0.372  12.761  21.965  0.00  0.00    +0.000 C 
ATOM     14  O   UNL     1      -0.675  11.817  21.001  0.00  0.00    +0.000 OA
ENDBRANCH   7  14
ENDBRANCH   1  10
BRANCH   4  15
ATOM     15  C   UNL     1       3.465   3.783  19.649  0.00  0.00    +0.000 C 
BRANCH  15  16
ATOM     16  C   UNL     1       4.363   3.268  18.514  0.00  0.00    +0.000 C 
BRANCH  16  17
ATOM     17  C   UNL     1       5.665   4.070  18.426  0.00  0.00    +0.000 C 
BRANCH  17  18
ATOM     18  N   UNL     1       5.776   4.704  17.109  0.00  0.00    +0.000 N 
ATOM     19  C   UNL     1       5.172   4.237  15.999  0.00  0.00    +0.000 A 
ATOM     20  C   UNL     1       5.490   5.063  14.948  0.00  0.00    +0.000 A 
ATOM     21  N   UNL     1       6.291   6.052  15.385  0.00  0.00    +0.000 NA
ATOM     22  C   UNL     1       6.456   5.814  16.704  0.00  0.00    +0.000 A 
ATOM     23  N   UNL     1       7.262   6.658  17.519  0.00  0.00    +0.000 N 
ATOM     24  O   UNL     1       7.413   6.452  18.683  0.00  0.00    +0.000 OA
ATOM     25  O   UNL     1       7.874   7.685  16.971  0.00  0.00    +0.000 OA
ENDBRANCH  17  18
ENDBRANCH  16  17
ENDBRANCH  15  16
ENDBRANCH   4  15
TORSDOF 6
ENDMDL
MODEL 5
REMARK VINA RESULT:      -6.8      1.285      2.010
REMARK  Name = 
REMARK  7 active torsions:
REMARK  status: ('A' for Active; 'I' for Inactive)
REMARK    1  A    between atoms: C_1  and  O_2
REMARK    2  A    between atoms: O_2  and  C_3
REMARK    3  A    between atoms: C_6  and  N_7
REMARK    4  A    between atoms: N_10  and  C_11
REMARK    5  A    between atoms: C_11  and  C_12
REMARK    6  A    between atoms: C_12  and  C_13
REMARK    7  A    between atoms: C_13  and  N_14
REMARK                            x       y       z     vdW  Elec       q    Type
REMARK                         _______ _______ _______ _____ _____    ______ ____
ROOT
ATOM      1  N   UNL     1       1.503   7.305  19.880  0.00  0.00    +0.000 N 
ATOM      2  C   UNL     1       2.023   7.475  18.527  0.00  0.00    +0.000 C 
ATOM      3  C   UNL     1       3.439   6.907  18.485  0.00  0.00    +0.000 C 
ATOM      4  N   UNL     1       3.442   5.482  18.882  0.00  0.00    +0.000 NA
ATOM      5  C   UNL     1       2.951   5.363  20.277  0.00  0.00    +0.000 C 
ATOM      6  C   UNL     1       1.534   5.952  20.431  0.00  0.00    +0.000 C 
ENDROOT
BRANCH   1  10
ATOM      7  C   UNL     1       0.105  10.605  22.172  0.00  0.00    +0.000 A 
ATOM      8  C   UNL     1       0.690   9.489  22.784  0.00  0.00    +0.000 A 
ATOM      9  C   UNL     1       1.160   8.439  22.020  0.00  0.00    +0.000 A 
ATOM     10  C   UNL     1       1.067   8.453  20.619  0.00  0.00    +0.000 A 
ATOM     11  C   UNL     1       0.524   9.597  19.993  0.00  0.00    +0.000 A 
ATOM     12  C   UNL     1       0.041  10.661  20.771  0.00  0.00    +0.000 A 
BRANCH   7  14
ATOM     13  C   UNL     1      -1.735  12.021  22.865  0.00  0.00    +0.000 C 
ATOM     14  O   UNL     1      -0.413  11.621  22.908  0.00  0.00    +0.000 OA
ENDBRANCH   7  14
ENDBRANCH   1  10
BRANCH   4  15
ATOM     15  C   UNL     1       2.704   4.591  17.944  0.00  0.00    +0.000 C 
BRANCH  15  16
ATOM     16  C   UNL     1       3.615   3.574  17.239  0.00  0.00    +0.000 C 
BRANCH  16  17
ATOM     17  C   UNL     1       5.021   3.573  17.846  0.00  0.00    +0.000 C 
BRANCH  17  18
ATOM     18  N   UNL     1       5.931   4.359  17.008  0.00  0.00    +0.000 N 
ATOM     19  C   UNL     1       5.976   4.271  15.664  0.00  0.00    +0.000 A 
ATOM     20  C   UNL     1       6.937   5.137  15.201  0.00  0.00    +0.000 A 
ATOM     21  N   UNL     1       7.502   5.774  16.244  0.00  0.00    +0.000 NA
ATOM     22  C   UNL     1       6.876   5.284  17.336  0.00  0.00    +0.000 A 
ATOM     23  N   UNL     1       7.215   5.720  18.647  0.00  0.00    +0.000 N 
ATOM     24  O   UNL     1       6.669   5.291  19.615  0.00  0.00    +0.000 OA
ATOM     25  O   UNL     1       8.172   6.611  18.801  0.00  0.00    +0.000 OA
ENDBRANCH  17  18
ENDBRANCH  16  17
ENDBRANCH  15  16
ENDBRANCH   4  15
TORSDOF 6
ENDMDL
MODEL 6
REMARK VINA RESULT:      -6.7      1.403      2.054
REMARK  Name = 
REMARK  7 active torsions:
REMARK  status: ('A' for Active; 'I' for Inactive)
REMARK    1  A    between atoms: C_1  and  O_2
REMARK    2  A    between atoms: O_2  and  C_3
REMARK    3  A    between atoms: C_6  and  N_7
REMARK    4  A    between atoms: N_10  and  C_11
REMARK    5  A    between atoms: C_11  and  C_12
REMARK    6  A    between atoms: C_12  and  C_13
REMARK    7  A    between atoms: C_13  and  N_14
REMARK                            x       y       z     vdW  Elec       q    Type
REMARK                         _______ _______ _______ _____ _____    ______ ____
ROOT
ATOM      1  N   UNL     1       2.097   6.766  19.858  0.00  0.00    +0.000 N 
ATOM      2  C   UNL     1       2.088   5.673  20.825  0.00  0.00    +0.000 C 
ATOM      3  C   UNL     1       1.356   4.488  20.199  0.00  0.00    +0.000 C 
ATOM      4  N   UNL     1       2.010   4.078  18.936  0.00  0.00    +0.000 NA
ATOM      5  C   UNL     1       1.954   5.203  17.971  0.00  0.00    +0.000 C 
ATOM      6  C   UNL     1       2.634   6.468  18.533  0.00  0.00    +0.000 C 
ENDROOT
BRANCH   1  10
ATOM      7  C   UNL     1       0.250  10.429  20.984  0.00  0.00    +0.000 A 
ATOM      8  C   UNL     1       0.451   9.399  21.912  0.00  0.00    +0.000 A 
ATOM      9  C   UNL     1       1.074   8.227  21.532  0.00  0.00    +0.000 A 
ATOM     10  C   UNL     1       1.524   8.029  20.216  0.00  0.00    +0.000 A 
ATOM     11  C   UNL     1       1.371   9.084  19.289  0.00  0.00    +0.000 A 
ATOM     12  C   UNL     1       0.731  10.272  19.675  0.00  0.00    +0.000 A 
BRANCH   7  14
ATOM     13  C   UNL     1      -0.880  11.845  22.594  0.00  0.00    +0.000 C 
ATOM     14  O   UNL     1      -0.410  11.565  21.324  0.00  0.00    +0.000 OA
ENDBRANCH   7  14
ENDBRANCH   1  10
BRANCH   4  15
ATOM     15  C   UNL     1       3.391   3.553  19.113  0.00  0.00    +0.000 C 
BRANCH  15  16
ATOM     16  C   UNL     1       3.909   2.796  17.880  0.00  0.00    +0.000 C 
BRANCH  16  17
ATOM     17  C   UNL     1       4.336   3.763  16.773  0.00  0.00    +0.000 C 
BRANCH  17  18
ATOM     18  N   UNL     1       5.644   4.344  17.090  0.00  0.00    +0.000 N 
ATOM     19  C   UNL     1       6.088   4.549  18.345  0.00  0.00    +0.000 A 
ATOM     20  C   UNL     1       7.341   5.109  18.280  0.00  0.00    +0.000 A 
ATOM     21  N   UNL     1       7.695   5.260  16.990  0.00  0.00    +0.000 NA
ATOM     22  C   UNL     1       6.645   4.791  16.281  0.00  0.00    +0.000 A 
ATOM     23  N   UNL     1       6.646   4.795  14.857  0.00  0.00    +0.000 N 
ATOM     24  O   UNL     1       5.723   4.385  14.225  0.00  0.00    +0.000 OA
ATOM     25  O   UNL     1       7.688   5.282  14.217  0.00  0.00    +0.000 OA
ENDBRANCH  17  18
ENDBRANCH  16  17
ENDBRANCH  15  16
ENDBRANCH   4  15
TORSDOF 6
ENDMDL
MODEL 7
REMARK VINA RESULT:      -6.7      0.909      1.364
REMARK  Name = 
REMARK  7 active torsions:
REMARK  status: ('A' for Active; 'I' for Inactive)
REMARK    1  A    between atoms: C_1  and  O_2
REMARK    2  A    between atoms: O_2  and  C_3
REMARK    3  A    between atoms: C_6  and  N_7
REMARK    4  A    between atoms: N_10  and  C_11
REMARK    5  A    between atoms: C_11  and  C_12
REMARK    6  A    between atoms: C_12  and  C_13
REMARK    7  A    between atoms: C_13  and  N_14
REMARK                            x       y       z     vdW  Elec       q    Type
REMARK                         _______ _______ _______ _____ _____    ______ ____
ROOT
ATOM      1  N   UNL     1       2.032   6.938  19.826  0.00  0.00    +0.000 N 
ATOM      2  C   UNL     1       2.133   5.788  20.719  0.00  0.00    +0.000 C 
ATOM      3  C   UNL     1       1.339   4.637  20.108  0.00  0.00    +0.000 C 
ATOM      4  N   UNL     1       1.848   4.309  18.758  0.00  0.00    +0.000 NA
ATOM      5  C   UNL     1       1.683   5.490  17.875  0.00  0.00    +0.000 C 
ATOM      6  C   UNL     1       2.419   6.724  18.433  0.00  0.00    +0.000 C 
ENDROOT
BRANCH   1  10
ATOM      7  C   UNL     1       0.317  10.510  21.374  0.00  0.00    +0.000 A 
ATOM      8  C   UNL     1       0.653   9.440  22.213  0.00  0.00    +0.000 A 
ATOM      9  C   UNL     1       1.231   8.298  21.694  0.00  0.00    +0.000 A 
ATOM     10  C   UNL     1       1.499   8.172  20.321  0.00  0.00    +0.000 A 
ATOM     11  C   UNL     1       1.210   9.267  19.477  0.00  0.00    +0.000 A 
ATOM     12  C   UNL     1       0.616  10.424  20.005  0.00  0.00    +0.000 A 
BRANCH   7  14
ATOM     13  C   UNL     1      -1.167  11.619  22.935  0.00  0.00    +0.000 C 
ATOM     14  O   UNL     1      -0.303  11.616  21.857  0.00  0.00    +0.000 OA
ENDBRANCH   7  14
ENDBRANCH   1  10
BRANCH   4  15
ATOM     15  C   UNL     1       3.242   3.786  18.749  0.00  0.00    +0.000 C 
BRANCH  15  16
ATOM     16  C   UNL     1       3.789   3.560  17.331  0.00  0.00    +0.000 C 
BRANCH  16  17
ATOM     17  C   UNL     1       5.262   3.139  17.364  0.00  0.00    +0.000 C 
BRANCH  17  18
ATOM     18  N   UNL     1       6.068   4.071  16.570  0.00  0.00    +0.000 N 
ATOM     19  C   UNL     1       6.149   4.035  15.225  0.00  0.00    +0.000 A 
ATOM     20  C   UNL     1       6.989   5.039  14.810  0.00  0.00    +0.000 A 
ATOM     21  N   UNL     1       7.441   5.714  15.884  0.00  0.00    +0.000 NA
ATOM     22  C   UNL     1       6.871   5.106  16.947  0.00  0.00    +0.000 A 
ATOM     23  N   UNL     1       7.123   5.541  18.278  0.00  0.00    +0.000 N 
ATOM     24  O   UNL     1       6.625   5.008  19.220  0.00  0.00    +0.000 OA
ATOM     25  O   UNL     1       7.944   6.549  18.480  0.00  0.00    +0.000 OA
ENDBRANCH  17  18
ENDBRANCH  16  17
ENDBRANCH  15  16
ENDBRANCH   4  15
TORSDOF 6
ENDMDL
MODEL 8
REMARK VINA RESULT:      -6.7      1.665      2.295
REMARK  Name = 
REMARK  7 active torsions:
REMARK  status: ('A' for Active; 'I' for Inactive)
REMARK    1  A    between atoms: C_1  and  O_2
REMARK    2  A    between atoms: O_2  and  C_3
REMARK    3  A    between atoms: C_6  and  N_7
REMARK    4  A    between atoms: N_10  and  C_11
REMARK    5  A    between atoms: C_11  and  C_12
REMARK    6  A    between atoms: C_12  and  C_13
REMARK    7  A    between atoms: C_13  and  N_14
REMARK                            x       y       z     vdW  Elec       q    Type
REMARK                         _______ _______ _______ _____ _____    ______ ____
ROOT
ATOM      1  N   UNL     1       2.473   5.996  18.878  0.00  0.00    +0.000 N 
ATOM      2  C   UNL     1       3.451   5.424  19.797  0.00  0.00    +0.000 C 
ATOM      3  C   UNL     1       2.832   4.189  20.446  0.00  0.00    +0.000 C 
ATOM      4  N   UNL     1       2.427   3.205  19.418  0.00  0.00    +0.000 NA
ATOM      5  C   UNL     1       1.399   3.815  18.538  0.00  0.00    +0.000 C 
ATOM      6  C   UNL     1       1.919   5.101  17.865  0.00  0.00    +0.000 C 
ENDROOT
BRANCH   1  10
ATOM      7  C   UNL     1       1.064   9.967  19.471  0.00  0.00    +0.000 A 
ATOM      8  C   UNL     1       1.141   9.055  20.531  0.00  0.00    +0.000 A 
ATOM      9  C   UNL     1       1.623   7.778  20.322  0.00  0.00    +0.000 A 
ATOM     10  C   UNL     1       2.050   7.354  19.053  0.00  0.00    +0.000 A 
ATOM     11  C   UNL     1       2.024   8.285  17.991  0.00  0.00    +0.000 A 
ATOM     12  C   UNL     1       1.526   9.580  18.203  0.00  0.00    +0.000 A 
BRANCH   7  14
ATOM     13  C   UNL     1       0.736  12.264  18.776  0.00  0.00    +0.000 C 
ATOM     14  O   UNL     1       0.541  11.206  19.644  0.00  0.00    +0.000 OA
ENDBRANCH   7  14
ENDBRANCH   1  10
BRANCH   4  15
ATOM     15  C   UNL     1       3.564   2.633  18.647  0.00  0.00    +0.000 C 
BRANCH  15  16
ATOM     16  C   UNL     1       4.787   3.563  18.600  0.00  0.00    +0.000 C 
BRANCH  16  17
ATOM     17  C   UNL     1       5.245   3.808  17.160  0.00  0.00    +0.000 C 
BRANCH  17  18
ATOM     18  N   UNL     1       6.159   4.952  17.111  0.00  0.00    +0.000 N 
ATOM     19  C   UNL     1       6.375   5.784  18.150  0.00  0.00    +0.000 A 
ATOM     20  C   UNL     1       7.278   6.743  17.763  0.00  0.00    +0.000 A 
ATOM     21  N   UNL     1       7.637   6.525  16.483  0.00  0.00    +0.000 NA
ATOM     22  C   UNL     1       6.942   5.432  16.104  0.00  0.00    +0.000 A 
ATOM     23  N   UNL     1       7.055   4.895  14.791  0.00  0.00    +0.000 N 
ATOM     24  O   UNL     1       6.443   3.932  14.449  0.00  0.00    +0.000 OA
ATOM     25  O   UNL     1       7.843   5.488  13.920  0.00  0.00    +0.000 OA
ENDBRANCH  17  18
ENDBRANCH  16  17
ENDBRANCH  15  16
ENDBRANCH   4  15
TORSDOF 6
ENDMDL
MODEL 9
REMARK VINA RESULT:      -6.7      1.380      1.791
REMARK  Name = 
REMARK  7 active torsions:
REMARK  status: ('A' for Active; 'I' for Inactive)
REMARK    1  A    between atoms: C_1  and  O_2
REMARK    2  A    between atoms: O_2  and  C_3
REMARK    3  A    between atoms: C_6  and  N_7
REMARK    4  A    between atoms: N_10  and  C_11
REMARK    5  A    between atoms: C_11  and  C_12
REMARK    6  A    between atoms: C_12  and  C_13
REMARK    7  A    between atoms: C_13  and  N_14
REMARK                            x       y       z     vdW  Elec       q    Type
REMARK                         _______ _______ _______ _____ _____    ______ ____
ROOT
ATOM      1  N   UNL     1       2.124   6.839  19.914  0.00  0.00    +0.000 N 
ATOM      2  C   UNL     1       2.014   5.695  20.814  0.00  0.00    +0.000 C 
ATOM      3  C   UNL     1       1.318   4.563  20.065  0.00  0.00    +0.000 C 
ATOM      4  N   UNL     1       2.068   4.207  18.840  0.00  0.00    +0.000 NA
ATOM      5  C   UNL     1       2.113   5.384  17.937  0.00  0.00    +0.000 C 
ATOM      6  C   UNL     1       2.765   6.601  18.623  0.00  0.00    +0.000 C 
ENDROOT
BRANCH   1  10
ATOM      7  C   UNL     1       0.544  10.647  20.964  0.00  0.00    +0.000 A 
ATOM      8  C   UNL     1       0.880  10.337  19.640  0.00  0.00    +0.000 A 
ATOM      9  C   UNL     1       1.369   9.087  19.316  0.00  0.00    +0.000 A 
ATOM     10  C   UNL     1       1.544   8.093  20.293  0.00  0.00    +0.000 A 
ATOM     11  C   UNL     1       1.160   8.381  21.621  0.00  0.00    +0.000 A 
ATOM     12  C   UNL     1       0.669   9.655  21.950  0.00  0.00    +0.000 A 
BRANCH   7  14
ATOM     13  C   UNL     1       0.425  13.042  20.618  0.00  0.00    +0.000 C 
ATOM     14  O   UNL     1       0.116  11.886  21.311  0.00  0.00    +0.000 OA
ENDBRANCH   7  14
ENDBRANCH   1  10
BRANCH   4  15
ATOM     15  C   UNL     1       3.420   3.643  19.101  0.00  0.00    +0.000 C 
BRANCH  15  16
ATOM     16  C   UNL     1       3.968   2.824  17.922  0.00  0.00    +0.000 C 
BRANCH  16  17
ATOM     17  C   UNL     1       4.401   3.732  16.767  0.00  0.00    +0.000 C 
BRANCH  17  18
ATOM     18  N   UNL     1       5.702   4.336  17.064  0.00  0.00    +0.000 N 
ATOM     19  C   UNL     1       6.168   4.538  18.313  0.00  0.00    +0.000 A 
ATOM     20  C   UNL     1       7.408   5.124  18.228  0.00  0.00    +0.000 A 
ATOM     21  N   UNL     1       7.732   5.293  16.933  0.00  0.00    +0.000 NA
ATOM     22  C   UNL     1       6.679   4.810  16.240  0.00  0.00    +0.000 A 
ATOM     23  N   UNL     1       6.651   4.827  14.817  0.00  0.00    +0.000 N 
ATOM     24  O   UNL     1       5.725   4.404  14.200  0.00  0.00    +0.000 OA
ATOM     25  O   UNL     1       7.670   5.341  14.161  0.00  0.00    +0.000 OA
ENDBRANCH  17  18
ENDBRANCH  16  17
ENDBRANCH  15  16
ENDBRANCH   4  15
TORSDOF 6
ENDMDL
