MODEL 1
REMARK VINA RESULT:      -6.2      0.000      0.000
REMARK  Name = 
REMARK  6 active torsions:
REMARK  status: ('A' for Active; 'I' for Inactive)
REMARK    1  A    between atoms: CB_1  and  CA_2
REMARK    2  A    between atoms: CA_2  and  N_3
REMARK    3  A    between atoms: CA_2  and  C_4
REMARK    4  A    between atoms: N_9  and  C_10
REMARK    5  A    between atoms: C_12  and  C_13
REMARK    6  A    between atoms: C_13  and  O_15
REMARK                            x       y       z     vdW  Elec       q    Type
REMARK                         _______ _______ _______ _____ _____    ______ ____
ROOT
ATOM      1  C   ALA A   1       4.423   5.683  18.578  0.00  0.00    +0.000 C 
ATOM      2  O   ALA A   1       4.449   5.467  19.793  0.00  0.00    +0.000 OA
ATOM      3  N   UNK A   2       5.599   5.680  17.845  0.00  0.00    +0.000 N 
ATOM      4  C   UNK A   2       5.709   5.864  16.460  0.00  0.00    +0.000 C 
ATOM      5  O   UNK A   2       4.955   6.500  15.749  0.00  0.00    +0.000 OA
ATOM      6  N   UNK A   2       6.860   5.220  16.026  0.00  0.00    +0.000 N 
ATOM      7  C   UNK A   2       7.072   4.878  14.639  0.00  0.00    +0.000 C 
ATOM      8  C   UNK A   2       7.526   4.526  17.106  0.00  0.00    +0.000 C 
ATOM      9  C   UNK A   2       6.786   4.995  18.359  0.00  0.00    +0.000 C 
ENDROOT
BRANCH   1  11
ATOM     10  CB  ALA A   1       2.468   7.259  18.184  0.00  0.00    +0.000 C 
ATOM     11  CA  ALA A   1       3.085   5.914  17.825  0.00  0.00    +0.000 C 
BRANCH  11  12
ATOM     12  N   ALA A   1       2.136   4.834  18.178  0.00  0.00    +0.000 NA
ATOM     13  H1  ALA A   1       2.420   4.441  19.078  0.00  0.00    +0.000 HD
ATOM     14  H2  ALA A   1       2.245   4.069  17.513  0.00  0.00    +0.000 HD
ENDBRANCH  11  12
ENDBRANCH   1  11
BRANCH   9  15
ATOM     15  C   UNK A   2       7.727   5.846  19.198  0.00  0.00    +0.000 C 
ATOM     16  O   UNK A   2       8.244   6.874  18.771  0.00  0.00    +0.000 OA
BRANCH  15  17
ATOM     17  O   UNK A   2       7.959   5.413  20.454  0.00  0.00    +0.000 OA
ATOM     18  H   UNK A   2       8.150   4.455  20.509  0.00  0.00    +0.000 HD
ENDBRANCH  15  17
ENDBRANCH   9  15
TORSDOF 4
ENDMDL
MODEL 2
REMARK VINA RESULT:      -6.1      2.167      4.787
REMARK  Name = 
REMARK  6 active torsions:
REMARK  status: ('A' for Active; 'I' for Inactive)
REMARK    1  A    between atoms: CB_1  and  CA_2
REMARK    2  A    between atoms: CA_2  and  N_3
REMARK    3  A    between atoms: CA_2  and  C_4
REMARK    4  A    between atoms: N_9  and  C_10
REMARK    5  A    between atoms: C_12  and  C_13
REMARK    6  A    between atoms: C_13  and  O_15
REMARK                            x       y       z     vdW  Elec       q    Type
REMARK                         _______ _______ _______ _____ _____    ______ ____
ROOT
ATOM      1  C   ALA A   1       5.468   4.615  18.939  0.00  0.00    +0.000 C 
ATOM      2  O   ALA A   1       5.419   3.537  19.538  0.00  0.00    +0.000 OA
ATOM      3  N   UNK A   2       4.305   5.200  18.462  0.00  0.00    +0.000 N 
ATOM      4  C   UNK A   2       4.210   6.436  17.810  0.00  0.00    +0.000 C 
ATOM      5  O   UNK A   2       5.072   6.972  17.139  0.00  0.00    +0.000 OA
ATOM      6  N   UNK A   2       2.938   6.946  18.027  0.00  0.00    +0.000 N 
ATOM      7  C   UNK A   2       2.628   8.345  17.838  0.00  0.00    +0.000 C 
ATOM      8  C   UNK A   2       2.157   6.089  18.892  0.00  0.00    +0.000 C 
ATOM      9  C   UNK A   2       3.007   4.825  19.026  0.00  0.00    +0.000 C 
ENDROOT
BRANCH   1  11
ATOM     10  CB  ALA A   1       7.693   4.688  17.715  0.00  0.00    +0.000 C 
ATOM     11  CA  ALA A   1       6.809   5.374  18.745  0.00  0.00    +0.000 C 
BRANCH  11  12
ATOM     12  N   ALA A   1       7.525   5.434  20.039  0.00  0.00    +0.000 NA
ATOM     13  H1  ALA A   1       7.285   4.598  20.576  0.00  0.00    +0.000 HD
ATOM     14  H2  ALA A   1       7.155   6.210  20.587  0.00  0.00    +0.000 HD
ENDBRANCH  11  12
ENDBRANCH   1  11
BRANCH   9  15
ATOM     15  C   UNK A   2       2.294   3.675  18.331  0.00  0.00    +0.000 C 
ATOM     16  O   UNK A   2       1.385   3.853  17.526  0.00  0.00    +0.000 OA
BRANCH  15  17
ATOM     17  O   UNK A   2       2.725   2.436  18.641  0.00  0.00    +0.000 OA
ATOM     18  H   UNK A   2       2.005   1.817  18.874  0.00  0.00    +0.000 HD
ENDBRANCH  15  17
ENDBRANCH   9  15
TORSDOF 4
ENDMDL
MODEL 3
REMARK VINA RESULT:      -6.0      2.106      2.357
REMARK  Name = 
REMARK  6 active torsions:
REMARK  status: ('A' for Active; 'I' for Inactive)
REMARK    1  A    between atoms: CB_1  and  CA_2
REMARK    2  A    between atoms: CA_2  and  N_3
REMARK    3  A    between atoms: CA_2  and  C_4
REMARK    4  A    between atoms: N_9  and  C_10
REMARK    5  A    between atoms: C_12  and  C_13
REMARK    6  A    between atoms: C_13  and  O_15
REMARK                            x       y       z     vdW  Elec       q    Type
REMARK                         _______ _______ _______ _____ _____    ______ ____
ROOT
ATOM      1  C   ALA A   1       5.609   4.334  18.944  0.00  0.00    +0.000 C 
ATOM      2  O   ALA A   1       6.306   4.693  19.897  0.00  0.00    +0.000 OA
ATOM      3  N   UNK A   2       5.901   4.775  17.663  0.00  0.00    +0.000 N 
ATOM      4  C   UNK A   2       5.225   4.411  16.491  0.00  0.00    +0.000 C 
ATOM      5  O   UNK A   2       4.060   4.077  16.397  0.00  0.00    +0.000 OA
ATOM      6  N   UNK A   2       6.108   4.528  15.426  0.00  0.00    +0.000 N 
ATOM      7  C   UNK A   2       5.873   3.875  14.158  0.00  0.00    +0.000 C 
ATOM      8  C   UNK A   2       7.430   4.915  15.865  0.00  0.00    +0.000 C 
ATOM      9  C   UNK A   2       7.242   5.267  17.340  0.00  0.00    +0.000 C 
ENDROOT
BRANCH   1  11
ATOM     10  CB  ALA A   1       3.286   3.986  19.913  0.00  0.00    +0.000 C 
ATOM     11  CA  ALA A   1       4.425   3.347  19.133  0.00  0.00    +0.000 C 
BRANCH  11  12
ATOM     12  N   ALA A   1       4.902   2.150  19.861  0.00  0.00    +0.000 NA
ATOM     13  H1  ALA A   1       5.904   2.047  19.687  0.00  0.00    +0.000 HD
ATOM     14  H2  ALA A   1       4.479   1.320  19.446  0.00  0.00    +0.000 HD
ENDBRANCH  11  12
ENDBRANCH   1  11
BRANCH   9  15
ATOM     15  C   UNK A   2       7.455   6.762  17.522  0.00  0.00    +0.000 C 
ATOM     16  O   UNK A   2       7.025   7.592  16.726  0.00  0.00    +0.000 OA
BRANCH  15  17
ATOM     17  O   UNK A   2       8.140   7.134  18.622  0.00  0.00    +0.000 OA
ATOM     18  H   UNK A   2       9.095   7.274  18.461  0.00  0.00    +0.000 HD
ENDBRANCH  15  17
ENDBRANCH   9  15
TORSDOF 4
ENDMDL
MODEL 4
REMARK VINA RESULT:      -6.0      2.683      4.074
REMARK  Name = 
REMARK  6 active torsions:
REMARK  status: ('A' for Active; 'I' for Inactive)
REMARK    1  A    between atoms: CB_1  and  CA_2
REMARK    2  A    between atoms: CA_2  and  N_3
REMARK    3  A    between atoms: CA_2  and  C_4
REMARK    4  A    between atoms: N_9  and  C_10
REMARK    5  A    between atoms: C_12  and  C_13
REMARK    6  A    between atoms: C_13  and  O_15
REMARK                            x       y       z     vdW  Elec       q    Type
REMARK                         _______ _______ _______ _____ _____    ______ ____
ROOT
ATOM      1  C   ALA A   1       2.715   3.428  19.646  0.00  0.00    +0.000 C 
ATOM      2  O   ALA A   1       3.320   2.385  19.385  0.00  0.00    +0.000 OA
ATOM      3  N   UNK A   2       3.257   4.655  19.295  0.00  0.00    +0.000 N 
ATOM      4  C   UNK A   2       2.660   5.907  19.488  0.00  0.00    +0.000 C 
ATOM      5  O   UNK A   2       1.867   6.208  20.360  0.00  0.00    +0.000 OA
ATOM      6  N   UNK A   2       3.155   6.778  18.528  0.00  0.00    +0.000 N 
ATOM      7  C   UNK A   2       2.484   8.012  18.190  0.00  0.00    +0.000 C 
ATOM      8  C   UNK A   2       4.058   6.112  17.614  0.00  0.00    +0.000 C 
ATOM      9  C   UNK A   2       4.275   4.737  18.246  0.00  0.00    +0.000 C 
ENDROOT
BRANCH   1  11
ATOM     10  CB  ALA A   1       1.365   2.714  21.677  0.00  0.00    +0.000 C 
ATOM     11  CA  ALA A   1       1.318   3.406  20.323  0.00  0.00    +0.000 C 
BRANCH  11  12
ATOM     12  N   ALA A   1       0.363   2.692  19.445  0.00  0.00    +0.000 NA
ATOM     13  H1  ALA A   1      -0.568   2.761  19.862  0.00  0.00    +0.000 HD
ATOM     14  H2  ALA A   1       0.582   1.696  19.460  0.00  0.00    +0.000 HD
ENDBRANCH  11  12
ENDBRANCH   1  11
BRANCH   9  15
ATOM     15  C   UNK A   2       5.717   4.633  18.718  0.00  0.00    +0.000 C 
ATOM     16  O   UNK A   2       6.111   5.155  19.756  0.00  0.00    +0.000 OA
BRANCH  15  17
ATOM     17  O   UNK A   2       6.548   3.920  17.931  0.00  0.00    +0.000 OA
ATOM     18  H   UNK A   2       6.347   3.996  16.976  0.00  0.00    +0.000 HD
ENDBRANCH  15  17
ENDBRANCH   9  15
TORSDOF 4
ENDMDL
MODEL 5
REMARK VINA RESULT:      -5.9      3.268      4.898
REMARK  Name = 
REMARK  6 active torsions:
REMARK  status: ('A' for Active; 'I' for Inactive)
REMARK    1  A    between atoms: CB_1  and  CA_2
REMARK    2  A    between atoms: CA_2  and  N_3
REMARK    3  A    between atoms: CA_2  and  C_4
REMARK    4  A    between atoms: N_9  and  C_10
REMARK    5  A    between atoms: C_12  and  C_13
REMARK    6  A    between atoms: C_13  and  O_15
REMARK                            x       y       z     vdW  Elec       q    Type
REMARK                         _______ _______ _______ _____ _____    ______ ____
ROOT
ATOM      1  C   ALA A   1       4.944   4.154  18.102  0.00  0.00    +0.000 C 
ATOM      2  O   ALA A   1       6.012   4.302  18.704  0.00  0.00    +0.000 OA
ATOM      3  N   UNK A   2       3.995   3.263  18.578  0.00  0.00    +0.000 N 
ATOM      4  C   UNK A   2       2.729   3.031  18.024  0.00  0.00    +0.000 C 
ATOM      5  O   UNK A   2       2.413   3.158  16.856  0.00  0.00    +0.000 OA
ATOM      6  N   UNK A   2       1.886   2.591  19.034  0.00  0.00    +0.000 N 
ATOM      7  C   UNK A   2       0.447   2.632  18.907  0.00  0.00    +0.000 C 
ATOM      8  C   UNK A   2       2.551   2.576  20.319  0.00  0.00    +0.000 C 
ATOM      9  C   UNK A   2       4.017   2.841  19.980  0.00  0.00    +0.000 C 
ENDROOT
BRANCH   1  11
ATOM     10  CB  ALA A   1       5.454   4.558  15.646  0.00  0.00    +0.000 C 
ATOM     11  CA  ALA A   1       4.606   4.985  16.835  0.00  0.00    +0.000 C 
BRANCH  11  12
ATOM     12  N   ALA A   1       4.849   6.418  17.115  0.00  0.00    +0.000 NA
ATOM     13  H1  ALA A   1       4.173   6.968  16.579  0.00  0.00    +0.000 HD
ATOM     14  H2  ALA A   1       5.758   6.680  16.735  0.00  0.00    +0.000 HD
ENDBRANCH  11  12
ENDBRANCH   1  11
BRANCH   9  15
ATOM     15  C   UNK A   2       4.828   1.589  20.278  0.00  0.00    +0.000 C 
ATOM     16  O   UNK A   2       5.471   1.452  21.314  0.00  0.00    +0.000 OA
BRANCH  15  17
ATOM     17  O   UNK A   2       4.794   0.623  19.338  0.00  0.00    +0.000 OA
ATOM     18  H   UNK A   2       5.041  -0.261  19.675  0.00  0.00    +0.000 HD
ENDBRANCH  15  17
ENDBRANCH   9  15
TORSDOF 4
ENDMDL
MODEL 6
REMARK VINA RESULT:      -5.8      2.471      4.978
REMARK  Name = 
REMARK  6 active torsions:
REMARK  status: ('A' for Active; 'I' for Inactive)
REMARK    1  A    between atoms: CB_1  and  CA_2
REMARK    2  A    between atoms: CA_2  and  N_3
REMARK    3  A    between atoms: CA_2  and  C_4
REMARK    4  A    between atoms: N_9  and  C_10
REMARK    5  A    between atoms: C_12  and  C_13
REMARK    6  A    between atoms: C_13  and  O_15
REMARK                            x       y       z     vdW  Elec       q    Type
REMARK                         _______ _______ _______ _____ _____    ______ ____
ROOT
ATOM      1  C   ALA A   1       5.429   5.218  17.071  0.00  0.00    +0.000 C 
ATOM      2  O   ALA A   1       4.936   5.615  16.012  0.00  0.00    +0.000 OA
ATOM      3  N   UNK A   2       4.657   4.505  17.974  0.00  0.00    +0.000 N 
ATOM      4  C   UNK A   2       5.098   3.957  19.186  0.00  0.00    +0.000 C 
ATOM      5  O   UNK A   2       6.008   4.368  19.881  0.00  0.00    +0.000 OA
ATOM      6  N   UNK A   2       4.293   2.869  19.490  0.00  0.00    +0.000 N 
ATOM      7  C   UNK A   2       4.695   1.856  20.439  0.00  0.00    +0.000 C 
ATOM      8  C   UNK A   2       3.320   2.614  18.450  0.00  0.00    +0.000 C 
ATOM      9  C   UNK A   2       3.439   3.826  17.528  0.00  0.00    +0.000 C 
ENDROOT
BRANCH   1  11
ATOM     10  CB  ALA A   1       7.307   6.920  17.258  0.00  0.00    +0.000 C 
ATOM     11  CA  ALA A   1       6.927   5.453  17.406  0.00  0.00    +0.000 C 
BRANCH  11  12
ATOM     12  N   ALA A   1       7.763   4.640  16.494  0.00  0.00    +0.000 NA
ATOM     13  H1  ALA A   1       7.556   4.923  15.533  0.00  0.00    +0.000 HD
ATOM     14  H2  ALA A   1       7.462   3.668  16.549  0.00  0.00    +0.000 HD
ENDBRANCH  11  12
ENDBRANCH   1  11
BRANCH   9  15
ATOM     15  C   UNK A   2       2.159   4.643  17.619  0.00  0.00    +0.000 C 
ATOM     16  O   UNK A   2       1.056   4.173  17.359  0.00  0.00    +0.000 OA
BRANCH  15  17
ATOM     17  O   UNK A   2       2.301   5.925  18.014  0.00  0.00    +0.000 OA
ATOM     18  H   UNK A   2       3.233   6.201  18.126  0.00  0.00    +0.000 HD
ENDBRANCH  15  17
ENDBRANCH   9  15
TORSDOF 4
ENDMDL
MODEL 7
REMARK VINA RESULT:      -5.8      1.950      4.772
REMARK  Name = 
REMARK  6 active torsions:
REMARK  status: ('A' for Active; 'I' for Inactive)
REMARK    1  A    between atoms: CB_1  and  CA_2
REMARK    2  A    between atoms: CA_2  and  N_3
REMARK    3  A    between atoms: CA_2  and  C_4
REMARK    4  A    between atoms: N_9  and  C_10
REMARK    5  A    between atoms: C_12  and  C_13
REMARK    6  A    between atoms: C_13  and  O_15
REMARK                            x       y       z     vdW  Elec       q    Type
REMARK                         _______ _______ _______ _____ _____    ______ ____
ROOT
ATOM      1  C   ALA A   1       5.677   5.767  17.924  0.00  0.00    +0.000 C 
ATOM      2  O   ALA A   1       5.683   6.876  17.383  0.00  0.00    +0.000 OA
ATOM      3  N   UNK A   2       4.495   5.241  18.420  0.00  0.00    +0.000 N 
ATOM      4  C   UNK A   2       4.337   3.981  19.013  0.00  0.00    +0.000 C 
ATOM      5  O   UNK A   2       5.183   3.351  19.618  0.00  0.00    +0.000 OA
ATOM      6  N   UNK A   2       3.024   3.573  18.824  0.00  0.00    +0.000 N 
ATOM      7  C   UNK A   2       2.621   2.192  18.955  0.00  0.00    +0.000 C 
ATOM      8  C   UNK A   2       2.274   4.528  18.037  0.00  0.00    +0.000 C 
ATOM      9  C   UNK A   2       3.206   5.734  17.932  0.00  0.00    +0.000 C 
ENDROOT
BRANCH   1  11
ATOM     10  CB  ALA A   1       7.992   5.544  18.950  0.00  0.00    +0.000 C 
ATOM     11  CA  ALA A   1       6.967   4.907  18.022  0.00  0.00    +0.000 C 
BRANCH  11  12
ATOM     12  N   ALA A   1       7.557   4.760  16.673  0.00  0.00    +0.000 NA
ATOM     13  H1  ALA A   1       8.527   5.082  16.711  0.00  0.00    +0.000 HD
ATOM     14  H2  ALA A   1       7.093   5.408  16.037  0.00  0.00    +0.000 HD
ENDBRANCH  11  12
ENDBRANCH   1  11
BRANCH   9  15
ATOM     15  C   UNK A   2       2.606   6.892  18.714  0.00  0.00    +0.000 C 
ATOM     16  O   UNK A   2       2.188   7.909  18.169  0.00  0.00    +0.000 OA
BRANCH  15  17
ATOM     17  O   UNK A   2       2.548   6.738  20.052  0.00  0.00    +0.000 OA
ATOM     18  H   UNK A   2       2.704   7.565  20.550  0.00  0.00    +0.000 HD
ENDBRANCH  15  17
ENDBRANCH   9  15
TORSDOF 4
ENDMDL
MODEL 8
REMARK VINA RESULT:      -5.8      2.617      5.319
REMARK  Name = 
REMARK  6 active torsions:
REMARK  status: ('A' for Active; 'I' for Inactive)
REMARK    1  A    between atoms: CB_1  and  CA_2
REMARK    2  A    between atoms: CA_2  and  N_3
REMARK    3  A    between atoms: CA_2  and  C_4
REMARK    4  A    between atoms: N_9  and  C_10
REMARK    5  A    between atoms: C_12  and  C_13
REMARK    6  A    between atoms: C_13  and  O_15
REMARK                            x       y       z     vdW  Elec       q    Type
REMARK                         _______ _______ _______ _____ _____    ______ ____
ROOT
ATOM      1  C   ALA A   1       5.051   4.239  19.242  0.00  0.00    +0.000 C 
ATOM      2  O   ALA A   1       5.288   3.077  19.582  0.00  0.00    +0.000 OA
ATOM      3  N   UNK A   2       3.767   4.749  19.354  0.00  0.00    +0.000 N 
ATOM      4  C   UNK A   2       3.369   6.057  19.049  0.00  0.00    +0.000 C 
ATOM      5  O   UNK A   2       3.880   6.802  18.235  0.00  0.00    +0.000 OA
ATOM      6  N   UNK A   2       2.253   6.362  19.817  0.00  0.00    +0.000 N 
ATOM      7  C   UNK A   2       1.826   7.724  20.045  0.00  0.00    +0.000 C 
ATOM      8  C   UNK A   2       1.906   5.281  20.712  0.00  0.00    +0.000 C 
ATOM      9  C   UNK A   2       2.803   4.127  20.264  0.00  0.00    +0.000 C 
ENDROOT
BRANCH   1  11
ATOM     10  CB  ALA A   1       6.873   4.599  17.508  0.00  0.00    +0.000 C 
ATOM     11  CA  ALA A   1       6.176   5.179  18.730  0.00  0.00    +0.000 C 
BRANCH  11  12
ATOM     12  N   ALA A   1       7.170   5.379  19.808  0.00  0.00    +0.000 NA
ATOM     13  H1  ALA A   1       7.102   6.347  20.130  0.00  0.00    +0.000 HD
ATOM     14  H2  ALA A   1       8.107   5.301  19.413  0.00  0.00    +0.000 HD
ENDBRANCH  11  12
ENDBRANCH   1  11
BRANCH   9  15
ATOM     15  C   UNK A   2       1.936   3.034  19.659  0.00  0.00    +0.000 C 
ATOM     16  O   UNK A   2       0.713   3.116  19.605  0.00  0.00    +0.000 OA
BRANCH  15  17
ATOM     17  O   UNK A   2       2.590   1.961  19.170  0.00  0.00    +0.000 OA
ATOM     18  H   UNK A   2       3.535   2.129  18.981  0.00  0.00    +0.000 HD
ENDBRANCH  15  17
ENDBRANCH   9  15
TORSDOF 4
ENDMDL
MODEL 9
REMARK VINA RESULT:      -5.8      2.020      4.720
REMARK  Name = 
REMARK  6 active torsions:
REMARK  status: ('A' for Active; 'I' for Inactive)
REMARK    1  A    between atoms: CB_1  and  CA_2
REMARK    2  A    between atoms: CA_2  and  N_3
REMARK    3  A    between atoms: CA_2  and  C_4
REMARK    4  A    between atoms: N_9  and  C_10
REMARK    5  A    between atoms: C_12  and  C_13
REMARK    6  A    between atoms: C_13  and  O_15
REMARK                            x       y       z     vdW  Elec       q    Type
REMARK                         _______ _______ _______ _____ _____    ______ ____
ROOT
ATOM      1  C   ALA A   1       5.400   6.236  17.209  0.00  0.00    +0.000 C 
ATOM      2  O   ALA A   1       4.804   7.031  16.477  0.00  0.00    +0.000 OA
ATOM      3  N   UNK A   2       4.707   5.528  18.178  0.00  0.00    +0.000 N 
ATOM      4  C   UNK A   2       5.247   4.564  19.040  0.00  0.00    +0.000 C 
ATOM      5  O   UNK A   2       6.394   4.508  19.440  0.00  0.00    +0.000 OA
ATOM      6  N   UNK A   2       4.234   3.688  19.402  0.00  0.00    +0.000 N 
ATOM      7  C   UNK A   2       4.508   2.380  19.951  0.00  0.00    +0.000 C 
ATOM      8  C   UNK A   2       2.989   4.002  18.735  0.00  0.00    +0.000 C 
ATOM      9  C   UNK A   2       3.258   5.349  18.065  0.00  0.00    +0.000 C 
ENDROOT
BRANCH   1  11
ATOM     10  CB  ALA A   1       7.754   7.144  17.518  0.00  0.00    +0.000 C 
ATOM     11  CA  ALA A   1       6.920   5.963  17.041  0.00  0.00    +0.000 C 
BRANCH  11  12
ATOM     12  N   ALA A   1       7.213   5.706  15.613  0.00  0.00    +0.000 NA
ATOM     13  H1  ALA A   1       6.518   6.201  15.050  0.00  0.00    +0.000 HD
ATOM     14  H2  ALA A   1       7.052   4.719  15.415  0.00  0.00    +0.000 HD
ENDBRANCH  11  12
ENDBRANCH   1  11
BRANCH   9  15
ATOM     15  C   UNK A   2       2.410   6.416  18.741  0.00  0.00    +0.000 C 
ATOM     16  O   UNK A   2       1.976   6.288  19.882  0.00  0.00    +0.000 OA
BRANCH  15  17
ATOM     17  O   UNK A   2       2.164   7.525  18.016  0.00  0.00    +0.000 OA
ATOM     18  H   UNK A   2       1.579   8.167  18.467  0.00  0.00    +0.000 HD
ENDBRANCH  15  17
ENDBRANCH   9  15
TORSDOF 4
ENDMDL
