MODEL 1
REMARK VINA RESULT:      -6.0      0.000      0.000
REMARK  Name = 
REMARK  10 active torsions:
REMARK  status: ('A' for Active; 'I' for Inactive)
REMARK    1  A    between atoms: C_1  and  C_2
REMARK    2  A    between atoms: C_2  and  N_3
REMARK    3  A    between atoms: N_3  and  C_4
REMARK    4  A    between atoms: C_4  and  C_5
REMARK    5  A    between atoms: C_6  and  C_8
REMARK    6  A    between atoms: C_8  and  C_9
REMARK    7  A    between atoms: C_8  and  N_10
REMARK    8  A    between atoms: N_10  and  C_11
REMARK    9  A    between atoms: N_19  and  C_20
REMARK   10  A    between atoms: N_19  and  C_21
REMARK                            x       y       z     vdW  Elec       q    Type
REMARK                         _______ _______ _______ _____ _____    ______ ____
ROOT
ATOM      1  N   UNL     1       3.959   3.575  18.645  0.00  0.00    +0.000 N 
ATOM      2  C   UNL     1       5.101   4.055  18.024  0.00  0.00    +0.000 A 
ATOM      3  N   UNL     1       6.080   4.528  18.776  0.00  0.00    +0.000 NA
ATOM      4  C   UNL     1       7.124   4.965  18.098  0.00  0.00    +0.000 A 
ATOM      5 CL   UNL     1       8.412   5.590  19.029  0.00  0.00    +0.000 Cl
ATOM      6  N   UNL     1       7.296   4.978  16.788  0.00  0.00    +0.000 NA
ATOM      7  C   UNL     1       6.286   4.481  16.097  0.00  0.00    +0.000 A 
ATOM      8  N   UNL     1       6.391   4.423  14.727  0.00  0.00    +0.000 N 
ATOM      9  C   UNL     1       5.299   3.937  13.903  0.00  0.00    +0.000 C 
ATOM     10  C   UNL     1       7.546   4.982  14.047  0.00  0.00    +0.000 C 
ATOM     11  N   UNL     1       5.186   4.017  16.693  0.00  0.00    +0.000 NA
ENDROOT
BRANCH   1  12
ATOM     12  C   UNL     1       3.751   3.653  20.098  0.00  0.00    +0.000 C 
ATOM     13  C   UNL     1       3.771   2.251  20.725  0.00  0.00    +0.000 C 
BRANCH  12  15
ATOM     14  N   UNL     1       2.371   5.805  20.238  0.00  0.00    +0.000 N 
ATOM     15  C   UNL     1       2.466   4.429  20.510  0.00  0.00    +0.000 C 
ATOM     16  O   UNL     1       1.568   3.853  21.135  0.00  0.00    +0.000 OA
BRANCH  14  18
ATOM     17  C   UNL     1       1.168   7.826  21.077  0.00  0.00    +0.000 C 
ATOM     18  C   UNL     1       1.062   6.428  20.484  0.00  0.00    +0.000 C 
ENDBRANCH  14  18
BRANCH  14  19
ATOM     19  C   UNL     1       3.373   6.535  19.454  0.00  0.00    +0.000 C 
ATOM     20  C   UNL     1       2.966   7.035  18.079  0.00  0.00    +0.000 C 
ENDBRANCH  14  19
ENDBRANCH  12  15
ENDBRANCH   1  12
BRANCH   1  21
ATOM     21  C   UNL     1       2.875   3.079  17.829  0.00  0.00    +0.000 C 
ATOM     22  N   UNL     1       2.056   2.610  17.158  0.00  0.00    +0.000 NA
ENDBRANCH   1  21
TORSDOF 5
ENDMDL
MODEL 2
REMARK VINA RESULT:      -5.9      3.058      6.770
REMARK  Name = 
REMARK  10 active torsions:
REMARK  status: ('A' for Active; 'I' for Inactive)
REMARK    1  A    between atoms: C_1  and  C_2
REMARK    2  A    between atoms: C_2  and  N_3
REMARK    3  A    between atoms: N_3  and  C_4
REMARK    4  A    between atoms: C_4  and  C_5
REMARK    5  A    between atoms: C_6  and  C_8
REMARK    6  A    between atoms: C_8  and  C_9
REMARK    7  A    between atoms: C_8  and  N_10
REMARK    8  A    between atoms: N_10  and  C_11
REMARK    9  A    between atoms: N_19  and  C_20
REMARK   10  A    between atoms: N_19  and  C_21
REMARK                            x       y       z     vdW  Elec       q    Type
REMARK                         _______ _______ _______ _____ _____    ______ ____
ROOT
ATOM      1  N   UNL     1       2.405   6.272  19.329  0.00  0.00    +0.000 N 
ATOM      2  C   UNL     1       2.000   7.592  19.441  0.00  0.00    +0.000 A 
ATOM      3  N   UNL     1       2.313   8.436  18.474  0.00  0.00    +0.000 NA
ATOM      4  C   UNL     1       1.888   9.670  18.668  0.00  0.00    +0.000 A 
ATOM      5 CL   UNL     1       2.275  10.796  17.444  0.00  0.00    +0.000 Cl
ATOM      6  N   UNL     1       1.201  10.140  19.693  0.00  0.00    +0.000 NA
ATOM      7  C   UNL     1       0.911   9.244  20.618  0.00  0.00    +0.000 A 
ATOM      8  N   UNL     1       0.168   9.638  21.706  0.00  0.00    +0.000 N 
ATOM      9  C   UNL     1      -0.143   8.717  22.785  0.00  0.00    +0.000 C 
ATOM     10  C   UNL     1      -0.211  11.028  21.883  0.00  0.00    +0.000 C 
ATOM     11  N   UNL     1       1.299   7.972  20.511  0.00  0.00    +0.000 NA
ENDROOT
BRANCH   1  12
ATOM     12  C   UNL     1       3.247   5.789  18.225  0.00  0.00    +0.000 C 
ATOM     13  C   UNL     1       2.770   4.412  17.742  0.00  0.00    +0.000 C 
BRANCH  12  15
ATOM     14  N   UNL     1       5.702   5.991  17.528  0.00  0.00    +0.000 N 
ATOM     15  C   UNL     1       4.768   5.768  18.555  0.00  0.00    +0.000 C 
ATOM     16  O   UNL     1       5.150   5.486  19.697  0.00  0.00    +0.000 OA
BRANCH  14  18
ATOM     17  C   UNL     1       7.673   7.520  17.642  0.00  0.00    +0.000 C 
ATOM     18  C   UNL     1       7.104   6.141  17.946  0.00  0.00    +0.000 C 
ENDBRANCH  14  18
BRANCH  14  19
ATOM     19  C   UNL     1       5.316   6.384  16.170  0.00  0.00    +0.000 C 
ATOM     20  C   UNL     1       5.603   5.406  15.043  0.00  0.00    +0.000 C 
ENDBRANCH  14  19
ENDBRANCH  12  15
ENDBRANCH   1  12
BRANCH   1  21
ATOM     21  C   UNL     1       2.087   5.349  20.395  0.00  0.00    +0.000 C 
ATOM     22  N   UNL     1       1.918   4.589  21.251  0.00  0.00    +0.000 NA
ENDBRANCH   1  21
TORSDOF 5
ENDMDL
MODEL 3
REMARK VINA RESULT:      -5.7      2.211      2.868
REMARK  Name = 
REMARK  10 active torsions:
REMARK  status: ('A' for Active; 'I' for Inactive)
REMARK    1  A    between atoms: C_1  and  C_2
REMARK    2  A    between atoms: C_2  and  N_3
REMARK    3  A    between atoms: N_3  and  C_4
REMARK    4  A    between atoms: C_4  and  C_5
REMARK    5  A    between atoms: C_6  and  C_8
REMARK    6  A    between atoms: C_8  and  C_9
REMARK    7  A    between atoms: C_8  and  N_10
REMARK    8  A    between atoms: N_10  and  C_11
REMARK    9  A    between atoms: N_19  and  C_20
REMARK   10  A    between atoms: N_19  and  C_21
REMARK                            x       y       z     vdW  Elec       q    Type
REMARK                         _______ _______ _______ _____ _____    ______ ____
ROOT
ATOM      1  N   UNL     1       3.349   5.733  18.098  0.00  0.00    +0.000 N 
ATOM      2  C   UNL     1       4.536   5.955  17.418  0.00  0.00    +0.000 A 
ATOM      3  N   UNL     1       5.363   6.881  17.870  0.00  0.00    +0.000 NA
ATOM      4  C   UNL     1       6.464   7.023  17.159  0.00  0.00    +0.000 A 
ATOM      5 CL   UNL     1       7.560   8.214  17.704  0.00  0.00    +0.000 Cl
ATOM      6  N   UNL     1       6.824   6.357  16.076  0.00  0.00    +0.000 NA
ATOM      7  C   UNL     1       5.959   5.439  15.684  0.00  0.00    +0.000 A 
ATOM      8  N   UNL     1       6.266   4.673  14.583  0.00  0.00    +0.000 N 
ATOM      9  C   UNL     1       5.340   3.681  14.068  0.00  0.00    +0.000 C 
ATOM     10  C   UNL     1       7.470   4.929  13.812  0.00  0.00    +0.000 C 
ATOM     11  N   UNL     1       4.817   5.223  16.338  0.00  0.00    +0.000 NA
ENDROOT
BRANCH   1  12
ATOM     12  C   UNL     1       2.927   6.547  19.247  0.00  0.00    +0.000 C 
ATOM     13  C   UNL     1       2.055   5.721  20.205  0.00  0.00    +0.000 C 
BRANCH  12  15
ATOM     14  N   UNL     1       1.436   8.551  19.805  0.00  0.00    +0.000 N 
ATOM     15  C   UNL     1       2.218   7.874  18.852  0.00  0.00    +0.000 C 
ATOM     16  O   UNL     1       2.285   8.292  17.690  0.00  0.00    +0.000 OA
BRANCH  14  18
ATOM     17  C   UNL     1      -0.563   9.959  19.298  0.00  0.00    +0.000 C 
ATOM     18  C   UNL     1       0.953   9.885  19.420  0.00  0.00    +0.000 C 
ENDBRANCH  14  18
BRANCH  14  19
ATOM     19  C   UNL     1       1.359   8.141  21.210  0.00  0.00    +0.000 C 
ATOM     20  C   UNL     1       1.363   9.233  22.266  0.00  0.00    +0.000 C 
ENDBRANCH  14  19
ENDBRANCH  12  15
ENDBRANCH   1  12
BRANCH   1  21
ATOM     21  C   UNL     1       2.430   4.738  17.595  0.00  0.00    +0.000 C 
ATOM     22  N   UNL     1       1.691   3.907  17.274  0.00  0.00    +0.000 NA
ENDBRANCH   1  21
TORSDOF 5
ENDMDL
MODEL 4
REMARK VINA RESULT:      -5.5      2.271      5.793
REMARK  Name = 
REMARK  10 active torsions:
REMARK  status: ('A' for Active; 'I' for Inactive)
REMARK    1  A    between atoms: C_1  and  C_2
REMARK    2  A    between atoms: C_2  and  N_3
REMARK    3  A    between atoms: N_3  and  C_4
REMARK    4  A    between atoms: C_4  and  C_5
REMARK    5  A    between atoms: C_6  and  C_8
REMARK    6  A    between atoms: C_8  and  C_9
REMARK    7  A    between atoms: C_8  and  N_10
REMARK    8  A    between atoms: N_10  and  C_11
REMARK    9  A    between atoms: N_19  and  C_20
REMARK   10  A    between atoms: N_19  and  C_21
REMARK                            x       y       z     vdW  Elec       q    Type
REMARK                         _______ _______ _______ _____ _____    ______ ____
ROOT
ATOM      1  N   UNL     1       3.136   4.474  19.803  0.00  0.00    +0.000 N 
ATOM      2  C   UNL     1       2.844   5.777  19.432  0.00  0.00    +0.000 A 
ATOM      3  N   UNL     1       3.345   6.242  18.301  0.00  0.00    +0.000 NA
ATOM      4  C   UNL     1       3.016   7.491  18.032  0.00  0.00    +0.000 A 
ATOM      5 CL   UNL     1       3.646   8.135  16.581  0.00  0.00    +0.000 Cl
ATOM      6  N   UNL     1       2.259   8.304  18.747  0.00  0.00    +0.000 NA
ATOM      7  C   UNL     1       1.782   7.774  19.858  0.00  0.00    +0.000 A 
ATOM      8  N   UNL     1       0.956   8.538  20.650  0.00  0.00    +0.000 N 
ATOM      9  C   UNL     1       0.437   8.037  21.910  0.00  0.00    +0.000 C 
ATOM     10  C   UNL     1       0.688   9.927  20.321  0.00  0.00    +0.000 C 
ATOM     11  N   UNL     1       2.061   6.520  20.216  0.00  0.00    +0.000 NA
ENDROOT
BRANCH   1  12
ATOM     12  C   UNL     1       4.054   3.617  19.039  0.00  0.00    +0.000 C 
ATOM     13  C   UNL     1       4.111   2.208  19.646  0.00  0.00    +0.000 C 
BRANCH  12  15
ATOM     14  N   UNL     1       6.045   4.318  17.590  0.00  0.00    +0.000 N 
ATOM     15  C   UNL     1       5.483   4.211  18.875  0.00  0.00    +0.000 C 
ATOM     16  O   UNL     1       6.143   4.521  19.873  0.00  0.00    +0.000 OA
BRANCH  14  18
ATOM     17  C   UNL     1       7.119   6.556  17.317  0.00  0.00    +0.000 C 
ATOM     18  C   UNL     1       7.313   5.056  17.495  0.00  0.00    +0.000 C 
ENDBRANCH  14  18
BRANCH  14  19
ATOM     19  C   UNL     1       5.297   4.021  16.365  0.00  0.00    +0.000 C 
ATOM     20  C   UNL     1       6.086   3.869  15.076  0.00  0.00    +0.000 C 
ENDBRANCH  14  19
ENDBRANCH  12  15
ENDBRANCH   1  12
BRANCH   1  21
ATOM     21  C   UNL     1       2.612   3.967  21.050  0.00  0.00    +0.000 C 
ATOM     22  N   UNL     1       2.126   3.619  22.041  0.00  0.00    +0.000 NA
ENDBRANCH   1  21
TORSDOF 5
ENDMDL
MODEL 5
REMARK VINA RESULT:      -5.2      2.683      6.133
REMARK  Name = 
REMARK  10 active torsions:
REMARK  status: ('A' for Active; 'I' for Inactive)
REMARK    1  A    between atoms: C_1  and  C_2
REMARK    2  A    between atoms: C_2  and  N_3
REMARK    3  A    between atoms: N_3  and  C_4
REMARK    4  A    between atoms: C_4  and  C_5
REMARK    5  A    between atoms: C_6  and  C_8
REMARK    6  A    between atoms: C_8  and  C_9
REMARK    7  A    between atoms: C_8  and  N_10
REMARK    8  A    between atoms: N_10  and  C_11
REMARK    9  A    between atoms: N_19  and  C_20
REMARK   10  A    between atoms: N_19  and  C_21
REMARK                            x       y       z     vdW  Elec       q    Type
REMARK                         _______ _______ _______ _____ _____    ______ ____
ROOT
ATOM      1  N   UNL     1       5.434   5.240  18.508  0.00  0.00    +0.000 N 
ATOM      2  C   UNL     1       4.772   4.283  19.261  0.00  0.00    +0.000 A 
ATOM      3  N   UNL     1       5.426   3.190  19.614  0.00  0.00    +0.000 NA
ATOM      4  C   UNL     1       4.716   2.337  20.326  0.00  0.00    +0.000 A 
ATOM      5 CL   UNL     1       5.520   0.907  20.800  0.00  0.00    +0.000 Cl
ATOM      6  N   UNL     1       3.459   2.453  20.717  0.00  0.00    +0.000 NA
ATOM      7  C   UNL     1       2.868   3.572  20.341  0.00  0.00    +0.000 A 
ATOM      8  N   UNL     1       1.568   3.794  20.732  0.00  0.00    +0.000 N 
ATOM      9  C   UNL     1       0.842   4.978  20.312  0.00  0.00    +0.000 C 
ATOM     10  C   UNL     1       0.829   2.779  21.463  0.00  0.00    +0.000 C 
ATOM     11  N   UNL     1       3.504   4.495  19.617  0.00  0.00    +0.000 NA
ENDROOT
BRANCH   1  12
ATOM     12  C   UNL     1       6.803   5.051  18.007  0.00  0.00    +0.000 C 
ATOM     13  C   UNL     1       7.806   5.845  18.857  0.00  0.00    +0.000 C 
BRANCH  12  15
ATOM     14  N   UNL     1       6.493   4.471  15.533  0.00  0.00    +0.000 N 
ATOM     15  C   UNL     1       6.972   5.378  16.495  0.00  0.00    +0.000 C 
ATOM     16  O   UNL     1       7.585   6.393  16.146  0.00  0.00    +0.000 OA
BRANCH  14  18
ATOM     17  C   UNL     1       6.353   3.799  13.132  0.00  0.00    +0.000 C 
ATOM     18  C   UNL     1       6.519   4.931  14.137  0.00  0.00    +0.000 C 
ENDBRANCH  14  18
BRANCH  14  19
ATOM     19  C   UNL     1       5.712   3.280  15.878  0.00  0.00    +0.000 C 
ATOM     20  C   UNL     1       4.209   3.441  16.030  0.00  0.00    +0.000 C 
ENDBRANCH  14  19
ENDBRANCH  12  15
ENDBRANCH   1  12
BRANCH   1  21
ATOM     21  C   UNL     1       4.718   6.426  18.098  0.00  0.00    +0.000 C 
ATOM     22  N   UNL     1       4.076   7.325  17.752  0.00  0.00    +0.000 NA
ENDBRANCH   1  21
TORSDOF 5
ENDMDL
MODEL 6
REMARK VINA RESULT:      -5.2      8.241     10.172
REMARK  Name = 
REMARK  10 active torsions:
REMARK  status: ('A' for Active; 'I' for Inactive)
REMARK    1  A    between atoms: C_1  and  C_2
REMARK    2  A    between atoms: C_2  and  N_3
REMARK    3  A    between atoms: N_3  and  C_4
REMARK    4  A    between atoms: C_4  and  C_5
REMARK    5  A    between atoms: C_6  and  C_8
REMARK    6  A    between atoms: C_8  and  C_9
REMARK    7  A    between atoms: C_8  and  N_10
REMARK    8  A    between atoms: N_10  and  C_11
REMARK    9  A    between atoms: N_19  and  C_20
REMARK   10  A    between atoms: N_19  and  C_21
REMARK                            x       y       z     vdW  Elec       q    Type
REMARK                         _______ _______ _______ _____ _____    ______ ____
ROOT
ATOM      1  N   UNL     1      -1.768  12.023  20.756  0.00  0.00    +0.000 N 
ATOM      2  C   UNL     1      -1.612  11.383  19.537  0.00  0.00    +0.000 A 
ATOM      3  N   UNL     1      -0.497  10.709  19.313  0.00  0.00    +0.000 NA
ATOM      4  C   UNL     1      -0.436  10.135  18.127  0.00  0.00    +0.000 A 
ATOM      5 CL   UNL     1       0.990   9.258  17.792  0.00  0.00    +0.000 Cl
ATOM      6  N   UNL     1      -1.344  10.156  17.167  0.00  0.00    +0.000 NA
ATOM      7  C   UNL     1      -2.437  10.837  17.459  0.00  0.00    +0.000 A 
ATOM      8  N   UNL     1      -3.450  10.885  16.530  0.00  0.00    +0.000 N 
ATOM      9  C   UNL     1      -4.658  11.656  16.765  0.00  0.00    +0.000 C 
ATOM     10  C   UNL     1      -3.286  10.281  15.219  0.00  0.00    +0.000 C 
ATOM     11  N   UNL     1      -2.590  11.453  18.632  0.00  0.00    +0.000 NA
ENDROOT
BRANCH   1  12
ATOM     12  C   UNL     1      -0.710  12.063  21.775  0.00  0.00    +0.000 C 
ATOM     13  C   UNL     1      -1.155  11.327  23.048  0.00  0.00    +0.000 C 
BRANCH  12  15
ATOM     14  N   UNL     1       0.950  13.990  21.480  0.00  0.00    +0.000 N 
ATOM     15  C   UNL     1      -0.208  13.498  22.108  0.00  0.00    +0.000 C 
ATOM     16  O   UNL     1      -0.785  14.171  22.970  0.00  0.00    +0.000 OA
BRANCH  14  18
ATOM     17  C   UNL     1       2.639  15.640  22.293  0.00  0.00    +0.000 C 
ATOM     18  C   UNL     1       1.255  15.411  21.700  0.00  0.00    +0.000 C 
ENDBRANCH  14  18
BRANCH  14  19
ATOM     19  C   UNL     1       1.646  13.267  20.412  0.00  0.00    +0.000 C 
ATOM     20  C   UNL     1       1.555  13.827  19.003  0.00  0.00    +0.000 C 
ENDBRANCH  14  19
ENDBRANCH  12  15
ENDBRANCH   1  12
BRANCH   1  21
ATOM     21  C   UNL     1      -2.974  12.782  20.999  0.00  0.00    +0.000 C 
ATOM     22  N   UNL     1      -3.902  13.456  21.150  0.00  0.00    +0.000 NA
ENDBRANCH   1  21
TORSDOF 5
ENDMDL
MODEL 7
REMARK VINA RESULT:      -5.1      2.700      5.588
REMARK  Name = 
REMARK  10 active torsions:
REMARK  status: ('A' for Active; 'I' for Inactive)
REMARK    1  A    between atoms: C_1  and  C_2
REMARK    2  A    between atoms: C_2  and  N_3
REMARK    3  A    between atoms: N_3  and  C_4
REMARK    4  A    between atoms: C_4  and  C_5
REMARK    5  A    between atoms: C_6  and  C_8
REMARK    6  A    between atoms: C_8  and  C_9
REMARK    7  A    between atoms: C_8  and  N_10
REMARK    8  A    between atoms: N_10  and  C_11
REMARK    9  A    between atoms: N_19  and  C_20
REMARK   10  A    between atoms: N_19  and  C_21
REMARK                            x       y       z     vdW  Elec       q    Type
REMARK                         _______ _______ _______ _____ _____    ______ ____
ROOT
ATOM      1  N   UNL     1       4.308   5.690  17.277  0.00  0.00    +0.000 N 
ATOM      2  C   UNL     1       3.416   6.252  18.176  0.00  0.00    +0.000 A 
ATOM      3  N   UNL     1       2.942   5.499  19.154  0.00  0.00    +0.000 NA
ATOM      4  C   UNL     1       2.100   6.118  19.959  0.00  0.00    +0.000 A 
ATOM      5 CL   UNL     1       1.459   5.181  21.234  0.00  0.00    +0.000 Cl
ATOM      6  N   UNL     1       1.692   7.373  19.898  0.00  0.00    +0.000 NA
ATOM      7  C   UNL     1       2.211   8.072  18.906  0.00  0.00    +0.000 A 
ATOM      8  N   UNL     1       1.868   9.399  18.786  0.00  0.00    +0.000 N 
ATOM      9  C   UNL     1       2.361  10.213  17.690  0.00  0.00    +0.000 C 
ATOM     10  C   UNL     1       0.884   9.995  19.672  0.00  0.00    +0.000 C 
ATOM     11  N   UNL     1       3.070   7.533  18.039  0.00  0.00    +0.000 NA
ENDROOT
BRANCH   1  12
ATOM     12  C   UNL     1       4.679   4.268  17.308  0.00  0.00    +0.000 C 
ATOM     13  C   UNL     1       5.612   3.926  16.137  0.00  0.00    +0.000 C 
BRANCH  12  15
ATOM     14  N   UNL     1       3.374   2.342  18.377  0.00  0.00    +0.000 N 
ATOM     15  C   UNL     1       3.461   3.300  17.351  0.00  0.00    +0.000 C 
ATOM     16  O   UNL     1       2.616   3.327  16.449  0.00  0.00    +0.000 OA
BRANCH  14  18
ATOM     17  C   UNL     1       0.932   2.455  18.885  0.00  0.00    +0.000 C 
ATOM     18  C   UNL     1       2.112   1.592  18.461  0.00  0.00    +0.000 C 
ENDBRANCH  14  18
BRANCH  14  19
ATOM     19  C   UNL     1       4.310   2.293  19.504  0.00  0.00    +0.000 C 
ATOM     20  C   UNL     1       3.742   2.464  20.902  0.00  0.00    +0.000 C 
ENDBRANCH  14  19
ENDBRANCH  12  15
ENDBRANCH   1  12
BRANCH   1  21
ATOM     21  C   UNL     1       4.811   6.500  16.191  0.00  0.00    +0.000 C 
ATOM     22  N   UNL     1       5.168   7.097  15.267  0.00  0.00    +0.000 NA
ENDBRANCH   1  21
TORSDOF 5
ENDMDL
MODEL 8
REMARK VINA RESULT:      -5.1      7.996     11.155
REMARK  Name = 
REMARK  10 active torsions:
REMARK  status: ('A' for Active; 'I' for Inactive)
REMARK    1  A    between atoms: C_1  and  C_2
REMARK    2  A    between atoms: C_2  and  N_3
REMARK    3  A    between atoms: N_3  and  C_4
REMARK    4  A    between atoms: C_4  and  C_5
REMARK    5  A    between atoms: C_6  and  C_8
REMARK    6  A    between atoms: C_8  and  C_9
REMARK    7  A    between atoms: C_8  and  N_10
REMARK    8  A    between atoms: N_10  and  C_11
REMARK    9  A    between atoms: N_19  and  C_20
REMARK   10  A    between atoms: N_19  and  C_21
REMARK                            x       y       z     vdW  Elec       q    Type
REMARK                         _______ _______ _______ _____ _____    ______ ____
ROOT
ATOM      1  N   UNL     1      -2.949  12.725  20.917  0.00  0.00    +0.000 N 
ATOM      2  C   UNL     1      -2.245  11.986  19.979  0.00  0.00    +0.000 A 
ATOM      3  N   UNL     1      -2.681  11.967  18.731  0.00  0.00    +0.000 NA
ATOM      4  C   UNL     1      -1.950  11.237  17.910  0.00  0.00    +0.000 A 
ATOM      5 CL   UNL     1      -2.479  11.179  16.288  0.00  0.00    +0.000 Cl
ATOM      6  N   UNL     1      -0.859  10.546  18.190  0.00  0.00    +0.000 NA
ATOM      7  C   UNL     1      -0.472  10.617  19.451  0.00  0.00    +0.000 A 
ATOM      8  N   UNL     1       0.674   9.955  19.826  0.00  0.00    +0.000 N 
ATOM      9  C   UNL     1       1.129   9.949  21.204  0.00  0.00    +0.000 C 
ATOM     10  C   UNL     1       1.392   9.119  18.880  0.00  0.00    +0.000 C 
ATOM     11  N   UNL     1      -1.147  11.328  20.355  0.00  0.00    +0.000 NA
ENDROOT
BRANCH   1  12
ATOM     12  C   UNL     1      -4.210  13.412  20.605  0.00  0.00    +0.000 C 
ATOM     13  C   UNL     1      -4.320  14.726  21.393  0.00  0.00    +0.000 C 
BRANCH  12  15
ATOM     14  N   UNL     1      -6.378  12.356  19.747  0.00  0.00    +0.000 N 
ATOM     15  C   UNL     1      -5.476  12.531  20.811  0.00  0.00    +0.000 C 
ATOM     16  O   UNL     1      -5.721  12.049  21.923  0.00  0.00    +0.000 OA
BRANCH  14  18
ATOM     17  C   UNL     1      -7.024   9.949  19.594  0.00  0.00    +0.000 C 
ATOM     18  C   UNL     1      -7.445  11.367  19.955  0.00  0.00    +0.000 C 
ENDBRANCH  14  18
BRANCH  14  19
ATOM     19  C   UNL     1      -6.120  12.854  18.392  0.00  0.00    +0.000 C 
ATOM     20  C   UNL     1      -7.273  12.840  17.403  0.00  0.00    +0.000 C 
ENDBRANCH  14  19
ENDBRANCH  12  15
ENDBRANCH   1  12
BRANCH   1  21
ATOM     21  C   UNL     1      -2.492  12.731  22.288  0.00  0.00    +0.000 C 
ATOM     22  N   UNL     1      -2.146  12.822  23.389  0.00  0.00    +0.000 NA
ENDBRANCH   1  21
TORSDOF 5
ENDMDL
MODEL 9
REMARK VINA RESULT:      -5.1      1.171      1.384
REMARK  Name = 
REMARK  10 active torsions:
REMARK  status: ('A' for Active; 'I' for Inactive)
REMARK    1  A    between atoms: C_1  and  C_2
REMARK    2  A    between atoms: C_2  and  N_3
REMARK    3  A    between atoms: N_3  and  C_4
REMARK    4  A    between atoms: C_4  and  C_5
REMARK    5  A    between atoms: C_6  and  C_8
REMARK    6  A    between atoms: C_8  and  C_9
REMARK    7  A    between atoms: C_8  and  N_10
REMARK    8  A    between atoms: N_10  and  C_11
REMARK    9  A    between atoms: N_19  and  C_20
REMARK   10  A    between atoms: N_19  and  C_21
REMARK                            x       y       z     vdW  Elec       q    Type
REMARK                         _______ _______ _______ _____ _____    ______ ____
ROOT
ATOM      1  N   UNL     1       4.615   3.115  18.596  0.00  0.00    +0.000 N 
ATOM      2  C   UNL     1       5.565   3.895  17.956  0.00  0.00    +0.000 A 
ATOM      3  N   UNL     1       6.389   4.621  18.691  0.00  0.00    +0.000 NA
ATOM      4  C   UNL     1       7.256   5.331  17.996  0.00  0.00    +0.000 A 
ATOM      5 CL   UNL     1       8.338   6.289  18.906  0.00  0.00    +0.000 Cl
ATOM      6  N   UNL     1       7.390   5.393  16.683  0.00  0.00    +0.000 NA
ATOM      7  C   UNL     1       6.544   4.636  16.009  0.00  0.00    +0.000 A 
ATOM      8  N   UNL     1       6.632   4.612  14.636  0.00  0.00    +0.000 N 
ATOM      9  C   UNL     1       5.701   3.843  13.830  0.00  0.00    +0.000 C 
ATOM     10  C   UNL     1       7.571   5.471  13.937  0.00  0.00    +0.000 C 
ATOM     11  N   UNL     1       5.629   3.884  16.623  0.00  0.00    +0.000 NA
ENDROOT
BRANCH   1  12
ATOM     12  C   UNL     1       4.424   3.130  20.052  0.00  0.00    +0.000 C 
ATOM     13  C   UNL     1       5.062   1.890  20.696  0.00  0.00    +0.000 C 
BRANCH  12  15
ATOM     14  N   UNL     1       2.283   4.513  20.300  0.00  0.00    +0.000 N 
ATOM     15  C   UNL     1       2.939   3.284  20.492  0.00  0.00    +0.000 C 
ATOM     16  O   UNL     1       2.364   2.354  21.070  0.00  0.00    +0.000 OA
BRANCH  14  18
ATOM     17  C   UNL     1       0.076   3.468  19.780  0.00  0.00    +0.000 C 
ATOM     18  C   UNL     1       0.838   4.528  20.565  0.00  0.00    +0.000 C 
ENDBRANCH  14  18
BRANCH  14  19
ATOM     19  C   UNL     1       2.888   5.634  19.574  0.00  0.00    +0.000 C 
ATOM     20  C   UNL     1       2.396   5.910  18.164  0.00  0.00    +0.000 C 
ENDBRANCH  14  19
ENDBRANCH  12  15
ENDBRANCH   1  12
BRANCH   1  21
ATOM     21  C   UNL     1       3.695   2.338  17.797  0.00  0.00    +0.000 C 
ATOM     22  N   UNL     1       2.900   1.781  17.165  0.00  0.00    +0.000 NA
ENDBRANCH   1  21
TORSDOF 5
ENDMDL
