MODEL 1
REMARK VINA RESULT:      -7.7      0.000      0.000
REMARK  Name = 
REMARK  6 active torsions:
REMARK  status: ('A' for Active; 'I' for Inactive)
REMARK    1  A    between atoms: C_1  and  C_2
REMARK    2  A    between atoms: C_3  and  C_4
REMARK    3  A    between atoms: N_18  and  C_19
REMARK    4  A    between atoms: N_18  and  C_20
REMARK    5  A    between atoms: C_20  and  C_21
REMARK    6  A    between atoms: C_21  and  C_22
REMARK                            x       y       z     vdW  Elec       q    Type
REMARK                         _______ _______ _______ _____ _____    ______ ____
ROOT
ATOM      1  C   UNL     1       4.488   7.767  17.079  0.00  0.00    +0.000 C 
ATOM      2  C   UNL     1       4.551   6.405  17.714  0.00  0.00    +0.000 A 
ATOM      3  C   UNL     1       5.503   5.464  17.294  0.00  0.00    +0.000 A 
ATOM      4  S   UNL     1       5.532   4.108  18.323  0.00  0.00    +0.000 S 
ATOM      5  C   UNL     1       4.108   4.576  19.099  0.00  0.00    +0.000 A 
ATOM      6  N   UNL     1       3.567   3.690  19.950  0.00  0.00    +0.000 NA
ATOM      7  C   UNL     1       2.548   4.190  20.616  0.00  0.00    +0.000 A 
ATOM      8  N   UNL     1       2.089   5.440  20.535  0.00  0.00    +0.000 NA
ATOM      9  C   UNL     1       2.617   6.339  19.657  0.00  0.00    +0.000 A 
ATOM     10  N   UNL     1       2.028   7.597  19.711  0.00  0.00    +0.000 N 
ATOM     11  C   UNL     1       1.832   8.410  18.539  0.00  0.00    +0.000 C 
ATOM     12  C   UNL     1       3.692   5.876  18.809  0.00  0.00    +0.000 A 
ENDROOT
BRANCH   3  13
ATOM     13  C   UNL     1       6.547   5.611  16.274  0.00  0.00    +0.000 C 
ATOM     14  O   UNL     1       7.410   6.486  16.388  0.00  0.00    +0.000 OA
ATOM     15  N   UNL     1       6.563   4.771  15.143  0.00  0.00    +0.000 N 
ATOM     16  C   UNL     1       7.741   4.806  14.275  0.00  0.00    +0.000 C 
ATOM     17  C   UNL     1       7.346   4.917  12.807  0.00  0.00    +0.000 C 
ATOM     18  C   UNL     1       6.366   3.816  12.416  0.00  0.00    +0.000 C 
ATOM     19  C   UNL     1       5.153   3.837  13.335  0.00  0.00    +0.000 C 
ATOM     20  C   UNL     1       5.564   3.755  14.801  0.00  0.00    +0.000 C 
ENDBRANCH   3  13
BRANCH  10  21
ATOM     21  C   UNL     1       1.579   8.106  21.031  0.00  0.00    +0.000 C 
BRANCH  21  22
ATOM     22  C   UNL     1       0.060   8.314  21.086  0.00  0.00    +0.000 C 
BRANCH  22  23
ATOM     23  C   UNL     1      -0.370   9.704  21.460  0.00  0.00    +0.000 A 
ATOM     24  C   UNL     1      -0.658  10.026  22.783  0.00  0.00    +0.000 A 
ATOM     25  C   UNL     1      -1.178  11.285  23.065  0.00  0.00    +0.000 A 
ATOM     26  C   UNL     1      -1.389  12.185  22.028  0.00  0.00    +0.000 A 
ATOM     27  C   UNL     1      -1.057  11.791  20.744  0.00  0.00    +0.000 A 
ATOM     28  N   UNL     1      -0.552  10.577  20.439  0.00  0.00    +0.000 NA
ENDBRANCH  22  23
ENDBRANCH  21  22
ENDBRANCH  10  21
TORSDOF 4
ENDMDL
MODEL 2
REMARK VINA RESULT:      -7.6      2.666      8.842
REMARK  Name = 
REMARK  6 active torsions:
REMARK  status: ('A' for Active; 'I' for Inactive)
REMARK    1  A    between atoms: C_1  and  C_2
REMARK    2  A    between atoms: C_3  and  C_4
REMARK    3  A    between atoms: N_18  and  C_19
REMARK    4  A    between atoms: N_18  and  C_20
REMARK    5  A    between atoms: C_20  and  C_21
REMARK    6  A    between atoms: C_21  and  C_22
REMARK                            x       y       z     vdW  Elec       q    Type
REMARK                         _______ _______ _______ _____ _____    ______ ____
ROOT
ATOM      1  C   UNL     1       2.848   9.143  17.817  0.00  0.00    +0.000 C 
ATOM      2  C   UNL     1       2.315   8.247  18.902  0.00  0.00    +0.000 A 
ATOM      3  C   UNL     1       1.370   8.724  19.822  0.00  0.00    +0.000 A 
ATOM      4  S   UNL     1       0.749   7.463  20.783  0.00  0.00    +0.000 S 
ATOM      5  C   UNL     1       1.925   6.378  20.247  0.00  0.00    +0.000 A 
ATOM      6  N   UNL     1       1.983   5.194  20.877  0.00  0.00    +0.000 NA
ATOM      7  C   UNL     1       2.824   4.359  20.304  0.00  0.00    +0.000 A 
ATOM      8  N   UNL     1       3.530   4.588  19.195  0.00  0.00    +0.000 NA
ATOM      9  C   UNL     1       3.496   5.794  18.563  0.00  0.00    +0.000 A 
ATOM     10  N   UNL     1       4.281   5.858  17.418  0.00  0.00    +0.000 N 
ATOM     11  C   UNL     1       4.993   7.049  17.032  0.00  0.00    +0.000 C 
ATOM     12  C   UNL     1       2.666   6.821  19.152  0.00  0.00    +0.000 A 
ENDROOT
BRANCH   3  13
ATOM     13  C   UNL     1       0.747  10.050  19.891  0.00  0.00    +0.000 C 
ATOM     14  O   UNL     1       1.008  10.812  20.826  0.00  0.00    +0.000 OA
ATOM     15  N   UNL     1      -0.171  10.459  18.904  0.00  0.00    +0.000 N 
ATOM     16  C   UNL     1      -0.590  11.861  18.891  0.00  0.00    +0.000 C 
ATOM     17  C   UNL     1      -2.105  11.986  18.771  0.00  0.00    +0.000 C 
ATOM     18  C   UNL     1      -2.627  11.211  17.566  0.00  0.00    +0.000 C 
ATOM     19  C   UNL     1      -2.181   9.757  17.640  0.00  0.00    +0.000 C 
ATOM     20  C   UNL     1      -0.668   9.647  17.789  0.00  0.00    +0.000 C 
ENDBRANCH   3  13
BRANCH  10  21
ATOM     21  C   UNL     1       4.393   4.641  16.574  0.00  0.00    +0.000 C 
BRANCH  21  22
ATOM     22  C   UNL     1       5.852   4.274  16.277  0.00  0.00    +0.000 C 
BRANCH  22  23
ATOM     23  C   UNL     1       6.239   4.366  14.828  0.00  0.00    +0.000 A 
ATOM     24  C   UNL     1       5.572   3.614  13.866  0.00  0.00    +0.000 A 
ATOM     25  C   UNL     1       6.048   3.630  12.558  0.00  0.00    +0.000 A 
ATOM     26  C   UNL     1       7.164   4.396  12.247  0.00  0.00    +0.000 A 
ATOM     27  C   UNL     1       7.755   5.131  13.260  0.00  0.00    +0.000 A 
ATOM     28  N   UNL     1       7.317   5.135  14.537  0.00  0.00    +0.000 NA
ENDBRANCH  22  23
ENDBRANCH  21  22
ENDBRANCH  10  21
TORSDOF 4
ENDMDL
MODEL 3
REMARK VINA RESULT:      -7.4      2.165      9.267
REMARK  Name = 
REMARK  6 active torsions:
REMARK  status: ('A' for Active; 'I' for Inactive)
REMARK    1  A    between atoms: C_1  and  C_2
REMARK    2  A    between atoms: C_3  and  C_4
REMARK    3  A    between atoms: N_18  and  C_19
REMARK    4  A    between atoms: N_18  and  C_20
REMARK    5  A    between atoms: C_20  and  C_21
REMARK    6  A    between atoms: C_21  and  C_22
REMARK                            x       y       z     vdW  Elec       q    Type
REMARK                         _______ _______ _______ _____ _____    ______ ____
ROOT
ATOM      1  C   UNL     1       2.913   8.678  17.483  0.00  0.00    +0.000 C 
ATOM      2  C   UNL     1       2.529   7.780  18.628  0.00  0.00    +0.000 A 
ATOM      3  C   UNL     1       1.631   8.222  19.612  0.00  0.00    +0.000 A 
ATOM      4  S   UNL     1       1.173   6.951  20.648  0.00  0.00    +0.000 S 
ATOM      5  C   UNL     1       2.371   5.928  20.043  0.00  0.00    +0.000 A 
ATOM      6  N   UNL     1       2.556   4.768  20.693  0.00  0.00    +0.000 NA
ATOM      7  C   UNL     1       3.402   3.974  20.072  0.00  0.00    +0.000 A 
ATOM      8  N   UNL     1       4.000   4.215  18.904  0.00  0.00    +0.000 NA
ATOM      9  C   UNL     1       3.836   5.399  18.249  0.00  0.00    +0.000 A 
ATOM     10  N   UNL     1       4.521   5.480  17.042  0.00  0.00    +0.000 N 
ATOM     11  C   UNL     1       5.120   6.703  16.573  0.00  0.00    +0.000 C 
ATOM     12  C   UNL     1       2.991   6.387  18.881  0.00  0.00    +0.000 A 
ENDROOT
BRANCH   3  13
ATOM     13  C   UNL     1       0.931   9.507  19.701  0.00  0.00    +0.000 C 
ATOM     14  O   UNL     1       1.141  10.389  18.864  0.00  0.00    +0.000 OA
ATOM     15  N   UNL     1       0.029   9.757  20.754  0.00  0.00    +0.000 N 
ATOM     16  C   UNL     1      -0.807  10.955  20.676  0.00  0.00    +0.000 C 
ATOM     17  C   UNL     1      -0.791  11.730  21.989  0.00  0.00    +0.000 C 
ATOM     18  C   UNL     1      -1.168  10.832  23.162  0.00  0.00    +0.000 C 
ATOM     19  C   UNL     1      -0.256   9.614  23.209  0.00  0.00    +0.000 C 
ATOM     20  C   UNL     1      -0.260   8.866  21.881  0.00  0.00    +0.000 C 
ENDBRANCH   3  13
BRANCH  10  21
ATOM     21  C   UNL     1       4.644   4.250  16.221  0.00  0.00    +0.000 C 
BRANCH  21  22
ATOM     22  C   UNL     1       6.103   3.925  15.877  0.00  0.00    +0.000 C 
BRANCH  22  23
ATOM     23  C   UNL     1       6.492   4.213  14.455  0.00  0.00    +0.000 A 
ATOM     24  C   UNL     1       5.954   3.470  13.408  0.00  0.00    +0.000 A 
ATOM     25  C   UNL     1       6.439   3.682  12.121  0.00  0.00    +0.000 A 
ATOM     26  C   UNL     1       7.435   4.627  11.913  0.00  0.00    +0.000 A 
ATOM     27  C   UNL     1       7.900   5.337  13.007  0.00  0.00    +0.000 A 
ATOM     28  N   UNL     1       7.450   5.154  14.267  0.00  0.00    +0.000 NA
ENDBRANCH  22  23
ENDBRANCH  21  22
ENDBRANCH  10  21
TORSDOF 4
ENDMDL
MODEL 4
REMARK VINA RESULT:      -7.3      0.996      1.236
REMARK  Name = 
REMARK  6 active torsions:
REMARK  status: ('A' for Active; 'I' for Inactive)
REMARK    1  A    between atoms: C_1  and  C_2
REMARK    2  A    between atoms: C_3  and  C_4
REMARK    3  A    between atoms: N_18  and  C_19
REMARK    4  A    between atoms: N_18  and  C_20
REMARK    5  A    between atoms: C_20  and  C_21
REMARK    6  A    between atoms: C_21  and  C_22
REMARK                            x       y       z     vdW  Elec       q    Type
REMARK                         _______ _______ _______ _____ _____    ______ ____
ROOT
ATOM      1  C   UNL     1       4.429   7.849  17.028  0.00  0.00    +0.000 C 
ATOM      2  C   UNL     1       4.465   6.517  17.727  0.00  0.00    +0.000 A 
ATOM      3  C   UNL     1       5.419   5.550  17.374  0.00  0.00    +0.000 A 
ATOM      4  S   UNL     1       5.411   4.243  18.465  0.00  0.00    +0.000 S 
ATOM      5  C   UNL     1       3.974   4.758  19.184  0.00  0.00    +0.000 A 
ATOM      6  N   UNL     1       3.405   3.917  20.062  0.00  0.00    +0.000 NA
ATOM      7  C   UNL     1       2.375   4.455  20.680  0.00  0.00    +0.000 A 
ATOM      8  N   UNL     1       1.929   5.704  20.530  0.00  0.00    +0.000 NA
ATOM      9  C   UNL     1       2.485   6.557  19.624  0.00  0.00    +0.000 A 
ATOM     10  N   UNL     1       1.907   7.821  19.605  0.00  0.00    +0.000 N 
ATOM     11  C   UNL     1       1.745   8.580  18.392  0.00  0.00    +0.000 C 
ATOM     12  C   UNL     1       3.576   6.046  18.824  0.00  0.00    +0.000 A 
ENDROOT
BRANCH   3  13
ATOM     13  C   UNL     1       6.487   5.642  16.373  0.00  0.00    +0.000 C 
ATOM     14  O   UNL     1       7.379   6.486  16.491  0.00  0.00    +0.000 OA
ATOM     15  N   UNL     1       6.495   4.783  15.257  0.00  0.00    +0.000 N 
ATOM     16  C   UNL     1       7.690   4.760  14.413  0.00  0.00    +0.000 C 
ATOM     17  C   UNL     1       7.329   4.861  12.935  0.00  0.00    +0.000 C 
ATOM     18  C   UNL     1       6.317   3.789  12.542  0.00  0.00    +0.000 C 
ATOM     19  C   UNL     1       5.087   3.871  13.435  0.00  0.00    +0.000 C 
ATOM     20  C   UNL     1       5.466   3.799  14.910  0.00  0.00    +0.000 C 
ENDBRANCH   3  13
BRANCH  10  21
ATOM     21  C   UNL     1       1.431   8.394  20.889  0.00  0.00    +0.000 C 
BRANCH  21  22
ATOM     22  C   UNL     1       0.012   8.967  20.778  0.00  0.00    +0.000 C 
BRANCH  22  23
ATOM     23  C   UNL     1      -0.050  10.453  20.565  0.00  0.00    +0.000 A 
ATOM     24  C   UNL     1      -0.964  11.005  19.672  0.00  0.00    +0.000 A 
ATOM     25  C   UNL     1      -0.898  12.369  19.408  0.00  0.00    +0.000 A 
ATOM     26  C   UNL     1       0.066  13.142  20.043  0.00  0.00    +0.000 A 
ATOM     27  C   UNL     1       0.923  12.517  20.932  0.00  0.00    +0.000 A 
ATOM     28  N   UNL     1       0.884  11.196  21.208  0.00  0.00    +0.000 NA
ENDBRANCH  22  23
ENDBRANCH  21  22
ENDBRANCH  10  21
TORSDOF 4
ENDMDL
MODEL 5
REMARK VINA RESULT:      -7.2      4.536     10.734
REMARK  Name = 
REMARK  6 active torsions:
REMARK  status: ('A' for Active; 'I' for Inactive)
REMARK    1  A    between atoms: C_1  and  C_2
REMARK    2  A    between atoms: C_3  and  C_4
REMARK    3  A    between atoms: N_18  and  C_19
REMARK    4  A    between atoms: N_18  and  C_20
REMARK    5  A    between atoms: C_20  and  C_21
REMARK    6  A    between atoms: C_21  and  C_22
REMARK                            x       y       z     vdW  Elec       q    Type
REMARK                         _______ _______ _______ _____ _____    ______ ____
ROOT
ATOM      1  C   UNL     1      -1.146  12.839  19.233  0.00  0.00    +0.000 C 
ATOM      2  C   UNL     1      -1.222  12.315  20.642  0.00  0.00    +0.000 A 
ATOM      3  C   UNL     1      -2.107  12.885  21.570  0.00  0.00    +0.000 A 
ATOM      4  S   UNL     1      -2.182  11.966  23.001  0.00  0.00    +0.000 S 
ATOM      5  C   UNL     1      -0.844  11.037  22.560  0.00  0.00    +0.000 A 
ATOM      6  N   UNL     1      -0.351  10.211  23.496  0.00  0.00    +0.000 NA
ATOM      7  C   UNL     1       0.593   9.423  23.025  0.00  0.00    +0.000 A 
ATOM      8  N   UNL     1       1.020   9.371  21.762  0.00  0.00    +0.000 NA
ATOM      9  C   UNL     1       0.542  10.222  20.811  0.00  0.00    +0.000 A 
ATOM     10  N   UNL     1       1.086  10.024  19.547  0.00  0.00    +0.000 N 
ATOM     11  C   UNL     1       1.357  11.111  18.642  0.00  0.00    +0.000 C 
ATOM     12  C   UNL     1      -0.443  11.192  21.233  0.00  0.00    +0.000 A 
ENDROOT
BRANCH   3  13
ATOM     13  C   UNL     1      -3.065  13.978  21.369  0.00  0.00    +0.000 C 
ATOM     14  O   UNL     1      -2.771  15.131  21.698  0.00  0.00    +0.000 OA
ATOM     15  N   UNL     1      -4.336  13.721  20.820  0.00  0.00    +0.000 N 
ATOM     16  C   UNL     1      -5.164  14.863  20.434  0.00  0.00    +0.000 C 
ATOM     17  C   UNL     1      -6.589  14.720  20.958  0.00  0.00    +0.000 C 
ATOM     18  C   UNL     1      -7.199  13.388  20.534  0.00  0.00    +0.000 C 
ATOM     19  C   UNL     1      -6.310  12.235  20.978  0.00  0.00    +0.000 C 
ATOM     20  C   UNL     1      -4.883  12.406  20.472  0.00  0.00    +0.000 C 
ENDBRANCH   3  13
BRANCH  10  21
ATOM     21  C   UNL     1       1.407   8.636  19.130  0.00  0.00    +0.000 C 
BRANCH  21  22
ATOM     22  C   UNL     1       2.507   8.591  18.062  0.00  0.00    +0.000 C 
BRANCH  22  23
ATOM     23  C   UNL     1       3.039   7.217  17.767  0.00  0.00    +0.000 A 
ATOM     24  C   UNL     1       2.356   6.084  18.199  0.00  0.00    +0.000 A 
ATOM     25  C   UNL     1       2.950   4.838  18.020  0.00  0.00    +0.000 A 
ATOM     26  C   UNL     1       4.197   4.757  17.413  0.00  0.00    +0.000 A 
ATOM     27  C   UNL     1       4.798   5.932  16.995  0.00  0.00    +0.000 A 
ATOM     28  N   UNL     1       4.247   7.154  17.155  0.00  0.00    +0.000 NA
ENDBRANCH  22  23
ENDBRANCH  21  22
ENDBRANCH  10  21
TORSDOF 4
ENDMDL
MODEL 6
REMARK VINA RESULT:      -7.0      1.982      8.950
REMARK  Name = 
REMARK  6 active torsions:
REMARK  status: ('A' for Active; 'I' for Inactive)
REMARK    1  A    between atoms: C_1  and  C_2
REMARK    2  A    between atoms: C_3  and  C_4
REMARK    3  A    between atoms: N_18  and  C_19
REMARK    4  A    between atoms: N_18  and  C_20
REMARK    5  A    between atoms: C_20  and  C_21
REMARK    6  A    between atoms: C_21  and  C_22
REMARK                            x       y       z     vdW  Elec       q    Type
REMARK                         _______ _______ _______ _____ _____    ______ ____
ROOT
ATOM      1  C   UNL     1       4.171   8.238  17.595  0.00  0.00    +0.000 C 
ATOM      2  C   UNL     1       3.564   7.145  18.432  0.00  0.00    +0.000 A 
ATOM      3  C   UNL     1       2.307   7.318  19.031  0.00  0.00    +0.000 A 
ATOM      4  S   UNL     1       1.738   5.864  19.710  0.00  0.00    +0.000 S 
ATOM      5  C   UNL     1       3.236   5.108  19.528  0.00  0.00    +0.000 A 
ATOM      6  N   UNL     1       3.377   3.904  20.105  0.00  0.00    +0.000 NA
ATOM      7  C   UNL     1       4.517   3.327  19.792  0.00  0.00    +0.000 A 
ATOM      8  N   UNL     1       5.445   3.809  18.963  0.00  0.00    +0.000 NA
ATOM      9  C   UNL     1       5.321   5.040  18.392  0.00  0.00    +0.000 A 
ATOM     10  N   UNL     1       6.372   5.382  17.548  0.00  0.00    +0.000 N 
ATOM     11  C   UNL     1       6.872   6.728  17.441  0.00  0.00    +0.000 C 
ATOM     12  C   UNL     1       4.143   5.806  18.730  0.00  0.00    +0.000 A 
ENDROOT
BRANCH   3  13
ATOM     13  C   UNL     1       1.405   8.471  18.948  0.00  0.00    +0.000 C 
ATOM     14  O   UNL     1       1.264   9.075  17.882  0.00  0.00    +0.000 OA
ATOM     15  N   UNL     1       0.707   8.915  20.089  0.00  0.00    +0.000 N 
ATOM     16  C   UNL     1      -0.343   9.918  19.908  0.00  0.00    +0.000 C 
ATOM     17  C   UNL     1      -0.207  11.052  20.919  0.00  0.00    +0.000 C 
ATOM     18  C   UNL     1      -0.154  10.514  22.344  0.00  0.00    +0.000 C 
ATOM     19  C   UNL     1       0.966   9.492  22.483  0.00  0.00    +0.000 C 
ATOM     20  C   UNL     1       0.834   8.381  21.448  0.00  0.00    +0.000 C 
ENDBRANCH   3  13
BRANCH  10  21
ATOM     21  C   UNL     1       7.002   4.308  16.740  0.00  0.00    +0.000 C 
BRANCH  21  22
ATOM     22  C   UNL     1       6.089   3.824  15.606  0.00  0.00    +0.000 C 
BRANCH  22  23
ATOM     23  C   UNL     1       6.539   4.218  14.227  0.00  0.00    +0.000 A 
ATOM     24  C   UNL     1       6.076   3.533  13.107  0.00  0.00    +0.000 A 
ATOM     25  C   UNL     1       6.617   3.845  11.864  0.00  0.00    +0.000 A 
ATOM     26  C   UNL     1       7.594   4.828  11.771  0.00  0.00    +0.000 A 
ATOM     27  C   UNL     1       7.983   5.474  12.932  0.00  0.00    +0.000 A 
ATOM     28  N   UNL     1       7.477   5.194  14.152  0.00  0.00    +0.000 NA
ENDBRANCH  22  23
ENDBRANCH  21  22
ENDBRANCH  10  21
TORSDOF 4
ENDMDL
MODEL 7
REMARK VINA RESULT:      -7.0      3.719      6.416
REMARK  Name = 
REMARK  6 active torsions:
REMARK  status: ('A' for Active; 'I' for Inactive)
REMARK    1  A    between atoms: C_1  and  C_2
REMARK    2  A    between atoms: C_3  and  C_4
REMARK    3  A    between atoms: N_18  and  C_19
REMARK    4  A    between atoms: N_18  and  C_20
REMARK    5  A    between atoms: C_20  and  C_21
REMARK    6  A    between atoms: C_21  and  C_22
REMARK                            x       y       z     vdW  Elec       q    Type
REMARK                         _______ _______ _______ _____ _____    ______ ____
ROOT
ATOM      1  C   UNL     1       0.710   9.712  18.045  0.00  0.00    +0.000 C 
ATOM      2  C   UNL     1       0.763   9.464  19.528  0.00  0.00    +0.000 A 
ATOM      3  C   UNL     1       1.521   8.405  20.049  0.00  0.00    +0.000 A 
ATOM      4  S   UNL     1       1.617   8.486  21.747  0.00  0.00    +0.000 S 
ATOM      5  C   UNL     1       0.422   9.675  21.830  0.00  0.00    +0.000 A 
ATOM      6  N   UNL     1      -0.027   9.993  23.054  0.00  0.00    +0.000 NA
ATOM      7  C   UNL     1      -0.845  11.024  23.038  0.00  0.00    +0.000 A 
ATOM      8  N   UNL     1      -1.189  11.742  21.968  0.00  0.00    +0.000 NA
ATOM      9  C   UNL     1      -0.757  11.413  20.718  0.00  0.00    +0.000 A 
ATOM     10  N   UNL     1      -1.200  12.272  19.719  0.00  0.00    +0.000 N 
ATOM     11  C   UNL     1      -1.540  11.813  18.398  0.00  0.00    +0.000 C 
ATOM     12  C   UNL     1       0.085  10.243  20.601  0.00  0.00    +0.000 A 
ENDROOT
BRANCH   3  13
ATOM     13  C   UNL     1       2.357   7.438  19.330  0.00  0.00    +0.000 C 
ATOM     14  O   UNL     1       3.052   7.803  18.378  0.00  0.00    +0.000 OA
ATOM     15  N   UNL     1       2.359   6.079  19.704  0.00  0.00    +0.000 N 
ATOM     16  C   UNL     1       3.369   5.203  19.110  0.00  0.00    +0.000 C 
ATOM     17  C   UNL     1       2.747   3.910  18.592  0.00  0.00    +0.000 C 
ATOM     18  C   UNL     1       1.939   3.214  19.682  0.00  0.00    +0.000 C 
ATOM     19  C   UNL     1       0.892   4.162  20.251  0.00  0.00    +0.000 C 
ATOM     20  C   UNL     1       1.524   5.461  20.737  0.00  0.00    +0.000 C 
ENDBRANCH   3  13
BRANCH  10  21
ATOM     21  C   UNL     1      -1.334  13.715  20.043  0.00  0.00    +0.000 C 
BRANCH  21  22
ATOM     22  C   UNL     1      -0.592  14.606  19.040  0.00  0.00    +0.000 C 
BRANCH  22  23
ATOM     23  C   UNL     1       0.903  14.607  19.187  0.00  0.00    +0.000 A 
ATOM     24  C   UNL     1       1.689  13.725  18.451  0.00  0.00    +0.000 A 
ATOM     25  C   UNL     1       3.054  13.669  18.714  0.00  0.00    +0.000 A 
ATOM     26  C   UNL     1       3.596  14.492  19.693  0.00  0.00    +0.000 A 
ATOM     27  C   UNL     1       2.746  15.354  20.365  0.00  0.00    +0.000 A 
ATOM     28  N   UNL     1       1.419  15.431  20.132  0.00  0.00    +0.000 NA
ENDBRANCH  22  23
ENDBRANCH  21  22
ENDBRANCH  10  21
TORSDOF 4
ENDMDL
MODEL 8
REMARK VINA RESULT:      -6.9      3.744      6.730
REMARK  Name = 
REMARK  6 active torsions:
REMARK  status: ('A' for Active; 'I' for Inactive)
REMARK    1  A    between atoms: C_1  and  C_2
REMARK    2  A    between atoms: C_3  and  C_4
REMARK    3  A    between atoms: N_18  and  C_19
REMARK    4  A    between atoms: N_18  and  C_20
REMARK    5  A    between atoms: C_20  and  C_21
REMARK    6  A    between atoms: C_21  and  C_22
REMARK                            x       y       z     vdW  Elec       q    Type
REMARK                         _______ _______ _______ _____ _____    ______ ____
ROOT
ATOM      1  C   UNL     1       0.703   9.852  18.005  0.00  0.00    +0.000 C 
ATOM      2  C   UNL     1       0.735   9.591  19.486  0.00  0.00    +0.000 A 
ATOM      3  C   UNL     1       1.469   8.515  20.007  0.00  0.00    +0.000 A 
ATOM      4  S   UNL     1       1.547   8.581  21.706  0.00  0.00    +0.000 S 
ATOM      5  C   UNL     1       0.371   9.788  21.785  0.00  0.00    +0.000 A 
ATOM      6  N   UNL     1      -0.087  10.103  23.007  0.00  0.00    +0.000 NA
ATOM      7  C   UNL     1      -0.889  11.147  22.991  0.00  0.00    +0.000 A 
ATOM      8  N   UNL     1      -1.208  11.880  21.922  0.00  0.00    +0.000 NA
ATOM      9  C   UNL     1      -0.767  11.554  20.675  0.00  0.00    +0.000 A 
ATOM     10  N   UNL     1      -1.184  12.429  19.678  0.00  0.00    +0.000 N 
ATOM     11  C   UNL     1      -1.517  11.986  18.349  0.00  0.00    +0.000 C 
ATOM     12  C   UNL     1       0.056  10.372  20.557  0.00  0.00    +0.000 A 
ENDROOT
BRANCH   3  13
ATOM     13  C   UNL     1       2.298   7.540  19.289  0.00  0.00    +0.000 C 
ATOM     14  O   UNL     1       2.962   7.890  18.310  0.00  0.00    +0.000 OA
ATOM     15  N   UNL     1       2.327   6.192  19.696  0.00  0.00    +0.000 N 
ATOM     16  C   UNL     1       3.332   5.313  19.096  0.00  0.00    +0.000 C 
ATOM     17  C   UNL     1       2.712   4.001  18.628  0.00  0.00    +0.000 C 
ATOM     18  C   UNL     1       1.943   3.322  19.756  0.00  0.00    +0.000 C 
ATOM     19  C   UNL     1       0.900   4.271  20.329  0.00  0.00    +0.000 C 
ATOM     20  C   UNL     1       1.528   5.589  20.766  0.00  0.00    +0.000 C 
ENDBRANCH   3  13
BRANCH  10  21
ATOM     21  C   UNL     1      -1.300  13.871  20.013  0.00  0.00    +0.000 C 
BRANCH  21  22
ATOM     22  C   UNL     1       0.071  14.544  20.155  0.00  0.00    +0.000 C 
BRANCH  22  23
ATOM     23  C   UNL     1       0.257  15.773  19.309  0.00  0.00    +0.000 A 
ATOM     24  C   UNL     1      -0.839  16.537  18.917  0.00  0.00    +0.000 A 
ATOM     25  C   UNL     1      -0.635  17.588  18.029  0.00  0.00    +0.000 A 
ATOM     26  C   UNL     1       0.647  17.851  17.564  0.00  0.00    +0.000 A 
ATOM     27  C   UNL     1       1.684  17.055  18.020  0.00  0.00    +0.000 A 
ATOM     28  N   UNL     1       1.517  16.028  18.881  0.00  0.00    +0.000 NA
ENDBRANCH  22  23
ENDBRANCH  21  22
ENDBRANCH  10  21
TORSDOF 4
ENDMDL
MODEL 9
REMARK VINA RESULT:      -6.8      4.329     10.728
REMARK  Name = 
REMARK  6 active torsions:
REMARK  status: ('A' for Active; 'I' for Inactive)
REMARK    1  A    between atoms: C_1  and  C_2
REMARK    2  A    between atoms: C_3  and  C_4
REMARK    3  A    between atoms: N_18  and  C_19
REMARK    4  A    between atoms: N_18  and  C_20
REMARK    5  A    between atoms: C_20  and  C_21
REMARK    6  A    between atoms: C_21  and  C_22
REMARK                            x       y       z     vdW  Elec       q    Type
REMARK                         _______ _______ _______ _____ _____    ______ ____
ROOT
ATOM      1  C   UNL     1      -1.031  10.870  23.069  0.00  0.00    +0.000 C 
ATOM      2  C   UNL     1      -0.457  11.627  21.902  0.00  0.00    +0.000 A 
ATOM      3  C   UNL     1      -0.616  13.017  21.802  0.00  0.00    +0.000 A 
ATOM      4  S   UNL     1       0.325  13.661  20.539  0.00  0.00    +0.000 S 
ATOM      5  C   UNL     1       0.670  12.130  19.918  0.00  0.00    +0.000 A 
ATOM      6  N   UNL     1       1.293  12.089  18.730  0.00  0.00    +0.000 NA
ATOM      7  C   UNL     1       1.652  10.869  18.392  0.00  0.00    +0.000 A 
ATOM      8  N   UNL     1       1.488   9.766  19.125  0.00  0.00    +0.000 NA
ATOM      9  C   UNL     1       0.835   9.795  20.321  0.00  0.00    +0.000 A 
ATOM     10  N   UNL     1       0.762   8.561  20.958  0.00  0.00    +0.000 N 
ATOM     11  C   UNL     1      -0.386   8.153  21.726  0.00  0.00    +0.000 C 
ATOM     12  C   UNL     1       0.320  11.073  20.758  0.00  0.00    +0.000 A 
ENDROOT
BRANCH   3  13
ATOM     13  C   UNL     1      -1.282  13.931  22.737  0.00  0.00    +0.000 C 
ATOM     14  O   UNL     1      -0.645  14.454  23.655  0.00  0.00    +0.000 OA
ATOM     15  N   UNL     1      -2.658  14.203  22.610  0.00  0.00    +0.000 N 
ATOM     16  C   UNL     1      -3.224  15.283  23.419  0.00  0.00    +0.000 C 
ATOM     17  C   UNL     1      -4.509  14.843  24.112  0.00  0.00    +0.000 C 
ATOM     18  C   UNL     1      -5.510  14.280  23.109  0.00  0.00    +0.000 C 
ATOM     19  C   UNL     1      -4.878  13.148  22.311  0.00  0.00    +0.000 C 
ATOM     20  C   UNL     1      -3.580  13.593  21.648  0.00  0.00    +0.000 C 
ENDBRANCH   3  13
BRANCH  10  21
ATOM     21  C   UNL     1       1.912   7.632  20.823  0.00  0.00    +0.000 C 
BRANCH  21  22
ATOM     22  C   UNL     1       1.467   6.203  20.486  0.00  0.00    +0.000 C 
BRANCH  22  23
ATOM     23  C   UNL     1       2.315   5.507  19.459  0.00  0.00    +0.000 A 
ATOM     24  C   UNL     1       3.045   6.240  18.528  0.00  0.00    +0.000 A 
ATOM     25  C   UNL     1       3.711   5.556  17.515  0.00  0.00    +0.000 A 
ATOM     26  C   UNL     1       3.637   4.170  17.464  0.00  0.00    +0.000 A 
ATOM     27  C   UNL     1       2.905   3.518  18.442  0.00  0.00    +0.000 A 
ATOM     28  N   UNL     1       2.248   4.153  19.435  0.00  0.00    +0.000 NA
ENDBRANCH  22  23
ENDBRANCH  21  22
ENDBRANCH  10  21
TORSDOF 4
ENDMDL
