MODEL 1
REMARK VINA RESULT:      -6.7      0.000      0.000
REMARK  Name = 
REMARK  8 active torsions:
REMARK  status: ('A' for Active; 'I' for Inactive)
REMARK    1  A    between atoms: C_1  and  O_2
REMARK    2  A    between atoms: O_2  and  C_3
REMARK    3  A    between atoms: C_6  and  C_7
REMARK    4  A    between atoms: C_10  and  C_11
REMARK    5  A    between atoms: N_13  and  C_14
REMARK    6  A    between atoms: C_14  and  C_15
REMARK    7  A    between atoms: C_14  and  C_16
REMARK    8  A    between atoms: C_14  and  C_17
REMARK                            x       y       z     vdW  Elec       q    Type
REMARK                         _______ _______ _______ _____ _____    ______ ____
ROOT
ATOM      1  C   UNL     1       2.188   7.919  18.531  0.00  0.00    +0.000 C 
ATOM      2  N   UNL     1       2.389   8.550  17.419  0.00  0.00    +0.000 NA
ATOM      3  O   UNL     1       1.726   9.797  17.499  0.00  0.00    +0.000 OA
ATOM      4  C   UNL     1       1.158   9.950  18.798  0.00  0.00    +0.000 C 
ATOM      5  C   UNL     1       1.404   8.661  19.547  0.00  0.00    +0.000 C 
ENDROOT
BRANCH   1   9
ATOM      6  C   UNL     1       3.577   3.921  19.246  0.00  0.00    +0.000 A 
ATOM      7  C   UNL     1       3.899   4.586  18.061  0.00  0.00    +0.000 A 
ATOM      8  C   UNL     1       3.461   5.895  17.839  0.00  0.00    +0.000 A 
ATOM      9  C   UNL     1       2.680   6.545  18.797  0.00  0.00    +0.000 A 
ATOM     10  C   UNL     1       2.344   5.872  19.979  0.00  0.00    +0.000 A 
ATOM     11  C   UNL     1       2.788   4.563  20.200  0.00  0.00    +0.000 A 
BRANCH   6  13
ATOM     12  C   UNL     1       3.436   1.694  18.470  0.00  0.00    +0.000 C 
ATOM     13  O   UNL     1       4.042   2.640  19.346  0.00  0.00    +0.000 OA
ENDBRANCH   6  13
ENDBRANCH   1   9
BRANCH   4  14
ATOM     14  C   UNL     1      -0.338  10.285  18.763  0.00  0.00    +0.000 C 
ATOM     15  O   UNL     1      -0.941  10.604  19.785  0.00  0.00    +0.000 OA
ATOM     16  N   UNL     1      -0.912  10.299  17.506  0.00  0.00    +0.000 N 
ATOM     17  H   UNL     1      -0.380   9.865  16.760  0.00  0.00    +0.000 HD
BRANCH  16  18
ATOM     18  C   UNL     1      -2.329  10.635  17.267  0.00  0.00    +0.000 C 
ATOM     19  C   UNL     1      -2.581  10.858  15.765  0.00  0.00    +0.000 C 
ATOM     20  C   UNL     1      -3.211   9.463  17.734  0.00  0.00    +0.000 C 
ATOM     21  C   UNL     1      -2.740  11.884  18.062  0.00  0.00    +0.000 C 
ENDBRANCH  16  18
ENDBRANCH   4  14
TORSDOF 4
ENDMDL
MODEL 2
REMARK VINA RESULT:      -6.7      2.889      7.746
REMARK  Name = 
REMARK  8 active torsions:
REMARK  status: ('A' for Active; 'I' for Inactive)
REMARK    1  A    between atoms: C_1  and  O_2
REMARK    2  A    between atoms: O_2  and  C_3
REMARK    3  A    between atoms: C_6  and  C_7
REMARK    4  A    between atoms: C_10  and  C_11
REMARK    5  A    between atoms: N_13  and  C_14
REMARK    6  A    between atoms: C_14  and  C_15
REMARK    7  A    between atoms: C_14  and  C_16
REMARK    8  A    between atoms: C_14  and  C_17
REMARK                            x       y       z     vdW  Elec       q    Type
REMARK                         _______ _______ _______ _____ _____    ______ ____
ROOT
ATOM      1  C   UNL     1       2.261   6.944  19.351  0.00  0.00    +0.000 C 
ATOM      2  N   UNL     1       2.188   6.797  18.067  0.00  0.00    +0.000 NA
ATOM      3  O   UNL     1       2.942   5.653  17.716  0.00  0.00    +0.000 OA
ATOM      4  C   UNL     1       3.431   5.025  18.899  0.00  0.00    +0.000 C 
ATOM      5  C   UNL     1       3.032   5.898  20.066  0.00  0.00    +0.000 C 
ENDROOT
BRANCH   1   9
ATOM      6  C   UNL     1       0.527  10.258  21.458  0.00  0.00    +0.000 A 
ATOM      7  C   UNL     1       0.759  10.330  20.082  0.00  0.00    +0.000 A 
ATOM      8  C   UNL     1       1.306   9.243  19.395  0.00  0.00    +0.000 A 
ATOM      9  C   UNL     1       1.644   8.076  20.085  0.00  0.00    +0.000 A 
ATOM     10  C   UNL     1       1.425   8.009  21.467  0.00  0.00    +0.000 A 
ATOM     11  C   UNL     1       0.873   9.098  22.150  0.00  0.00    +0.000 A 
BRANCH   6  13
ATOM     12  C   UNL     1      -1.074  11.180  22.929  0.00  0.00    +0.000 C 
ATOM     13  O   UNL     1       0.007  11.387  22.026  0.00  0.00    +0.000 OA
ENDBRANCH   6  13
ENDBRANCH   1   9
BRANCH   4  14
ATOM     14  C   UNL     1       4.948   4.801  18.877  0.00  0.00    +0.000 C 
ATOM     15  O   UNL     1       5.438   3.739  19.254  0.00  0.00    +0.000 OA
ATOM     16  N   UNL     1       5.689   5.825  18.319  0.00  0.00    +0.000 N 
ATOM     17  H   UNL     1       5.215   6.713  18.195  0.00  0.00    +0.000 HD
BRANCH  16  18
ATOM     18  C   UNL     1       7.157   5.777  18.177  0.00  0.00    +0.000 C 
ATOM     19  C   UNL     1       7.570   4.587  17.292  0.00  0.00    +0.000 C 
ATOM     20  C   UNL     1       7.641   7.072  17.499  0.00  0.00    +0.000 C 
ATOM     21  C   UNL     1       7.840   5.677  19.550  0.00  0.00    +0.000 C 
ENDBRANCH  16  18
ENDBRANCH   4  14
TORSDOF 4
ENDMDL
MODEL 3
REMARK VINA RESULT:      -6.7      0.306      1.473
REMARK  Name = 
REMARK  8 active torsions:
REMARK  status: ('A' for Active; 'I' for Inactive)
REMARK    1  A    between atoms: C_1  and  O_2
REMARK    2  A    between atoms: O_2  and  C_3
REMARK    3  A    between atoms: C_6  and  C_7
REMARK    4  A    between atoms: C_10  and  C_11
REMARK    5  A    between atoms: N_13  and  C_14
REMARK    6  A    between atoms: C_14  and  C_15
REMARK    7  A    between atoms: C_14  and  C_16
REMARK    8  A    between atoms: C_14  and  C_17
REMARK                            x       y       z     vdW  Elec       q    Type
REMARK                         _______ _______ _______ _____ _____    ______ ____
ROOT
ATOM      1  C   UNL     1       2.290   8.082  18.407  0.00  0.00    +0.000 C 
ATOM      2  N   UNL     1       2.479   8.827  17.365  0.00  0.00    +0.000 NA
ATOM      3  O   UNL     1       1.760  10.031  17.553  0.00  0.00    +0.000 OA
ATOM      4  C   UNL     1       1.166  10.032  18.849  0.00  0.00    +0.000 C 
ATOM      5  C   UNL     1       1.457   8.688  19.475  0.00  0.00    +0.000 C 
ENDROOT
BRANCH   1   9
ATOM      6  C   UNL     1       3.900   4.131  18.875  0.00  0.00    +0.000 A 
ATOM      7  C   UNL     1       2.957   4.628  19.778  0.00  0.00    +0.000 A 
ATOM      8  C   UNL     1       2.421   5.908  19.613  0.00  0.00    +0.000 A 
ATOM      9  C   UNL     1       2.837   6.711  18.548  0.00  0.00    +0.000 A 
ATOM     10  C   UNL     1       3.793   6.218  17.651  0.00  0.00    +0.000 A 
ATOM     11  C   UNL     1       4.325   4.934  17.818  0.00  0.00    +0.000 A 
BRANCH   6  13
ATOM     12  C   UNL     1       3.562   1.802  18.675  0.00  0.00    +0.000 C 
ATOM     13  O   UNL     1       4.369   2.877  19.147  0.00  0.00    +0.000 OA
ENDBRANCH   6  13
ENDBRANCH   1   9
BRANCH   4  14
ATOM     14  C   UNL     1      -0.343  10.305  18.817  0.00  0.00    +0.000 C 
ATOM     15  O   UNL     1      -0.963  10.561  19.846  0.00  0.00    +0.000 OA
ATOM     16  N   UNL     1      -0.912  10.338  17.558  0.00  0.00    +0.000 N 
ATOM     17  H   UNL     1      -0.359   9.954  16.800  0.00  0.00    +0.000 HD
BRANCH  16  18
ATOM     18  C   UNL     1      -2.340  10.622  17.323  0.00  0.00    +0.000 C 
ATOM     19  C   UNL     1      -2.759  11.908  18.059  0.00  0.00    +0.000 C 
ATOM     20  C   UNL     1      -2.572  10.833  15.816  0.00  0.00    +0.000 C 
ATOM     21  C   UNL     1      -3.218   9.445  17.778  0.00  0.00    +0.000 C 
ENDBRANCH  16  18
ENDBRANCH   4  14
TORSDOF 4
ENDMDL
MODEL 4
REMARK VINA RESULT:      -6.6      0.576      1.136
REMARK  Name = 
REMARK  8 active torsions:
REMARK  status: ('A' for Active; 'I' for Inactive)
REMARK    1  A    between atoms: C_1  and  O_2
REMARK    2  A    between atoms: O_2  and  C_3
REMARK    3  A    between atoms: C_6  and  C_7
REMARK    4  A    between atoms: C_10  and  C_11
REMARK    5  A    between atoms: N_13  and  C_14
REMARK    6  A    between atoms: C_14  and  C_15
REMARK    7  A    between atoms: C_14  and  C_16
REMARK    8  A    between atoms: C_14  and  C_17
REMARK                            x       y       z     vdW  Elec       q    Type
REMARK                         _______ _______ _______ _____ _____    ______ ____
ROOT
ATOM      1  C   UNL     1       2.279   8.202  18.456  0.00  0.00    +0.000 C 
ATOM      2  N   UNL     1       2.407   8.870  17.354  0.00  0.00    +0.000 NA
ATOM      3  O   UNL     1       1.633  10.049  17.466  0.00  0.00    +0.000 OA
ATOM      4  C   UNL     1       1.068  10.124  18.773  0.00  0.00    +0.000 C 
ATOM      5  C   UNL     1       1.441   8.850  19.494  0.00  0.00    +0.000 C 
ENDROOT
BRANCH   1   9
ATOM      6  C   UNL     1       4.045   4.339  19.073  0.00  0.00    +0.000 A 
ATOM      7  C   UNL     1       4.394   5.113  17.965  0.00  0.00    +0.000 A 
ATOM      8  C   UNL     1       3.831   6.379  17.776  0.00  0.00    +0.000 A 
ATOM      9  C   UNL     1       2.898   6.875  18.689  0.00  0.00    +0.000 A 
ATOM     10  C   UNL     1       2.537   6.092  19.793  0.00  0.00    +0.000 A 
ATOM     11  C   UNL     1       3.106   4.827  19.981  0.00  0.00    +0.000 A 
BRANCH   6  13
ATOM     12  C   UNL     1       4.143   2.241  20.154  0.00  0.00    +0.000 C 
ATOM     13  O   UNL     1       4.643   3.112  19.145  0.00  0.00    +0.000 OA
ENDBRANCH   6  13
ENDBRANCH   1   9
BRANCH   4  14
ATOM     14  C   UNL     1      -0.452  10.320  18.760  0.00  0.00    +0.000 C 
ATOM     15  O   UNL     1      -1.084  10.454  19.805  0.00  0.00    +0.000 OA
ATOM     16  N   UNL     1      -1.024  10.433  17.507  0.00  0.00    +0.000 N 
ATOM     17  H   UNL     1      -0.453  10.144  16.721  0.00  0.00    +0.000 HD
BRANCH  16  18
ATOM     18  C   UNL     1      -2.466  10.661  17.293  0.00  0.00    +0.000 C 
ATOM     19  C   UNL     1      -2.938  11.889  18.093  0.00  0.00    +0.000 C 
ATOM     20  C   UNL     1      -2.718  10.935  15.799  0.00  0.00    +0.000 C 
ATOM     21  C   UNL     1      -3.285   9.424  17.693  0.00  0.00    +0.000 C 
ENDBRANCH  16  18
ENDBRANCH   4  14
TORSDOF 4
ENDMDL
MODEL 5
REMARK VINA RESULT:      -6.5      4.417      8.280
REMARK  Name = 
REMARK  8 active torsions:
REMARK  status: ('A' for Active; 'I' for Inactive)
REMARK    1  A    between atoms: C_1  and  O_2
REMARK    2  A    between atoms: O_2  and  C_3
REMARK    3  A    between atoms: C_6  and  C_7
REMARK    4  A    between atoms: C_10  and  C_11
REMARK    5  A    between atoms: N_13  and  C_14
REMARK    6  A    between atoms: C_14  and  C_15
REMARK    7  A    between atoms: C_14  and  C_16
REMARK    8  A    between atoms: C_14  and  C_17
REMARK                            x       y       z     vdW  Elec       q    Type
REMARK                         _______ _______ _______ _____ _____    ______ ____
ROOT
ATOM      1  C   UNL     1       4.754   5.144  17.143  0.00  0.00    +0.000 C 
ATOM      2  N   UNL     1       4.646   3.854  17.125  0.00  0.00    +0.000 NA
ATOM      3  O   UNL     1       5.653   3.343  16.274  0.00  0.00    +0.000 OA
ATOM      4  C   UNL     1       6.476   4.414  15.816  0.00  0.00    +0.000 C 
ATOM      5  C   UNL     1       5.877   5.696  16.347  0.00  0.00    +0.000 C 
ENDROOT
BRANCH   1   9
ATOM      6  C   UNL     1       2.123   7.772  19.286  0.00  0.00    +0.000 A 
ATOM      7  C   UNL     1       2.704   8.173  18.081  0.00  0.00    +0.000 A 
ATOM      8  C   UNL     1       3.546   7.308  17.375  0.00  0.00    +0.000 A 
ATOM      9  C   UNL     1       3.827   6.037  17.881  0.00  0.00    +0.000 A 
ATOM     10  C   UNL     1       3.256   5.641  19.097  0.00  0.00    +0.000 A 
ATOM     11  C   UNL     1       2.410   6.507  19.798  0.00  0.00    +0.000 A 
BRANCH   6  13
ATOM     12  C   UNL     1       1.052   9.871  19.129  0.00  0.00    +0.000 C 
ATOM     13  O   UNL     1       1.334   8.706  19.897  0.00  0.00    +0.000 OA
ENDBRANCH   6  13
ENDBRANCH   1   9
BRANCH   4  14
ATOM     14  C   UNL     1       6.606   4.462  14.289  0.00  0.00    +0.000 C 
ATOM     15  O   UNL     1       7.289   5.321  13.737  0.00  0.00    +0.000 OA
ATOM     16  N   UNL     1       5.992   3.426  13.610  0.00  0.00    +0.000 N 
ATOM     17  H   UNL     1       5.324   2.873  14.136  0.00  0.00    +0.000 HD
BRANCH  16  18
ATOM     18  C   UNL     1       6.038   3.281  12.143  0.00  0.00    +0.000 C 
ATOM     19  C   UNL     1       7.118   4.203  11.548  0.00  0.00    +0.000 C 
ATOM     20  C   UNL     1       6.399   1.827  11.790  0.00  0.00    +0.000 C 
ATOM     21  C   UNL     1       4.671   3.596  11.515  0.00  0.00    +0.000 C 
ENDBRANCH  16  18
ENDBRANCH   4  14
TORSDOF 4
ENDMDL
MODEL 6
REMARK VINA RESULT:      -6.5      4.436      8.281
REMARK  Name = 
REMARK  8 active torsions:
REMARK  status: ('A' for Active; 'I' for Inactive)
REMARK    1  A    between atoms: C_1  and  O_2
REMARK    2  A    between atoms: O_2  and  C_3
REMARK    3  A    between atoms: C_6  and  C_7
REMARK    4  A    between atoms: C_10  and  C_11
REMARK    5  A    between atoms: N_13  and  C_14
REMARK    6  A    between atoms: C_14  and  C_15
REMARK    7  A    between atoms: C_14  and  C_16
REMARK    8  A    between atoms: C_14  and  C_17
REMARK                            x       y       z     vdW  Elec       q    Type
REMARK                         _______ _______ _______ _____ _____    ______ ____
ROOT
ATOM      1  C   UNL     1       4.774   5.271  17.108  0.00  0.00    +0.000 C 
ATOM      2  N   UNL     1       4.619   3.985  17.105  0.00  0.00    +0.000 NA
ATOM      3  O   UNL     1       5.613   3.428  16.267  0.00  0.00    +0.000 OA
ATOM      4  C   UNL     1       6.478   4.462  15.803  0.00  0.00    +0.000 C 
ATOM      5  C   UNL     1       5.922   5.771  16.313  0.00  0.00    +0.000 C 
ENDROOT
BRANCH   1   9
ATOM      6  C   UNL     1       2.126   7.933  19.187  0.00  0.00    +0.000 A 
ATOM      7  C   UNL     1       2.418   6.669  19.706  0.00  0.00    +0.000 A 
ATOM      8  C   UNL     1       3.295   5.811  19.036  0.00  0.00    +0.000 A 
ATOM      9  C   UNL     1       3.876   6.206  17.828  0.00  0.00    +0.000 A 
ATOM     10  C   UNL     1       3.572   7.468  17.302  0.00  0.00    +0.000 A 
ATOM     11  C   UNL     1       2.697   8.325  17.977  0.00  0.00    +0.000 A 
BRANCH   6  13
ATOM     12  C   UNL     1       1.151   8.345  21.299  0.00  0.00    +0.000 C 
ATOM     13  O   UNL     1       1.242   8.676  19.917  0.00  0.00    +0.000 OA
ENDBRANCH   6  13
ENDBRANCH   1   9
BRANCH   4  14
ATOM     14  C   UNL     1       6.620   4.486  14.276  0.00  0.00    +0.000 C 
ATOM     15  O   UNL     1       7.335   5.315  13.718  0.00  0.00    +0.000 OA
ATOM     16  N   UNL     1       5.976   3.463  13.606  0.00  0.00    +0.000 N 
ATOM     17  H   UNL     1       5.286   2.940  14.133  0.00  0.00    +0.000 HD
BRANCH  16  18
ATOM     18  C   UNL     1       6.027   3.298  12.141  0.00  0.00    +0.000 C 
ATOM     19  C   UNL     1       7.122   4.196  11.539  0.00  0.00    +0.000 C 
ATOM     20  C   UNL     1       6.369   1.834  11.809  0.00  0.00    +0.000 C 
ATOM     21  C   UNL     1       4.667   3.624  11.502  0.00  0.00    +0.000 C 
ENDBRANCH  16  18
ENDBRANCH   4  14
TORSDOF 4
ENDMDL
MODEL 7
REMARK VINA RESULT:      -6.5      2.860      7.816
REMARK  Name = 
REMARK  8 active torsions:
REMARK  status: ('A' for Active; 'I' for Inactive)
REMARK    1  A    between atoms: C_1  and  O_2
REMARK    2  A    between atoms: O_2  and  C_3
REMARK    3  A    between atoms: C_6  and  C_7
REMARK    4  A    between atoms: C_10  and  C_11
REMARK    5  A    between atoms: N_13  and  C_14
REMARK    6  A    between atoms: C_14  and  C_15
REMARK    7  A    between atoms: C_14  and  C_16
REMARK    8  A    between atoms: C_14  and  C_17
REMARK                            x       y       z     vdW  Elec       q    Type
REMARK                         _______ _______ _______ _____ _____    ______ ____
ROOT
ATOM      1  C   UNL     1       2.233   7.175  19.384  0.00  0.00    +0.000 C 
ATOM      2  N   UNL     1       2.204   7.102  18.091  0.00  0.00    +0.000 NA
ATOM      3  O   UNL     1       2.941   5.959  17.702  0.00  0.00    +0.000 OA
ATOM      4  C   UNL     1       3.369   5.252  18.863  0.00  0.00    +0.000 C 
ATOM      5  C   UNL     1       2.948   6.068  20.064  0.00  0.00    +0.000 C 
ENDROOT
BRANCH   1   9
ATOM      6  C   UNL     1       0.405  10.330  21.648  0.00  0.00    +0.000 A 
ATOM      7  C   UNL     1       0.878   9.179  22.283  0.00  0.00    +0.000 A 
ATOM      8  C   UNL     1       1.490   8.161  21.545  0.00  0.00    +0.000 A 
ATOM      9  C   UNL     1       1.618   8.279  20.159  0.00  0.00    +0.000 A 
ATOM     10  C   UNL     1       1.130   9.427  19.522  0.00  0.00    +0.000 A 
ATOM     11  C   UNL     1       0.522  10.446  20.264  0.00  0.00    +0.000 A 
BRANCH   6  13
ATOM     12  C   UNL     1      -0.632  12.444  21.832  0.00  0.00    +0.000 C 
ATOM     13  O   UNL     1      -0.191  11.248  22.466  0.00  0.00    +0.000 OA
ENDBRANCH   6  13
ENDBRANCH   1   9
BRANCH   4  14
ATOM     14  C   UNL     1       4.879   4.987  18.884  0.00  0.00    +0.000 C 
ATOM     15  O   UNL     1       5.336   3.956  19.371  0.00  0.00    +0.000 OA
ATOM     16  N   UNL     1       5.654   5.931  18.235  0.00  0.00    +0.000 N 
ATOM     17  H   UNL     1       5.205   6.813  18.018  0.00  0.00    +0.000 HD
BRANCH  16  18
ATOM     18  C   UNL     1       7.121   5.830  18.117  0.00  0.00    +0.000 C 
ATOM     19  C   UNL     1       7.506   4.634  17.229  0.00  0.00    +0.000 C 
ATOM     20  C   UNL     1       7.664   7.112  17.460  0.00  0.00    +0.000 C 
ATOM     21  C   UNL     1       7.776   5.693  19.501  0.00  0.00    +0.000 C 
ENDBRANCH  16  18
ENDBRANCH   4  14
TORSDOF 4
ENDMDL
MODEL 8
REMARK VINA RESULT:      -6.5      0.541      1.122
REMARK  Name = 
REMARK  8 active torsions:
REMARK  status: ('A' for Active; 'I' for Inactive)
REMARK    1  A    between atoms: C_1  and  O_2
REMARK    2  A    between atoms: O_2  and  C_3
REMARK    3  A    between atoms: C_6  and  C_7
REMARK    4  A    between atoms: C_10  and  C_11
REMARK    5  A    between atoms: N_13  and  C_14
REMARK    6  A    between atoms: C_14  and  C_15
REMARK    7  A    between atoms: C_14  and  C_16
REMARK    8  A    between atoms: C_14  and  C_17
REMARK                            x       y       z     vdW  Elec       q    Type
REMARK                         _______ _______ _______ _____ _____    ______ ____
ROOT
ATOM      1  C   UNL     1       2.273   7.944  18.433  0.00  0.00    +0.000 C 
ATOM      2  N   UNL     1       2.484   8.647  17.367  0.00  0.00    +0.000 NA
ATOM      3  O   UNL     1       1.813   9.883  17.519  0.00  0.00    +0.000 OA
ATOM      4  C   UNL     1       1.228   9.948  18.818  0.00  0.00    +0.000 C 
ATOM      5  C   UNL     1       1.471   8.615  19.485  0.00  0.00    +0.000 C 
ENDROOT
BRANCH   1   9
ATOM      6  C   UNL     1       3.689   3.919  18.898  0.00  0.00    +0.000 A 
ATOM      7  C   UNL     1       4.263   4.772  17.952  0.00  0.00    +0.000 A 
ATOM      8  C   UNL     1       3.812   6.088  17.815  0.00  0.00    +0.000 A 
ATOM      9  C   UNL     1       2.768   6.558  18.616  0.00  0.00    +0.000 A 
ATOM     10  C   UNL     1       2.184   5.698  19.554  0.00  0.00    +0.000 A 
ATOM     11  C   UNL     1       2.641   4.382  19.691  0.00  0.00    +0.000 A 
BRANCH   6  13
ATOM     12  C   UNL     1       4.532   2.152  20.220  0.00  0.00    +0.000 C 
ATOM     13  O   UNL     1       4.197   2.650  18.929  0.00  0.00    +0.000 OA
ENDBRANCH   6  13
ENDBRANCH   1   9
BRANCH   4  14
ATOM     14  C   UNL     1      -0.269  10.279  18.786  0.00  0.00    +0.000 C 
ATOM     15  O   UNL     1      -0.866  10.619  19.804  0.00  0.00    +0.000 OA
ATOM     16  N   UNL     1      -0.853  10.260  17.532  0.00  0.00    +0.000 N 
ATOM     17  H   UNL     1      -0.325   9.810  16.793  0.00  0.00    +0.000 HD
BRANCH  16  18
ATOM     18  C   UNL     1      -2.272  10.586  17.296  0.00  0.00    +0.000 C 
ATOM     19  C   UNL     1      -3.177   9.472  17.852  0.00  0.00    +0.000 C 
ATOM     20  C   UNL     1      -2.618  11.896  18.026  0.00  0.00    +0.000 C 
ATOM     21  C   UNL     1      -2.548  10.791  15.798  0.00  0.00    +0.000 C 
ENDBRANCH  16  18
ENDBRANCH   4  14
TORSDOF 4
ENDMDL
MODEL 9
REMARK VINA RESULT:      -6.5      2.805      7.685
REMARK  Name = 
REMARK  8 active torsions:
REMARK  status: ('A' for Active; 'I' for Inactive)
REMARK    1  A    between atoms: C_1  and  O_2
REMARK    2  A    between atoms: O_2  and  C_3
REMARK    3  A    between atoms: C_6  and  C_7
REMARK    4  A    between atoms: C_10  and  C_11
REMARK    5  A    between atoms: N_13  and  C_14
REMARK    6  A    between atoms: C_14  and  C_15
REMARK    7  A    between atoms: C_14  and  C_16
REMARK    8  A    between atoms: C_14  and  C_17
REMARK                            x       y       z     vdW  Elec       q    Type
REMARK                         _______ _______ _______ _____ _____    ______ ____
ROOT
ATOM      1  C   UNL     1       1.918   8.048  19.362  0.00  0.00    +0.000 C 
ATOM      2  N   UNL     1       2.241   8.486  18.187  0.00  0.00    +0.000 NA
ATOM      3  O   UNL     1       2.977   7.472  17.530  0.00  0.00    +0.000 OA
ATOM      4  C   UNL     1       3.021   6.308  18.353  0.00  0.00    +0.000 C 
ATOM      5  C   UNL     1       2.343   6.658  19.657  0.00  0.00    +0.000 C 
ENDROOT
BRANCH   1   9
ATOM      6  C   UNL     1      -0.220  10.333  22.299  0.00  0.00    +0.000 A 
ATOM      7  C   UNL     1       0.612   9.279  22.683  0.00  0.00    +0.000 A 
ATOM      8  C   UNL     1       1.321   8.548  21.726  0.00  0.00    +0.000 A 
ATOM      9  C   UNL     1       1.191   8.856  20.370  0.00  0.00    +0.000 A 
ATOM     10  C   UNL     1       0.346   9.905  19.984  0.00  0.00    +0.000 A 
ATOM     11  C   UNL     1      -0.359  10.637  20.945  0.00  0.00    +0.000 A 
BRANCH   6  13
ATOM     12  C   UNL     1      -1.914  11.856  22.922  0.00  0.00    +0.000 C 
ATOM     13  O   UNL     1      -0.878  10.964  23.318  0.00  0.00    +0.000 OA
ENDBRANCH   6  13
ENDBRANCH   1   9
BRANCH   4  14
ATOM     14  C   UNL     1       4.446   5.797  18.596  0.00  0.00    +0.000 C 
ATOM     15  O   UNL     1       4.661   4.848  19.346  0.00  0.00    +0.000 OA
ATOM     16  N   UNL     1       5.430   6.410  17.843  0.00  0.00    +0.000 N 
ATOM     17  H   UNL     1       5.177   7.280  17.388  0.00  0.00    +0.000 HD
BRANCH  16  18
ATOM     18  C   UNL     1       6.854   6.031  17.911  0.00  0.00    +0.000 C 
ATOM     19  C   UNL     1       7.743   7.206  17.467  0.00  0.00    +0.000 C 
ATOM     20  C   UNL     1       7.214   5.678  19.366  0.00  0.00    +0.000 C 
ATOM     21  C   UNL     1       7.137   4.796  17.040  0.00  0.00    +0.000 C 
ENDBRANCH  16  18
ENDBRANCH   4  14
TORSDOF 4
ENDMDL
