MODEL 1
REMARK VINA RESULT:      -7.4      0.000      0.000
REMARK  Name = 
REMARK  9 active torsions:
REMARK  status: ('A' for Active; 'I' for Inactive)
REMARK    1  A    between atoms: C_2  and  S_5
REMARK    2  A    between atoms: S_5  and  C_8
REMARK    3  A    between atoms: C_10  and  C_11
REMARK    4  A    between atoms: C_11  and  C_12
REMARK    5  A    between atoms: N_19  and  C_20
REMARK    6  A    between atoms: C_20  and  C_21
REMARK    7  A    between atoms: C_28  and  C_29
REMARK    8  A    between atoms: C_29  and  C_30
REMARK    9  A    between atoms: C_30  and  O_32
REMARK                            x       y       z     vdW  Elec       q    Type
REMARK                         _______ _______ _______ _____ _____    ______ ____
ROOT
ATOM      1  C   UNL     1       2.167   8.138  18.253  0.00  0.00    +0.000 A 
ATOM      2  C   UNL     1       3.460   8.200  17.766  0.00  0.00    +0.000 A 
ATOM      3  C   UNL     1       4.188   7.032  17.428  0.00  0.00    +0.000 A 
ATOM      4  C   UNL     1       3.660   5.757  17.788  0.00  0.00    +0.000 A 
ATOM      5  C   UNL     1       2.319   5.733  18.279  0.00  0.00    +0.000 A 
ATOM      6  C   UNL     1       1.569   6.911  18.470  0.00  0.00    +0.000 A 
ATOM      7  C   UNL     1       1.948   4.397  18.366  0.00  0.00    +0.000 A 
ATOM      8  C   UNL     1       3.014   3.602  18.074  0.00  0.00    +0.000 A 
ATOM      9  N   UNL     1       4.085   4.399  17.725  0.00  0.00    +0.000 N 
ATOM     10  C   UNL     1       2.638   2.147  18.024  0.00  0.00    +0.000 C 
ATOM     11  C   UNL     1       1.237   2.211  18.772  0.00  0.00    +0.000 C 
ATOM     12  C   UNL     1       0.700   3.645  18.590  0.00  0.00    +0.000 C 
ENDROOT
BRANCH   1  13
ATOM     13  S   UNL     1       1.195   9.630  18.344  0.00  0.00    +0.000 S 
ATOM     14  O   UNL     1      -0.008   9.412  17.566  0.00  0.00    +0.000 OA
ATOM     15  O   UNL     1       2.088  10.723  18.045  0.00  0.00    +0.000 OA
BRANCH  13  17
ATOM     16  H   UNL     1       1.657   9.636  20.641  0.00  0.00    +0.000 HD
ATOM     17  C   UNL     1       0.743   9.740  20.050  0.00  0.00    +0.000 C 
ATOM     18  H   UNL     1       0.054   8.927  20.295  0.00  0.00    +0.000 HD
ATOM     19  H   UNL     1       0.284  10.711  20.238  0.00  0.00    +0.000 HD
ENDBRANCH  13  17
ENDBRANCH   1  13
BRANCH   3  20
ATOM     20  C   UNL     1       5.371   7.282  16.567  0.00  0.00    +0.000 C 
ATOM     21  C   UNL     1       6.704   7.496  17.278  0.00  0.00    +0.000 C 
ATOM     22  O   UNL     1       5.286   7.273  15.345  0.00  0.00    +0.000 OA
ENDBRANCH   3  20
BRANCH   9  23
ATOM     23  C   UNL     1       5.372   3.856  17.271  0.00  0.00    +0.000 C 
BRANCH  23  24
ATOM     24  C   UNL     1       5.733   4.070  15.806  0.00  0.00    +0.000 A 
ATOM     25  C   UNL     1       4.872   3.803  14.733  0.00  0.00    +0.000 A 
ATOM     26  C   UNL     1       5.337   3.846  13.410  0.00  0.00    +0.000 A 
ATOM     27  C   UNL     1       6.663   4.179  13.142  0.00  0.00    +0.000 A 
ATOM     28 CL   UNL     1       7.267   4.089  11.533  0.00  0.00    +0.000 Cl
ATOM     29  C   UNL     1       7.508   4.550  14.182  0.00  0.00    +0.000 A 
ATOM     30  C   UNL     1       7.042   4.504  15.501  0.00  0.00    +0.000 A 
ENDBRANCH  23  24
ENDBRANCH   9  23
BRANCH  10  31
ATOM     31  C   UNL     1       3.553   1.143  18.713  0.00  0.00    +0.000 C 
BRANCH  31  32
ATOM     32  C   UNL     1       4.107   1.725  20.000  0.00  0.00    +0.000 C 
ATOM     33  O   UNL     1       3.481   2.399  20.804  0.00  0.00    +0.000 OA
BRANCH  32  34
ATOM     34  O   UNL     1       5.409   1.407  20.197  0.00  0.00    +0.000 OA
ATOM     35  H   UNL     1       6.025   1.890  19.622  0.00  0.00    +0.000 HD
ENDBRANCH  32  34
ENDBRANCH  31  32
ENDBRANCH  10  31
TORSDOF 8
ENDMDL
MODEL 2
REMARK VINA RESULT:      -7.3      6.347      9.765
REMARK  Name = 
REMARK  9 active torsions:
REMARK  status: ('A' for Active; 'I' for Inactive)
REMARK    1  A    between atoms: C_2  and  S_5
REMARK    2  A    between atoms: S_5  and  C_8
REMARK    3  A    between atoms: C_10  and  C_11
REMARK    4  A    between atoms: C_11  and  C_12
REMARK    5  A    between atoms: N_19  and  C_20
REMARK    6  A    between atoms: C_20  and  C_21
REMARK    7  A    between atoms: C_28  and  C_29
REMARK    8  A    between atoms: C_29  and  C_30
REMARK    9  A    between atoms: C_30  and  O_32
REMARK                            x       y       z     vdW  Elec       q    Type
REMARK                         _______ _______ _______ _____ _____    ______ ____
ROOT
ATOM      1  C   UNL     1      -1.696  14.200  23.283  0.00  0.00    +0.000 A 
ATOM      2  C   UNL     1      -0.375  14.055  22.899  0.00  0.00    +0.000 A 
ATOM      3  C   UNL     1      -0.018  13.514  21.639  0.00  0.00    +0.000 A 
ATOM      4  C   UNL     1      -1.028  12.915  20.829  0.00  0.00    +0.000 A 
ATOM      5  C   UNL     1      -2.380  13.094  21.253  0.00  0.00    +0.000 A 
ATOM      6  C   UNL     1      -2.709  13.765  22.448  0.00  0.00    +0.000 A 
ATOM      7  C   UNL     1      -3.188  12.619  20.227  0.00  0.00    +0.000 A 
ATOM      8  C   UNL     1      -2.417  12.054  19.257  0.00  0.00    +0.000 A 
ATOM      9  N   UNL     1      -1.088  12.206  19.595  0.00  0.00    +0.000 N 
ATOM     10  C   UNL     1      -3.228  11.640  18.060  0.00  0.00    +0.000 C 
ATOM     11  C   UNL     1      -4.681  11.677  18.701  0.00  0.00    +0.000 C 
ATOM     12  C   UNL     1      -4.621  12.661  19.887  0.00  0.00    +0.000 C 
ENDROOT
BRANCH   1  13
ATOM     13  S   UNL     1      -2.087  15.179  24.720  0.00  0.00    +0.000 S 
ATOM     14  O   UNL     1      -0.878  15.293  25.509  0.00  0.00    +0.000 OA
ATOM     15  O   UNL     1      -3.295  14.623  25.282  0.00  0.00    +0.000 OA
BRANCH  13  17
ATOM     16  H   UNL     1      -1.586  17.131  23.525  0.00  0.00    +0.000 HD
ATOM     17  C   UNL     1      -2.472  16.773  24.057  0.00  0.00    +0.000 C 
ATOM     18  H   UNL     1      -2.710  17.457  24.874  0.00  0.00    +0.000 HD
ATOM     19  H   UNL     1      -3.310  16.681  23.365  0.00  0.00    +0.000 HD
ENDBRANCH  13  17
ENDBRANCH   1  13
BRANCH   3  20
ATOM     20  C   UNL     1       1.383  13.795  21.233  0.00  0.00    +0.000 C 
ATOM     21  C   UNL     1       1.742  15.255  20.977  0.00  0.00    +0.000 C 
ATOM     22  O   UNL     1       2.216  12.901  21.152  0.00  0.00    +0.000 OA
ENDBRANCH   3  20
BRANCH   9  23
ATOM     23  C   UNL     1       0.014  11.782  18.722  0.00  0.00    +0.000 C 
BRANCH  23  24
ATOM     24  C   UNL     1       0.574  10.383  18.948  0.00  0.00    +0.000 A 
ATOM     25  C   UNL     1       0.592   9.729  20.188  0.00  0.00    +0.000 A 
ATOM     26  C   UNL     1       1.290   8.524  20.355  0.00  0.00    +0.000 A 
ATOM     27  C   UNL     1       1.960   7.945  19.280  0.00  0.00    +0.000 A 
ATOM     28 CL   UNL     1       2.935   6.547  19.522  0.00  0.00    +0.000 Cl
ATOM     29  C   UNL     1       1.870   8.519  18.017  0.00  0.00    +0.000 A 
ATOM     30  C   UNL     1       1.175   9.722  17.853  0.00  0.00    +0.000 A 
ENDBRANCH  23  24
ENDBRANCH   9  23
BRANCH  10  31
ATOM     31  C   UNL     1      -2.961  10.270  17.450  0.00  0.00    +0.000 C 
BRANCH  31  32
ATOM     32  C   UNL     1      -2.948  10.356  15.935  0.00  0.00    +0.000 C 
ATOM     33  O   UNL     1      -2.808   9.413  15.170  0.00  0.00    +0.000 OA
BRANCH  32  34
ATOM     34  O   UNL     1      -3.127  11.620  15.483  0.00  0.00    +0.000 OA
ATOM     35  H   UNL     1      -3.948  11.748  14.980  0.00  0.00    +0.000 HD
ENDBRANCH  32  34
ENDBRANCH  31  32
ENDBRANCH  10  31
TORSDOF 8
ENDMDL
MODEL 3
REMARK VINA RESULT:      -7.1      6.681      9.940
REMARK  Name = 
REMARK  9 active torsions:
REMARK  status: ('A' for Active; 'I' for Inactive)
REMARK    1  A    between atoms: C_2  and  S_5
REMARK    2  A    between atoms: S_5  and  C_8
REMARK    3  A    between atoms: C_10  and  C_11
REMARK    4  A    between atoms: C_11  and  C_12
REMARK    5  A    between atoms: N_19  and  C_20
REMARK    6  A    between atoms: C_20  and  C_21
REMARK    7  A    between atoms: C_28  and  C_29
REMARK    8  A    between atoms: C_29  and  C_30
REMARK    9  A    between atoms: C_30  and  O_32
REMARK                            x       y       z     vdW  Elec       q    Type
REMARK                         _______ _______ _______ _____ _____    ______ ____
ROOT
ATOM      1  C   UNL     1      -1.997  14.391  23.245  0.00  0.00    +0.000 A 
ATOM      2  C   UNL     1      -0.672  14.324  22.854  0.00  0.00    +0.000 A 
ATOM      3  C   UNL     1      -0.289  13.772  21.605  0.00  0.00    +0.000 A 
ATOM      4  C   UNL     1      -1.264  13.085  20.822  0.00  0.00    +0.000 A 
ATOM      5  C   UNL     1      -2.621  13.185  21.253  0.00  0.00    +0.000 A 
ATOM      6  C   UNL     1      -2.985  13.867  22.433  0.00  0.00    +0.000 A 
ATOM      7  C   UNL     1      -3.404  12.629  20.249  0.00  0.00    +0.000 A 
ATOM      8  C   UNL     1      -2.605  12.089  19.288  0.00  0.00    +0.000 A 
ATOM      9  N   UNL     1      -1.286  12.339  19.609  0.00  0.00    +0.000 N 
ATOM     10  C   UNL     1      -3.395  11.589  18.110  0.00  0.00    +0.000 C 
ATOM     11  C   UNL     1      -4.842  11.548  18.764  0.00  0.00    +0.000 C 
ATOM     12  C   UNL     1      -4.839  12.567  19.921  0.00  0.00    +0.000 C 
ENDROOT
BRANCH   1  13
ATOM     13  S   UNL     1      -2.441  15.383  24.658  0.00  0.00    +0.000 S 
ATOM     14  O   UNL     1      -3.093  14.511  25.613  0.00  0.00    +0.000 OA
ATOM     15  O   UNL     1      -3.106  16.557  24.145  0.00  0.00    +0.000 OA
BRANCH  13  17
ATOM     16  H   UNL     1      -0.483  15.037  25.898  0.00  0.00    +0.000 HD
ATOM     17  C   UNL     1      -0.884  15.883  25.333  0.00  0.00    +0.000 C 
ATOM     18  H   UNL     1      -1.037  16.732  26.003  0.00  0.00    +0.000 HD
ATOM     19  H   UNL     1      -0.207  16.143  24.519  0.00  0.00    +0.000 HD
ENDBRANCH  13  17
ENDBRANCH   1  13
BRANCH   3  20
ATOM     20  C   UNL     1       1.087  14.133  21.179  0.00  0.00    +0.000 C 
ATOM     21  C   UNL     1       1.227  15.366  20.292  0.00  0.00    +0.000 C 
ATOM     22  O   UNL     1       2.062  13.496  21.558  0.00  0.00    +0.000 OA
ENDBRANCH   3  20
BRANCH   9  23
ATOM     23  C   UNL     1      -0.165  11.963  18.737  0.00  0.00    +0.000 C 
BRANCH  23  24
ATOM     24  C   UNL     1       0.586  10.684  19.090  0.00  0.00    +0.000 A 
ATOM     25  C   UNL     1       1.343   9.936  18.178  0.00  0.00    +0.000 A 
ATOM     26  C   UNL     1       1.849   8.675  18.529  0.00  0.00    +0.000 A 
ATOM     27  C   UNL     1       1.624   8.157  19.802  0.00  0.00    +0.000 A 
ATOM     28 CL   UNL     1       2.119   6.552  20.181  0.00  0.00    +0.000 Cl
ATOM     29  C   UNL     1       0.966   8.925  20.757  0.00  0.00    +0.000 A 
ATOM     30  C   UNL     1       0.460  10.181  20.404  0.00  0.00    +0.000 A 
ENDBRANCH  23  24
ENDBRANCH   9  23
BRANCH  10  31
ATOM     31  C   UNL     1      -3.042  10.223  17.536  0.00  0.00    +0.000 C 
BRANCH  31  32
ATOM     32  C   UNL     1      -2.726  10.333  16.056  0.00  0.00    +0.000 C 
ATOM     33  O   UNL     1      -2.904   9.457  15.223  0.00  0.00    +0.000 OA
BRANCH  32  34
ATOM     34  O   UNL     1      -2.220  11.545  15.720  0.00  0.00    +0.000 OA
ATOM     35  H   UNL     1      -2.860  12.273  15.790  0.00  0.00    +0.000 HD
ENDBRANCH  32  34
ENDBRANCH  31  32
ENDBRANCH  10  31
TORSDOF 8
ENDMDL
MODEL 4
REMARK VINA RESULT:      -6.9      6.522     10.131
REMARK  Name = 
REMARK  9 active torsions:
REMARK  status: ('A' for Active; 'I' for Inactive)
REMARK    1  A    between atoms: C_2  and  S_5
REMARK    2  A    between atoms: S_5  and  C_8
REMARK    3  A    between atoms: C_10  and  C_11
REMARK    4  A    between atoms: C_11  and  C_12
REMARK    5  A    between atoms: N_19  and  C_20
REMARK    6  A    between atoms: C_20  and  C_21
REMARK    7  A    between atoms: C_28  and  C_29
REMARK    8  A    between atoms: C_29  and  C_30
REMARK    9  A    between atoms: C_30  and  O_32
REMARK                            x       y       z     vdW  Elec       q    Type
REMARK                         _______ _______ _______ _____ _____    ______ ____
ROOT
ATOM      1  C   UNL     1      -5.290  12.022  19.522  0.00  0.00    +0.000 A 
ATOM      2  C   UNL     1      -4.592  11.470  18.463  0.00  0.00    +0.000 A 
ATOM      3  C   UNL     1      -3.177  11.525  18.391  0.00  0.00    +0.000 A 
ATOM      4  C   UNL     1      -2.466  12.341  19.319  0.00  0.00    +0.000 A 
ATOM      5  C   UNL     1      -3.219  12.886  20.403  0.00  0.00    +0.000 A 
ATOM      6  C   UNL     1      -4.610  12.693  20.522  0.00  0.00    +0.000 A 
ATOM      7  C   UNL     1      -2.304  13.460  21.278  0.00  0.00    +0.000 A 
ATOM      8  C   UNL     1      -1.055  13.405  20.741  0.00  0.00    +0.000 A 
ATOM      9  N   UNL     1      -1.115  12.736  19.535  0.00  0.00    +0.000 N 
ATOM     10  C   UNL     1      -0.004  13.893  21.700  0.00  0.00    +0.000 C 
ATOM     11  C   UNL     1      -0.933  14.650  22.743  0.00  0.00    +0.000 C 
ATOM     12  C   UNL     1      -2.330  14.006  22.646  0.00  0.00    +0.000 C 
ENDROOT
BRANCH   1  13
ATOM     13  S   UNL     1      -7.018  11.638  19.725  0.00  0.00    +0.000 S 
ATOM     14  O   UNL     1      -7.158  10.200  19.619  0.00  0.00    +0.000 OA
ATOM     15  O   UNL     1      -7.744  12.525  18.847  0.00  0.00    +0.000 OA
BRANCH  13  17
ATOM     16  H   UNL     1      -8.452  12.199  21.491  0.00  0.00    +0.000 HD
ATOM     17  C   UNL     1      -7.366  12.110  21.394  0.00  0.00    +0.000 C 
ATOM     18  H   UNL     1      -6.899  13.075  21.601  0.00  0.00    +0.000 HD
ATOM     19  H   UNL     1      -6.992  11.340  22.070  0.00  0.00    +0.000 HD
ENDBRANCH  13  17
ENDBRANCH   1  13
BRANCH   3  20
ATOM     20  C   UNL     1      -2.581  10.563  17.429  0.00  0.00    +0.000 C 
ATOM     21  C   UNL     1      -2.689  10.918  15.949  0.00  0.00    +0.000 C 
ATOM     22  O   UNL     1      -1.995   9.557  17.811  0.00  0.00    +0.000 OA
ENDBRANCH   3  20
BRANCH   9  23
ATOM     23  C   UNL     1       0.075  12.429  18.731  0.00  0.00    +0.000 C 
BRANCH  23  24
ATOM     24  C   UNL     1       0.766  11.097  19.001  0.00  0.00    +0.000 A 
ATOM     25  C   UNL     1       1.540  10.403  18.060  0.00  0.00    +0.000 A 
ATOM     26  C   UNL     1       1.986   9.099  18.319  0.00  0.00    +0.000 A 
ATOM     27  C   UNL     1       1.685   8.481  19.530  0.00  0.00    +0.000 A 
ATOM     28 CL   UNL     1       2.109   6.832  19.786  0.00  0.00    +0.000 Cl
ATOM     29  C   UNL     1       1.010   9.186  20.520  0.00  0.00    +0.000 A 
ATOM     30  C   UNL     1       0.563  10.486  20.258  0.00  0.00    +0.000 A 
ENDBRANCH  23  24
ENDBRANCH   9  23
BRANCH  10  31
ATOM     31  C   UNL     1       1.068  14.838  21.172  0.00  0.00    +0.000 C 
BRANCH  31  32
ATOM     32  C   UNL     1       2.442  14.210  21.303  0.00  0.00    +0.000 C 
ATOM     33  O   UNL     1       2.957  13.450  20.496  0.00  0.00    +0.000 OA
BRANCH  32  34
ATOM     34  O   UNL     1       3.084  14.592  22.433  0.00  0.00    +0.000 OA
ATOM     35  H   UNL     1       3.396  15.511  22.419  0.00  0.00    +0.000 HD
ENDBRANCH  32  34
ENDBRANCH  31  32
ENDBRANCH  10  31
TORSDOF 8
ENDMDL
MODEL 5
REMARK VINA RESULT:      -6.9      6.271      9.690
REMARK  Name = 
REMARK  9 active torsions:
REMARK  status: ('A' for Active; 'I' for Inactive)
REMARK    1  A    between atoms: C_2  and  S_5
REMARK    2  A    between atoms: S_5  and  C_8
REMARK    3  A    between atoms: C_10  and  C_11
REMARK    4  A    between atoms: C_11  and  C_12
REMARK    5  A    between atoms: N_19  and  C_20
REMARK    6  A    between atoms: C_20  and  C_21
REMARK    7  A    between atoms: C_28  and  C_29
REMARK    8  A    between atoms: C_29  and  C_30
REMARK    9  A    between atoms: C_30  and  O_32
REMARK                            x       y       z     vdW  Elec       q    Type
REMARK                         _______ _______ _______ _____ _____    ______ ____
ROOT
ATOM      1  C   UNL     1      -2.564  13.628  22.992  0.00  0.00    +0.000 A 
ATOM      2  C   UNL     1      -1.197  13.561  22.789  0.00  0.00    +0.000 A 
ATOM      3  C   UNL     1      -0.645  13.126  21.558  0.00  0.00    +0.000 A 
ATOM      4  C   UNL     1      -1.505  12.551  20.576  0.00  0.00    +0.000 A 
ATOM      5  C   UNL     1      -2.909  12.649  20.817  0.00  0.00    +0.000 A 
ATOM      6  C   UNL     1      -3.430  13.219  21.996  0.00  0.00    +0.000 A 
ATOM      7  C   UNL     1      -3.546  12.221  19.658  0.00  0.00    +0.000 A 
ATOM      8  C   UNL     1      -2.624  11.757  18.771  0.00  0.00    +0.000 A 
ATOM      9  N   UNL     1      -1.362  11.932  19.301  0.00  0.00    +0.000 N 
ATOM     10  C   UNL     1      -3.242  11.402  17.446  0.00  0.00    +0.000 C 
ATOM     11  C   UNL     1      -4.769  11.339  17.878  0.00  0.00    +0.000 C 
ATOM     12  C   UNL     1      -4.918  12.235  19.123  0.00  0.00    +0.000 C 
ENDROOT
BRANCH   1  13
ATOM     13  S   UNL     1      -3.193  14.486  24.422  0.00  0.00    +0.000 S 
ATOM     14  O   UNL     1      -3.720  13.487  25.330  0.00  0.00    +0.000 OA
ATOM     15  O   UNL     1      -4.025  15.557  23.928  0.00  0.00    +0.000 OA
BRANCH  13  17
ATOM     16  H   UNL     1      -0.886  14.636  24.804  0.00  0.00    +0.000 HD
ATOM     17  C   UNL     1      -1.753  15.202  25.157  0.00  0.00    +0.000 C 
ATOM     18  H   UNL     1      -1.824  15.124  26.244  0.00  0.00    +0.000 HD
ATOM     19  H   UNL     1      -1.670  16.244  24.844  0.00  0.00    +0.000 HD
ENDBRANCH  13  17
ENDBRANCH   1  13
BRANCH   3  20
ATOM     20  C   UNL     1       0.784  13.486  21.373  0.00  0.00    +0.000 C 
ATOM     21  C   UNL     1       1.112  14.975  21.306  0.00  0.00    +0.000 C 
ATOM     22  O   UNL     1       1.658  12.630  21.321  0.00  0.00    +0.000 OA
ENDBRANCH   3  20
BRANCH   9  23
ATOM     23  C   UNL     1      -0.132  11.613  18.565  0.00  0.00    +0.000 C 
BRANCH  23  24
ATOM     24  C   UNL     1       0.493  10.247  18.824  0.00  0.00    +0.000 A 
ATOM     25  C   UNL     1       0.508   9.609  20.072  0.00  0.00    +0.000 A 
ATOM     26  C   UNL     1       1.263   8.444  20.275  0.00  0.00    +0.000 A 
ATOM     27  C   UNL     1       1.993   7.889  19.226  0.00  0.00    +0.000 A 
ATOM     28 CL   UNL     1       3.031   6.546  19.513  0.00  0.00    +0.000 Cl
ATOM     29  C   UNL     1       1.910   8.443  17.954  0.00  0.00    +0.000 A 
ATOM     30  C   UNL     1       1.159   9.607  17.755  0.00  0.00    +0.000 A 
ENDBRANCH  23  24
ENDBRANCH   9  23
BRANCH  10  31
ATOM     31  C   UNL     1      -2.830  10.091  16.789  0.00  0.00    +0.000 C 
BRANCH  31  32
ATOM     32  C   UNL     1      -3.155  10.113  15.308  0.00  0.00    +0.000 C 
ATOM     33  O   UNL     1      -2.341  10.052  14.398  0.00  0.00    +0.000 OA
BRANCH  32  34
ATOM     34  O   UNL     1      -4.486  10.195  15.067  0.00  0.00    +0.000 OA
ATOM     35  H   UNL     1      -4.721  10.154  14.126  0.00  0.00    +0.000 HD
ENDBRANCH  32  34
ENDBRANCH  31  32
ENDBRANCH  10  31
TORSDOF 8
ENDMDL
MODEL 6
REMARK VINA RESULT:      -6.8      6.395     10.213
REMARK  Name = 
REMARK  9 active torsions:
REMARK  status: ('A' for Active; 'I' for Inactive)
REMARK    1  A    between atoms: C_2  and  S_5
REMARK    2  A    between atoms: S_5  and  C_8
REMARK    3  A    between atoms: C_10  and  C_11
REMARK    4  A    between atoms: C_11  and  C_12
REMARK    5  A    between atoms: N_19  and  C_20
REMARK    6  A    between atoms: C_20  and  C_21
REMARK    7  A    between atoms: C_28  and  C_29
REMARK    8  A    between atoms: C_29  and  C_30
REMARK    9  A    between atoms: C_30  and  O_32
REMARK                            x       y       z     vdW  Elec       q    Type
REMARK                         _______ _______ _______ _____ _____    ______ ____
ROOT
ATOM      1  C   UNL     1      -5.342  12.349  19.629  0.00  0.00    +0.000 A 
ATOM      2  C   UNL     1      -4.767  11.719  18.540  0.00  0.00    +0.000 A 
ATOM      3  C   UNL     1      -3.364  11.546  18.431  0.00  0.00    +0.000 A 
ATOM      4  C   UNL     1      -2.509  12.213  19.359  0.00  0.00    +0.000 A 
ATOM      5  C   UNL     1      -3.139  12.844  20.474  0.00  0.00    +0.000 A 
ATOM      6  C   UNL     1      -4.540  12.874  20.625  0.00  0.00    +0.000 A 
ATOM      7  C   UNL     1      -2.125  13.239  21.337  0.00  0.00    +0.000 A 
ATOM      8  C   UNL     1      -0.913  12.998  20.766  0.00  0.00    +0.000 A 
ATOM      9  N   UNL     1      -1.107  12.379  19.547  0.00  0.00    +0.000 N 
ATOM     10  C   UNL     1       0.224  13.285  21.707  0.00  0.00    +0.000 C 
ATOM     11  C   UNL     1      -0.546  14.154  22.791  0.00  0.00    +0.000 C 
ATOM     12  C   UNL     1      -2.031  13.747  22.717  0.00  0.00    +0.000 C 
ENDROOT
BRANCH   1  13
ATOM     13  S   UNL     1      -7.105  12.243  19.868  0.00  0.00    +0.000 S 
ATOM     14  O   UNL     1      -7.376  10.998  20.556  0.00  0.00    +0.000 OA
ATOM     15  O   UNL     1      -7.713  12.539  18.593  0.00  0.00    +0.000 OA
BRANCH  13  17
ATOM     16  H   UNL     1      -7.033  13.328  21.944  0.00  0.00    +0.000 HD
ATOM     17  C   UNL     1      -7.465  13.578  20.971  0.00  0.00    +0.000 C 
ATOM     18  H   UNL     1      -8.548  13.685  21.068  0.00  0.00    +0.000 HD
ATOM     19  H   UNL     1      -7.014  14.494  20.587  0.00  0.00    +0.000 HD
ENDBRANCH  13  17
ENDBRANCH   1  13
BRANCH   3  20
ATOM     20  C   UNL     1      -2.953  10.526  17.433  0.00  0.00    +0.000 C 
ATOM     21  C   UNL     1      -2.588  11.037  16.043  0.00  0.00    +0.000 C 
ATOM     22  O   UNL     1      -2.871   9.340  17.728  0.00  0.00    +0.000 OA
ENDBRANCH   3  20
BRANCH   9  23
ATOM     23  C   UNL     1      -0.001  11.905  18.706  0.00  0.00    +0.000 C 
BRANCH  23  24
ATOM     24  C   UNL     1       0.519  10.498  18.977  0.00  0.00    +0.000 A 
ATOM     25  C   UNL     1       0.426   9.846  20.214  0.00  0.00    +0.000 A 
ATOM     26  C   UNL     1       1.091   8.632  20.439  0.00  0.00    +0.000 A 
ATOM     27  C   UNL     1       1.838   8.041  19.422  0.00  0.00    +0.000 A 
ATOM     28 CL   UNL     1       2.770   6.630  19.744  0.00  0.00    +0.000 Cl
ATOM     29  C   UNL     1       1.860   8.614  18.156  0.00  0.00    +0.000 A 
ATOM     30  C   UNL     1       1.198   9.828  17.935  0.00  0.00    +0.000 A 
ENDBRANCH  23  24
ENDBRANCH   9  23
BRANCH  10  31
ATOM     31  C   UNL     1       1.423  14.057  21.173  0.00  0.00    +0.000 C 
BRANCH  31  32
ATOM     32  C   UNL     1       0.966  15.211  20.301  0.00  0.00    +0.000 C 
ATOM     33  O   UNL     1       0.368  16.204  20.688  0.00  0.00    +0.000 OA
BRANCH  32  34
ATOM     34  O   UNL     1       1.306  15.047  18.999  0.00  0.00    +0.000 OA
ATOM     35  H   UNL     1       0.846  14.313  18.561  0.00  0.00    +0.000 HD
ENDBRANCH  32  34
ENDBRANCH  31  32
ENDBRANCH  10  31
TORSDOF 8
ENDMDL
MODEL 7
REMARK VINA RESULT:      -6.8      6.290     10.105
REMARK  Name = 
REMARK  9 active torsions:
REMARK  status: ('A' for Active; 'I' for Inactive)
REMARK    1  A    between atoms: C_2  and  S_5
REMARK    2  A    between atoms: S_5  and  C_8
REMARK    3  A    between atoms: C_10  and  C_11
REMARK    4  A    between atoms: C_11  and  C_12
REMARK    5  A    between atoms: N_19  and  C_20
REMARK    6  A    between atoms: C_20  and  C_21
REMARK    7  A    between atoms: C_28  and  C_29
REMARK    8  A    between atoms: C_29  and  C_30
REMARK    9  A    between atoms: C_30  and  O_32
REMARK                            x       y       z     vdW  Elec       q    Type
REMARK                         _______ _______ _______ _____ _____    ______ ____
ROOT
ATOM      1  C   UNL     1      -5.173  12.014  19.179  0.00  0.00    +0.000 A 
ATOM      2  C   UNL     1      -4.469  11.494  18.108  0.00  0.00    +0.000 A 
ATOM      3  C   UNL     1      -3.053  11.442  18.100  0.00  0.00    +0.000 A 
ATOM      4  C   UNL     1      -2.327  12.122  19.122  0.00  0.00    +0.000 A 
ATOM      5  C   UNL     1      -3.087  12.636  20.216  0.00  0.00    +0.000 A 
ATOM      6  C   UNL     1      -4.494  12.545  20.259  0.00  0.00    +0.000 A 
ATOM      7  C   UNL     1      -2.176  13.063  21.173  0.00  0.00    +0.000 A 
ATOM      8  C   UNL     1      -0.910  12.952  20.686  0.00  0.00    +0.000 A 
ATOM      9  N   UNL     1      -0.962  12.389  19.427  0.00  0.00    +0.000 N 
ATOM     10  C   UNL     1       0.128  13.276  21.725  0.00  0.00    +0.000 C 
ATOM     11  C   UNL     1      -0.790  14.018  22.789  0.00  0.00    +0.000 C 
ATOM     12  C   UNL     1      -2.226  13.498  22.580  0.00  0.00    +0.000 C 
ENDROOT
BRANCH   1  13
ATOM     13  S   UNL     1      -6.934  11.753  19.277  0.00  0.00    +0.000 S 
ATOM     14  O   UNL     1      -7.150  10.347  19.547  0.00  0.00    +0.000 OA
ATOM     15  O   UNL     1      -7.509  12.387  18.114  0.00  0.00    +0.000 OA
BRANCH  13  17
ATOM     16  H   UNL     1      -7.703  11.959  21.480  0.00  0.00    +0.000 HD
ATOM     17  C   UNL     1      -7.422  12.676  20.704  0.00  0.00    +0.000 C 
ATOM     18  H   UNL     1      -8.283  13.301  20.454  0.00  0.00    +0.000 HD
ATOM     19  H   UNL     1      -6.582  13.284  21.043  0.00  0.00    +0.000 HD
ENDBRANCH  13  17
ENDBRANCH   1  13
BRANCH   3  20
ATOM     20  C   UNL     1      -2.486  10.516  17.086  0.00  0.00    +0.000 C 
ATOM     21  C   UNL     1      -2.742  10.862  15.623  0.00  0.00    +0.000 C 
ATOM     22  O   UNL     1      -1.810   9.548  17.412  0.00  0.00    +0.000 OA
ENDBRANCH   3  20
BRANCH   9  23
ATOM     23  C   UNL     1       0.239  12.054  18.650  0.00  0.00    +0.000 C 
BRANCH  23  24
ATOM     24  C   UNL     1       0.909  10.719  18.957  0.00  0.00    +0.000 A 
ATOM     25  C   UNL     1       1.683   9.994  18.040  0.00  0.00    +0.000 A 
ATOM     26  C   UNL     1       2.110   8.691  18.333  0.00  0.00    +0.000 A 
ATOM     27  C   UNL     1       1.789   8.104  19.555  0.00  0.00    +0.000 A 
ATOM     28 CL   UNL     1       2.188   6.456  19.852  0.00  0.00    +0.000 Cl
ATOM     29  C   UNL     1       1.113   8.840  20.521  0.00  0.00    +0.000 A 
ATOM     30  C   UNL     1       0.686  10.140  20.226  0.00  0.00    +0.000 A 
ENDBRANCH  23  24
ENDBRANCH   9  23
BRANCH  10  31
ATOM     31  C   UNL     1       1.293  14.172  21.325  0.00  0.00    +0.000 C 
BRANCH  31  32
ATOM     32  C   UNL     1       0.802  15.346  20.500  0.00  0.00    +0.000 C 
ATOM     33  O   UNL     1       0.122  16.273  20.915  0.00  0.00    +0.000 OA
BRANCH  32  34
ATOM     34  O   UNL     1       1.211  15.284  19.209  0.00  0.00    +0.000 OA
ATOM     35  H   UNL     1       0.826  14.546  18.708  0.00  0.00    +0.000 HD
ENDBRANCH  32  34
ENDBRANCH  31  32
ENDBRANCH  10  31
TORSDOF 8
ENDMDL
MODEL 8
REMARK VINA RESULT:      -6.8      1.264      1.665
REMARK  Name = 
REMARK  9 active torsions:
REMARK  status: ('A' for Active; 'I' for Inactive)
REMARK    1  A    between atoms: C_2  and  S_5
REMARK    2  A    between atoms: S_5  and  C_8
REMARK    3  A    between atoms: C_10  and  C_11
REMARK    4  A    between atoms: C_11  and  C_12
REMARK    5  A    between atoms: N_19  and  C_20
REMARK    6  A    between atoms: C_20  and  C_21
REMARK    7  A    between atoms: C_28  and  C_29
REMARK    8  A    between atoms: C_29  and  C_30
REMARK    9  A    between atoms: C_30  and  O_32
REMARK                            x       y       z     vdW  Elec       q    Type
REMARK                         _______ _______ _______ _____ _____    ______ ____
ROOT
ATOM      1  C   UNL     1       2.171   8.533  18.520  0.00  0.00    +0.000 A 
ATOM      2  C   UNL     1       3.415   8.494  17.918  0.00  0.00    +0.000 A 
ATOM      3  C   UNL     1       4.202   7.314  17.903  0.00  0.00    +0.000 A 
ATOM      4  C   UNL     1       3.798   6.201  18.699  0.00  0.00    +0.000 A 
ATOM      5  C   UNL     1       2.504   6.275  19.296  0.00  0.00    +0.000 A 
ATOM      6  C   UNL     1       1.684   7.416  19.172  0.00  0.00    +0.000 A 
ATOM      7  C   UNL     1       2.240   5.024  19.839  0.00  0.00    +0.000 A 
ATOM      8  C   UNL     1       3.338   4.228  19.716  0.00  0.00    +0.000 A 
ATOM      9  N   UNL     1       4.318   4.918  19.032  0.00  0.00    +0.000 N 
ATOM     10  C   UNL     1       3.069   2.819  20.168  0.00  0.00    +0.000 C 
ATOM     11  C   UNL     1       1.727   3.057  20.986  0.00  0.00    +0.000 C 
ATOM     12  C   UNL     1       1.073   4.328  20.408  0.00  0.00    +0.000 C 
ENDROOT
BRANCH   1  13
ATOM     13  S   UNL     1       1.099   9.926  18.222  0.00  0.00    +0.000 S 
ATOM     14  O   UNL     1      -0.040   9.445  17.469  0.00  0.00    +0.000 OA
ATOM     15  O   UNL     1       1.935  10.987  17.713  0.00  0.00    +0.000 OA
BRANCH  13  17
ATOM     16  H   UNL     1       1.184  11.205  20.183  0.00  0.00    +0.000 HD
ATOM     17  C   UNL     1       0.545  10.389  19.836  0.00  0.00    +0.000 C 
ATOM     18  H   UNL     1       0.643   9.535  20.511  0.00  0.00    +0.000 HD
ATOM     19  H   UNL     1      -0.491  10.725  19.778  0.00  0.00    +0.000 HD
ENDBRANCH  13  17
ENDBRANCH   1  13
BRANCH   3  20
ATOM     20  C   UNL     1       5.295   7.327  16.898  0.00  0.00    +0.000 C 
ATOM     21  C   UNL     1       6.701   7.611  17.419  0.00  0.00    +0.000 C 
ATOM     22  O   UNL     1       5.082   7.078  15.718  0.00  0.00    +0.000 OA
ENDBRANCH   3  20
BRANCH   9  23
ATOM     23  C   UNL     1       5.604   4.318  18.655  0.00  0.00    +0.000 C 
BRANCH  23  24
ATOM     24  C   UNL     1       5.851   4.092  17.168  0.00  0.00    +0.000 A 
ATOM     25  C   UNL     1       7.069   4.346  16.521  0.00  0.00    +0.000 A 
ATOM     26  C   UNL     1       7.165   4.293  15.123  0.00  0.00    +0.000 A 
ATOM     27  C   UNL     1       6.051   3.961  14.355  0.00  0.00    +0.000 A 
ATOM     28 CL   UNL     1       6.134   4.039  12.637  0.00  0.00    +0.000 Cl
ATOM     29  C   UNL     1       4.861   3.603  14.977  0.00  0.00    +0.000 A 
ATOM     30  C   UNL     1       4.767   3.660  16.372  0.00  0.00    +0.000 A 
ENDBRANCH  23  24
ENDBRANCH   9  23
BRANCH  10  31
ATOM     31  C   UNL     1       4.105   2.137  21.052  0.00  0.00    +0.000 C 
BRANCH  31  32
ATOM     32  C   UNL     1       4.891   1.112  20.257  0.00  0.00    +0.000 C 
ATOM     33  O   UNL     1       5.782   0.400  20.696  0.00  0.00    +0.000 OA
BRANCH  32  34
ATOM     34  O   UNL     1       4.494   1.039  18.963  0.00  0.00    +0.000 OA
ATOM     35  H   UNL     1       4.442   1.901  18.517  0.00  0.00    +0.000 HD
ENDBRANCH  32  34
ENDBRANCH  31  32
ENDBRANCH  10  31
TORSDOF 8
ENDMDL
MODEL 9
REMARK VINA RESULT:      -6.7      6.571     10.409
REMARK  Name = 
REMARK  9 active torsions:
REMARK  status: ('A' for Active; 'I' for Inactive)
REMARK    1  A    between atoms: C_2  and  S_5
REMARK    2  A    between atoms: S_5  and  C_8
REMARK    3  A    between atoms: C_10  and  C_11
REMARK    4  A    between atoms: C_11  and  C_12
REMARK    5  A    between atoms: N_19  and  C_20
REMARK    6  A    between atoms: C_20  and  C_21
REMARK    7  A    between atoms: C_28  and  C_29
REMARK    8  A    between atoms: C_29  and  C_30
REMARK    9  A    between atoms: C_30  and  O_32
REMARK                            x       y       z     vdW  Elec       q    Type
REMARK                         _______ _______ _______ _____ _____    ______ ____
ROOT
ATOM      1  C   UNL     1      -5.547  13.125  19.957  0.00  0.00    +0.000 A 
ATOM      2  C   UNL     1      -4.813  13.846  20.882  0.00  0.00    +0.000 A 
ATOM      3  C   UNL     1      -3.402  13.734  20.968  0.00  0.00    +0.000 A 
ATOM      4  C   UNL     1      -2.741  12.708  20.229  0.00  0.00    +0.000 A 
ATOM      5  C   UNL     1      -3.530  11.992  19.278  0.00  0.00    +0.000 A 
ATOM      6  C   UNL     1      -4.910  12.229  19.118  0.00  0.00    +0.000 A 
ATOM      7  C   UNL     1      -2.653  11.204  18.542  0.00  0.00    +0.000 A 
ATOM      8  C   UNL     1      -1.399  11.303  19.061  0.00  0.00    +0.000 A 
ATOM      9  N   UNL     1      -1.414  12.207  20.103  0.00  0.00    +0.000 N 
ATOM     10  C   UNL     1      -0.382  10.574  18.226  0.00  0.00    +0.000 C 
ATOM     11  C   UNL     1      -1.357   9.668  17.357  0.00  0.00    +0.000 C 
ATOM     12  C   UNL     1      -2.719  10.390  17.316  0.00  0.00    +0.000 C 
ENDROOT
BRANCH   1  13
ATOM     13  S   UNL     1      -7.255  13.549  19.675  0.00  0.00    +0.000 S 
ATOM     14  O   UNL     1      -7.716  14.285  20.834  0.00  0.00    +0.000 OA
ATOM     15  O   UNL     1      -7.915  12.339  19.248  0.00  0.00    +0.000 OA
BRANCH  13  17
ATOM     16  H   UNL     1      -6.840  15.624  18.668  0.00  0.00    +0.000 HD
ATOM     17  C   UNL     1      -7.195  14.658  18.298  0.00  0.00    +0.000 C 
ATOM     18  H   UNL     1      -8.199  14.772  17.883  0.00  0.00    +0.000 HD
ATOM     19  H   UNL     1      -6.504  14.267  17.551  0.00  0.00    +0.000 HD
ENDBRANCH  13  17
ENDBRANCH   1  13
BRANCH   3  20
ATOM     20  C   UNL     1      -2.750  14.840  21.714  0.00  0.00    +0.000 C 
ATOM     21  C   UNL     1      -2.754  16.212  21.046  0.00  0.00    +0.000 C 
ATOM     22  O   UNL     1      -2.272  14.666  22.828  0.00  0.00    +0.000 OA
ENDBRANCH   3  20
BRANCH   9  23
ATOM     23  C   UNL     1      -0.204  12.610  20.831  0.00  0.00    +0.000 C 
BRANCH  23  24
ATOM     24  C   UNL     1       0.765  13.533  20.100  0.00  0.00    +0.000 A 
ATOM     25  C   UNL     1       0.477  14.858  19.742  0.00  0.00    +0.000 A 
ATOM     26  C   UNL     1       1.343  15.582  18.910  0.00  0.00    +0.000 A 
ATOM     27  C   UNL     1       2.520  15.000  18.445  0.00  0.00    +0.000 A 
ATOM     28 CL   UNL     1       3.507  15.837  17.309  0.00  0.00    +0.000 Cl
ATOM     29  C   UNL     1       2.880  13.726  18.871  0.00  0.00    +0.000 A 
ATOM     30  C   UNL     1       2.012  13.005  19.699  0.00  0.00    +0.000 A 
ENDBRANCH  23  24
ENDBRANCH   9  23
BRANCH  10  31
ATOM     31  C   UNL     1       0.644   9.703  18.939  0.00  0.00    +0.000 C 
BRANCH  31  32
ATOM     32  C   UNL     1       1.752   9.297  17.986  0.00  0.00    +0.000 C 
ATOM     33  O   UNL     1       2.197   8.167  17.851  0.00  0.00    +0.000 OA
BRANCH  32  34
ATOM     34  O   UNL     1       2.218  10.339  17.255  0.00  0.00    +0.000 OA
ATOM     35  H   UNL     1       2.224  11.185  17.732  0.00  0.00    +0.000 HD
ENDBRANCH  32  34
ENDBRANCH  31  32
ENDBRANCH  10  31
TORSDOF 8
ENDMDL
