MODEL 1
REMARK VINA RESULT:      -7.5      0.000      0.000
REMARK  Name = 
REMARK  6 active torsions:
REMARK  status: ('A' for Active; 'I' for Inactive)
REMARK    1  A    between atoms: C_1  and  C_2
REMARK    2  A    between atoms: C_2  and  C_3
REMARK    3  A    between atoms: C_3  and  N_4
REMARK    4  A    between atoms: N_8  and  C_9
REMARK    5  A    between atoms: C_9  and  C_10
REMARK    6  A    between atoms: N_13  and  C_14
REMARK                            x       y       z     vdW  Elec       q    Type
REMARK                         _______ _______ _______ _____ _____    ______ ____
ROOT
ATOM      1  C   UNL     1       2.851   6.511  18.212  0.00  0.00    +0.000 C 
ENDROOT
BRANCH   1   6
ATOM      2  N   UNL     1       6.661   5.192  16.581  0.00  0.00    +0.000 N 
ATOM      3  C   UNL     1       6.478   4.149  17.574  0.00  0.00    +0.000 C 
ATOM      4  C   UNL     1       5.086   4.127  18.194  0.00  0.00    +0.000 C 
ATOM      5  C   UNL     1       4.840   5.363  19.061  0.00  0.00    +0.000 C 
ATOM      6  N   UNL     1       4.327   6.556  18.379  0.00  0.00    +0.000 NA
ATOM      7  C   UNL     1       4.913   6.821  17.047  0.00  0.00    +0.000 C 
ATOM      8  C   UNL     1       6.404   6.526  16.876  0.00  0.00    +0.000 C 
ATOM      9  O   UNL     1       7.238   7.413  16.708  0.00  0.00    +0.000 OA
BRANCH   2  10
ATOM     10  C   UNL     1       7.035   4.844  15.220  0.00  0.00    +0.000 C 
BRANCH  10  12
ATOM     11  C   UNL     1       6.418   3.786  13.044  0.00  0.00    +0.000 C 
ATOM     12  C   UNL     1       5.883   4.354  14.354  0.00  0.00    +0.000 C 
ENDBRANCH  10  12
ENDBRANCH   2  10
ENDBRANCH   1   6
BRANCH   1  13
ATOM     13  C   UNL     1       2.191   7.809  18.583  0.00  0.00    +0.000 A 
ATOM     14  C   UNL     1       2.043   8.951  17.772  0.00  0.00    +0.000 A 
ATOM     15  C   UNL     1       1.376   9.856  18.558  0.00  0.00    +0.000 A 
ATOM     16  N   UNL     1       1.124   9.245  19.767  0.00  0.00    +0.000 N 
ATOM     17  N   UNL     1       1.651   7.990  19.799  0.00  0.00    +0.000 NA
BRANCH  16  18
ATOM     18  C   UNL     1       0.414   9.786  20.878  0.00  0.00    +0.000 A 
ATOM     19  C   UNL     1      -0.312  10.980  20.753  0.00  0.00    +0.000 A 
ATOM     20  C   UNL     1      -1.006  11.503  21.847  0.00  0.00    +0.000 A 
ATOM     21  C   UNL     1      -0.978  10.844  23.074  0.00  0.00    +0.000 A 
ATOM     22  C   UNL     1      -0.262   9.654  23.208  0.00  0.00    +0.000 A 
ATOM     23  C   UNL     1       0.430   9.121  22.113  0.00  0.00    +0.000 A 
ENDBRANCH  16  18
ENDBRANCH   1  13
TORSDOF 5
ENDMDL
MODEL 2
REMARK VINA RESULT:      -7.5      0.153      1.014
REMARK  Name = 
REMARK  6 active torsions:
REMARK  status: ('A' for Active; 'I' for Inactive)
REMARK    1  A    between atoms: C_1  and  C_2
REMARK    2  A    between atoms: C_2  and  C_3
REMARK    3  A    between atoms: C_3  and  N_4
REMARK    4  A    between atoms: N_8  and  C_9
REMARK    5  A    between atoms: C_9  and  C_10
REMARK    6  A    between atoms: N_13  and  C_14
REMARK                            x       y       z     vdW  Elec       q    Type
REMARK                         _______ _______ _______ _____ _____    ______ ____
ROOT
ATOM      1  C   UNL     1       2.869   6.430  18.380  0.00  0.00    +0.000 C 
ENDROOT
BRANCH   1   6
ATOM      2  N   UNL     1       6.671   5.183  16.675  0.00  0.00    +0.000 N 
ATOM      3  C   UNL     1       6.558   4.175  17.712  0.00  0.00    +0.000 C 
ATOM      4  C   UNL     1       5.189   4.128  18.379  0.00  0.00    +0.000 C 
ATOM      5  C   UNL     1       4.925   5.388  19.206  0.00  0.00    +0.000 C 
ATOM      6  N   UNL     1       4.347   6.534  18.495  0.00  0.00    +0.000 NA
ATOM      7  C   UNL     1       4.879   6.767  17.136  0.00  0.00    +0.000 C 
ATOM      8  C   UNL     1       6.374   6.519  16.926  0.00  0.00    +0.000 C 
ATOM      9  O   UNL     1       7.169   7.427  16.696  0.00  0.00    +0.000 OA
BRANCH   2  10
ATOM     10  C   UNL     1       7.014   4.795  15.316  0.00  0.00    +0.000 C 
BRANCH  10  12
ATOM     11  C   UNL     1       6.295   3.782  13.150  0.00  0.00    +0.000 C 
ATOM     12  C   UNL     1       5.820   4.441  14.440  0.00  0.00    +0.000 C 
ENDBRANCH  10  12
ENDBRANCH   2  10
ENDBRANCH   1   6
BRANCH   1  13
ATOM     13  C   UNL     1       2.177   7.730  18.675  0.00  0.00    +0.000 A 
ATOM     14  C   UNL     1       1.956   8.798  17.784  0.00  0.00    +0.000 A 
ATOM     15  C   UNL     1       1.286   9.740  18.522  0.00  0.00    +0.000 A 
ATOM     16  N   UNL     1       1.104   9.220  19.785  0.00  0.00    +0.000 N 
ATOM     17  N   UNL     1       1.677   7.990  19.894  0.00  0.00    +0.000 NA
BRANCH  16  18
ATOM     18  C   UNL     1       0.418   9.823  20.879  0.00  0.00    +0.000 A 
ATOM     19  C   UNL     1       0.280   9.145  22.100  0.00  0.00    +0.000 A 
ATOM     20  C   UNL     1      -0.393   9.743  23.169  0.00  0.00    +0.000 A 
ATOM     21  C   UNL     1      -0.938  11.018  23.027  0.00  0.00    +0.000 A 
ATOM     22  C   UNL     1      -0.803  11.702  21.818  0.00  0.00    +0.000 A 
ATOM     23  C   UNL     1      -0.123  11.111  20.746  0.00  0.00    +0.000 A 
ENDBRANCH  16  18
ENDBRANCH   1  13
TORSDOF 5
ENDMDL
MODEL 3
REMARK VINA RESULT:      -7.1      1.113      1.702
REMARK  Name = 
REMARK  6 active torsions:
REMARK  status: ('A' for Active; 'I' for Inactive)
REMARK    1  A    between atoms: C_1  and  C_2
REMARK    2  A    between atoms: C_2  and  C_3
REMARK    3  A    between atoms: C_3  and  N_4
REMARK    4  A    between atoms: N_8  and  C_9
REMARK    5  A    between atoms: C_9  and  C_10
REMARK    6  A    between atoms: N_13  and  C_14
REMARK                            x       y       z     vdW  Elec       q    Type
REMARK                         _______ _______ _______ _____ _____    ______ ____
ROOT
ATOM      1  C   UNL     1       3.089   6.881  17.683  0.00  0.00    +0.000 C 
ENDROOT
BRANCH   1   6
ATOM      2  N   UNL     1       6.363   4.810  15.705  0.00  0.00    +0.000 N 
ATOM      3  C   UNL     1       5.664   3.654  16.235  0.00  0.00    +0.000 C 
ATOM      4  C   UNL     1       4.282   3.972  16.793  0.00  0.00    +0.000 C 
ATOM      5  C   UNL     1       4.371   4.828  18.057  0.00  0.00    +0.000 C 
ATOM      6  N   UNL     1       4.437   6.282  17.865  0.00  0.00    +0.000 NA
ATOM      7  C   UNL     1       5.275   6.731  16.733  0.00  0.00    +0.000 C 
ATOM      8  C   UNL     1       6.565   5.950  16.474  0.00  0.00    +0.000 C 
ATOM      9  O   UNL     1       7.679   6.436  16.655  0.00  0.00    +0.000 OA
BRANCH   2  10
ATOM     10  C   UNL     1       6.788   4.829  14.314  0.00  0.00    +0.000 C 
BRANCH  10  12
ATOM     11  C   UNL     1       6.806   3.727  12.074  0.00  0.00    +0.000 C 
ATOM     12  C   UNL     1       6.118   3.784  13.434  0.00  0.00    +0.000 C 
ENDBRANCH  10  12
ENDBRANCH   2  10
ENDBRANCH   1   6
BRANCH   1  13
ATOM     13  C   UNL     1       2.396   7.142  18.990  0.00  0.00    +0.000 A 
ATOM     14  C   UNL     1       2.263   6.255  20.076  0.00  0.00    +0.000 A 
ATOM     15  C   UNL     1       1.562   6.958  21.022  0.00  0.00    +0.000 A 
ATOM     16  N   UNL     1       1.326   8.215  20.509  0.00  0.00    +0.000 N 
ATOM     17  N   UNL     1       1.813   8.326  19.242  0.00  0.00    +0.000 NA
BRANCH  16  18
ATOM     18  C   UNL     1       0.671   9.304  21.154  0.00  0.00    +0.000 A 
ATOM     19  C   UNL     1      -0.081   9.099  22.321  0.00  0.00    +0.000 A 
ATOM     20  C   UNL     1      -0.720  10.172  22.949  0.00  0.00    +0.000 A 
ATOM     21  C   UNL     1      -0.618  11.455  22.416  0.00  0.00    +0.000 A 
ATOM     22  C   UNL     1       0.130  11.671  21.259  0.00  0.00    +0.000 A 
ATOM     23  C   UNL     1       0.779  10.601  20.629  0.00  0.00    +0.000 A 
ENDBRANCH  16  18
ENDBRANCH   1  13
TORSDOF 5
ENDMDL
MODEL 4
REMARK VINA RESULT:      -7.0      2.058      3.987
REMARK  Name = 
REMARK  6 active torsions:
REMARK  status: ('A' for Active; 'I' for Inactive)
REMARK    1  A    between atoms: C_1  and  C_2
REMARK    2  A    between atoms: C_2  and  C_3
REMARK    3  A    between atoms: C_3  and  N_4
REMARK    4  A    between atoms: N_8  and  C_9
REMARK    5  A    between atoms: C_9  and  C_10
REMARK    6  A    between atoms: N_13  and  C_14
REMARK                            x       y       z     vdW  Elec       q    Type
REMARK                         _______ _______ _______ _____ _____    ______ ____
ROOT
ATOM      1  C   UNL     1       3.581   3.626  17.179  0.00  0.00    +0.000 C 
ENDROOT
BRANCH   1   6
ATOM      2  N   UNL     1       7.220   6.006  17.309  0.00  0.00    +0.000 N 
ATOM      3  C   UNL     1       6.830   6.280  15.938  0.00  0.00    +0.000 C 
ATOM      4  C   UNL     1       5.423   5.809  15.592  0.00  0.00    +0.000 C 
ATOM      5  C   UNL     1       5.327   4.283  15.592  0.00  0.00    +0.000 C 
ATOM      6  N   UNL     1       5.037   3.641  16.880  0.00  0.00    +0.000 NA
ATOM      7  C   UNL     1       5.721   4.235  18.048  0.00  0.00    +0.000 C 
ATOM      8  C   UNL     1       7.156   4.722  17.838  0.00  0.00    +0.000 C 
ATOM      9  O   UNL     1       8.123   4.174  18.361  0.00  0.00    +0.000 OA
BRANCH   2  10
ATOM     10  C   UNL     1       7.602   7.098  18.190  0.00  0.00    +0.000 C 
BRANCH  10  12
ATOM     11  C   UNL     1       8.523   9.411  18.373  0.00  0.00    +0.000 C 
ATOM     12  C   UNL     1       7.718   8.452  17.504  0.00  0.00    +0.000 C 
ENDBRANCH  10  12
ENDBRANCH   2  10
ENDBRANCH   1   6
BRANCH   1  13
ATOM     13  C   UNL     1       3.201   4.628  18.233  0.00  0.00    +0.000 A 
ATOM     14  C   UNL     1       3.312   4.479  19.628  0.00  0.00    +0.000 A 
ATOM     15  C   UNL     1       2.845   5.660  20.147  0.00  0.00    +0.000 A 
ATOM     16  N   UNL     1       2.506   6.470  19.085  0.00  0.00    +0.000 N 
ATOM     17  N   UNL     1       2.696   5.827  17.899  0.00  0.00    +0.000 NA
BRANCH  16  18
ATOM     18  C   UNL     1       2.019   7.808  19.138  0.00  0.00    +0.000 A 
ATOM     19  C   UNL     1       1.395   8.298  20.295  0.00  0.00    +0.000 A 
ATOM     20  C   UNL     1       0.921   9.612  20.341  0.00  0.00    +0.000 A 
ATOM     21  C   UNL     1       1.059  10.444  19.232  0.00  0.00    +0.000 A 
ATOM     22  C   UNL     1       1.681   9.968  18.077  0.00  0.00    +0.000 A 
ATOM     23  C   UNL     1       2.165   8.655  18.029  0.00  0.00    +0.000 A 
ENDBRANCH  16  18
ENDBRANCH   1  13
TORSDOF 5
ENDMDL
MODEL 5
REMARK VINA RESULT:      -6.8      1.012      1.200
REMARK  Name = 
REMARK  6 active torsions:
REMARK  status: ('A' for Active; 'I' for Inactive)
REMARK    1  A    between atoms: C_1  and  C_2
REMARK    2  A    between atoms: C_2  and  C_3
REMARK    3  A    between atoms: C_3  and  N_4
REMARK    4  A    between atoms: N_8  and  C_9
REMARK    5  A    between atoms: C_9  and  C_10
REMARK    6  A    between atoms: N_13  and  C_14
REMARK                            x       y       z     vdW  Elec       q    Type
REMARK                         _______ _______ _______ _____ _____    ______ ____
ROOT
ATOM      1  C   UNL     1       2.518   7.743  17.410  0.00  0.00    +0.000 C 
ENDROOT
BRANCH   1   6
ATOM      2  N   UNL     1       5.526   4.609  17.190  0.00  0.00    +0.000 N 
ATOM      3  C   UNL     1       4.418   3.811  17.682  0.00  0.00    +0.000 C 
ATOM      4  C   UNL     1       3.076   4.531  17.642  0.00  0.00    +0.000 C 
ATOM      5  C   UNL     1       3.030   5.689  18.640  0.00  0.00    +0.000 C 
ATOM      6  N   UNL     1       3.541   6.983  18.174  0.00  0.00    +0.000 NA
ATOM      7  C   UNL     1       4.757   6.915  17.335  0.00  0.00    +0.000 C 
ATOM      8  C   UNL     1       5.804   5.866  17.716  0.00  0.00    +0.000 C 
ATOM      9  O   UNL     1       6.908   6.167  18.163  0.00  0.00    +0.000 OA
BRANCH   2  10
ATOM     10  C   UNL     1       6.319   4.139  16.065  0.00  0.00    +0.000 C 
BRANCH  10  12
ATOM     11  C   UNL     1       5.978   3.843  13.610  0.00  0.00    +0.000 C 
ATOM     12  C   UNL     1       6.035   4.852  14.751  0.00  0.00    +0.000 C 
ENDBRANCH  10  12
ENDBRANCH   2  10
ENDBRANCH   1   6
BRANCH   1  13
ATOM     13  C   UNL     1       2.010   8.939  18.164  0.00  0.00    +0.000 A 
ATOM     14  C   UNL     1       2.120  10.291  17.789  0.00  0.00    +0.000 A 
ATOM     15  C   UNL     1       1.500  10.987  18.796  0.00  0.00    +0.000 A 
ATOM     16  N   UNL     1       1.025  10.065  19.703  0.00  0.00    +0.000 N 
ATOM     17  N   UNL     1       1.363   8.798  19.333  0.00  0.00    +0.000 NA
BRANCH  16  18
ATOM     18  C   UNL     1       0.275  10.322  20.886  0.00  0.00    +0.000 A 
ATOM     19  C   UNL     1      -0.428  11.526  21.042  0.00  0.00    +0.000 A 
ATOM     20  C   UNL     1      -1.163  11.771  22.205  0.00  0.00    +0.000 A 
ATOM     21  C   UNL     1      -1.198  10.820  23.223  0.00  0.00    +0.000 A 
ATOM     22  C   UNL     1      -0.506   9.618  23.076  0.00  0.00    +0.000 A 
ATOM     23  C   UNL     1       0.226   9.363  21.910  0.00  0.00    +0.000 A 
ENDBRANCH  16  18
ENDBRANCH   1  13
TORSDOF 5
ENDMDL
MODEL 6
REMARK VINA RESULT:      -6.8      1.523      2.622
REMARK  Name = 
REMARK  6 active torsions:
REMARK  status: ('A' for Active; 'I' for Inactive)
REMARK    1  A    between atoms: C_1  and  C_2
REMARK    2  A    between atoms: C_2  and  C_3
REMARK    3  A    between atoms: C_3  and  N_4
REMARK    4  A    between atoms: N_8  and  C_9
REMARK    5  A    between atoms: C_9  and  C_10
REMARK    6  A    between atoms: N_13  and  C_14
REMARK                            x       y       z     vdW  Elec       q    Type
REMARK                         _______ _______ _______ _____ _____    ______ ____
ROOT
ATOM      1  C   UNL     1       5.029   5.009  19.259  0.00  0.00    +0.000 C 
ENDROOT
BRANCH   1   6
ATOM      2  N   UNL     1       6.050   5.108  15.032  0.00  0.00    +0.000 N 
ATOM      3  C   UNL     1       7.349   4.733  15.560  0.00  0.00    +0.000 C 
ATOM      4  C   UNL     1       7.325   4.340  17.032  0.00  0.00    +0.000 C 
ATOM      5  C   UNL     1       7.014   5.541  17.927  0.00  0.00    +0.000 C 
ATOM      6  N   UNL     1       5.596   5.837  18.163  0.00  0.00    +0.000 NA
ATOM      7  C   UNL     1       4.715   5.677  16.988  0.00  0.00    +0.000 C 
ATOM      8  C   UNL     1       5.283   6.101  15.632  0.00  0.00    +0.000 C 
ATOM      9  O   UNL     1       4.857   7.073  15.012  0.00  0.00    +0.000 OA
BRANCH   2  10
ATOM     10  C   UNL     1       5.483   4.382  13.907  0.00  0.00    +0.000 C 
BRANCH  10  12
ATOM     11  C   UNL     1       5.827   2.895  11.932  0.00  0.00    +0.000 C 
ATOM     12  C   UNL     1       6.511   3.810  12.941  0.00  0.00    +0.000 C 
ENDBRANCH  10  12
ENDBRANCH   2  10
ENDBRANCH   1   6
BRANCH   1  13
ATOM     13  C   UNL     1       3.691   5.510  19.724  0.00  0.00    +0.000 A 
ATOM     14  C   UNL     1       2.679   4.767  20.361  0.00  0.00    +0.000 A 
ATOM     15  C   UNL     1       1.669   5.668  20.585  0.00  0.00    +0.000 A 
ATOM     16  N   UNL     1       2.098   6.891  20.118  0.00  0.00    +0.000 N 
ATOM     17  N   UNL     1       3.335   6.794  19.558  0.00  0.00    +0.000 NA
BRANCH  16  18
ATOM     18  C   UNL     1       1.401   8.133  20.179  0.00  0.00    +0.000 A 
ATOM     19  C   UNL     1       1.422   9.020  19.092  0.00  0.00    +0.000 A 
ATOM     20  C   UNL     1       0.736  10.236  19.158  0.00  0.00    +0.000 A 
ATOM     21  C   UNL     1       0.030  10.579  20.309  0.00  0.00    +0.000 A 
ATOM     22  C   UNL     1      -0.000   9.702  21.394  0.00  0.00    +0.000 A 
ATOM     23  C   UNL     1       0.679   8.479  21.331  0.00  0.00    +0.000 A 
ENDBRANCH  16  18
ENDBRANCH   1  13
TORSDOF 5
ENDMDL
MODEL 7
REMARK VINA RESULT:      -6.7      2.437      3.538
REMARK  Name = 
REMARK  6 active torsions:
REMARK  status: ('A' for Active; 'I' for Inactive)
REMARK    1  A    between atoms: C_1  and  C_2
REMARK    2  A    between atoms: C_2  and  C_3
REMARK    3  A    between atoms: C_3  and  N_4
REMARK    4  A    between atoms: N_8  and  C_9
REMARK    5  A    between atoms: C_9  and  C_10
REMARK    6  A    between atoms: N_13  and  C_14
REMARK                            x       y       z     vdW  Elec       q    Type
REMARK                         _______ _______ _______ _____ _____    ______ ____
ROOT
ATOM      1  C   UNL     1       2.597   7.513  19.434  0.00  0.00    +0.000 C 
ENDROOT
BRANCH   1   6
ATOM      2  N   UNL     1       3.629   3.559  17.944  0.00  0.00    +0.000 N 
ATOM      3  C   UNL     1       4.840   4.259  17.557  0.00  0.00    +0.000 C 
ATOM      4  C   UNL     1       4.962   5.655  18.156  0.00  0.00    +0.000 C 
ATOM      5  C   UNL     1       3.912   6.606  17.578  0.00  0.00    +0.000 C 
ATOM      6  N   UNL     1       2.604   6.625  18.242  0.00  0.00    +0.000 NA
ATOM      7  C   UNL     1       2.096   5.305  18.673  0.00  0.00    +0.000 C 
ATOM      8  C   UNL     1       2.372   4.120  17.745  0.00  0.00    +0.000 C 
ATOM      9  O   UNL     1       1.481   3.543  17.127  0.00  0.00    +0.000 OA
BRANCH   2  10
ATOM     10  C   UNL     1       3.715   2.283  18.635  0.00  0.00    +0.000 C 
BRANCH  10  12
ATOM     11  C   UNL     1       2.968   2.577  20.999  0.00  0.00    +0.000 C 
ATOM     12  C   UNL     1       4.171   2.379  20.084  0.00  0.00    +0.000 C 
ENDBRANCH  10  12
ENDBRANCH   2  10
ENDBRANCH   1   6
BRANCH   1  13
ATOM     13  C   UNL     1       1.626   8.652  19.296  0.00  0.00    +0.000 A 
ATOM     14  C   UNL     1       1.226   9.289  18.106  0.00  0.00    +0.000 A 
ATOM     15  C   UNL     1       0.332  10.251  18.505  0.00  0.00    +0.000 A 
ATOM     16  N   UNL     1       0.203  10.150  19.873  0.00  0.00    +0.000 N 
ATOM     17  N   UNL     1       1.023   9.183  20.371  0.00  0.00    +0.000 NA
BRANCH  16  18
ATOM     18  C   UNL     1      -0.651  10.914  20.721  0.00  0.00    +0.000 A 
ATOM     19  C   UNL     1      -1.536  11.859  20.181  0.00  0.00    +0.000 A 
ATOM     20  C   UNL     1      -2.371  12.605  21.018  0.00  0.00    +0.000 A 
ATOM     21  C   UNL     1      -2.326  12.417  22.398  0.00  0.00    +0.000 A 
ATOM     22  C   UNL     1      -1.452  11.476  22.944  0.00  0.00    +0.000 A 
ATOM     23  C   UNL     1      -0.618  10.721  22.110  0.00  0.00    +0.000 A 
ENDBRANCH  16  18
ENDBRANCH   1  13
TORSDOF 5
ENDMDL
MODEL 8
REMARK VINA RESULT:      -6.6      1.223      1.902
REMARK  Name = 
REMARK  6 active torsions:
REMARK  status: ('A' for Active; 'I' for Inactive)
REMARK    1  A    between atoms: C_1  and  C_2
REMARK    2  A    between atoms: C_2  and  C_3
REMARK    3  A    between atoms: C_3  and  N_4
REMARK    4  A    between atoms: N_8  and  C_9
REMARK    5  A    between atoms: C_9  and  C_10
REMARK    6  A    between atoms: N_13  and  C_14
REMARK                            x       y       z     vdW  Elec       q    Type
REMARK                         _______ _______ _______ _____ _____    ______ ____
ROOT
ATOM      1  C   UNL     1       2.541   7.996  17.410  0.00  0.00    +0.000 C 
ENDROOT
BRANCH   1   6
ATOM      2  N   UNL     1       4.898   4.340  17.483  0.00  0.00    +0.000 N 
ATOM      3  C   UNL     1       3.617   3.781  17.876  0.00  0.00    +0.000 C 
ATOM      4  C   UNL     1       2.448   4.743  17.709  0.00  0.00    +0.000 C 
ATOM      5  C   UNL     1       2.537   5.910  18.693  0.00  0.00    +0.000 C 
ATOM      6  N   UNL     1       3.327   7.072  18.268  0.00  0.00    +0.000 NA
ATOM      7  C   UNL     1       4.577   6.754  17.545  0.00  0.00    +0.000 C 
ATOM      8  C   UNL     1       5.364   5.533  18.025  0.00  0.00    +0.000 C 
ATOM      9  O   UNL     1       6.462   5.627  18.570  0.00  0.00    +0.000 OA
BRANCH   2  10
ATOM     10  C   UNL     1       5.682   3.703  16.439  0.00  0.00    +0.000 C 
BRANCH  10  12
ATOM     11  C   UNL     1       6.641   4.961  14.508  0.00  0.00    +0.000 C 
ATOM     12  C   UNL     1       5.413   4.229  15.036  0.00  0.00    +0.000 C 
ENDBRANCH  10  12
ENDBRANCH   2  10
ENDBRANCH   1   6
BRANCH   1  13
ATOM     13  C   UNL     1       1.980   9.157  18.180  0.00  0.00    +0.000 A 
ATOM     14  C   UNL     1       2.012  10.517  17.814  0.00  0.00    +0.000 A 
ATOM     15  C   UNL     1       1.370  11.171  18.834  0.00  0.00    +0.000 A 
ATOM     16  N   UNL     1       0.957  10.218  19.740  0.00  0.00    +0.000 N 
ATOM     17  N   UNL     1       1.357   8.974  19.356  0.00  0.00    +0.000 NA
BRANCH  16  18
ATOM     18  C   UNL     1       0.209  10.425  20.935  0.00  0.00    +0.000 A 
ATOM     19  C   UNL     1       0.107   9.413  21.901  0.00  0.00    +0.000 A 
ATOM     20  C   UNL     1      -0.627   9.624  23.072  0.00  0.00    +0.000 A 
ATOM     21  C   UNL     1      -1.269  10.842  23.284  0.00  0.00    +0.000 A 
ATOM     22  C   UNL     1      -1.170  11.856  22.332  0.00  0.00    +0.000 A 
ATOM     23  C   UNL     1      -0.430  11.654  21.161  0.00  0.00    +0.000 A 
ENDBRANCH  16  18
ENDBRANCH   1  13
TORSDOF 5
ENDMDL
MODEL 9
REMARK VINA RESULT:      -6.6      1.571      2.343
REMARK  Name = 
REMARK  6 active torsions:
REMARK  status: ('A' for Active; 'I' for Inactive)
REMARK    1  A    between atoms: C_1  and  C_2
REMARK    2  A    between atoms: C_2  and  C_3
REMARK    3  A    between atoms: C_3  and  N_4
REMARK    4  A    between atoms: N_8  and  C_9
REMARK    5  A    between atoms: C_9  and  C_10
REMARK    6  A    between atoms: N_13  and  C_14
REMARK                            x       y       z     vdW  Elec       q    Type
REMARK                         _______ _______ _______ _____ _____    ______ ____
ROOT
ATOM      1  C   UNL     1       2.889   6.514  18.208  0.00  0.00    +0.000 C 
ENDROOT
BRANCH   1   6
ATOM      2  N   UNL     1       6.770   5.283  16.676  0.00  0.00    +0.000 N 
ATOM      3  C   UNL     1       6.581   4.230  17.658  0.00  0.00    +0.000 C 
ATOM      4  C   UNL     1       5.173   4.177  18.239  0.00  0.00    +0.000 C 
ATOM      5  C   UNL     1       4.877   5.401  19.106  0.00  0.00    +0.000 C 
ATOM      6  N   UNL     1       4.359   6.588  18.416  0.00  0.00    +0.000 NA
ATOM      7  C   UNL     1       4.976   6.873  17.103  0.00  0.00    +0.000 C 
ATOM      8  C   UNL     1       6.477   6.610  16.970  0.00  0.00    +0.000 C 
ATOM      9  O   UNL     1       7.297   7.515  16.831  0.00  0.00    +0.000 OA
BRANCH   2  10
ATOM     10  C   UNL     1       7.188   4.951  15.324  0.00  0.00    +0.000 C 
BRANCH  10  12
ATOM     11  C   UNL     1       5.308   4.280  13.825  0.00  0.00    +0.000 C 
ATOM     12  C   UNL     1       6.447   3.775  14.704  0.00  0.00    +0.000 C 
ENDBRANCH  10  12
ENDBRANCH   2  10
ENDBRANCH   1   6
BRANCH   1  13
ATOM     13  C   UNL     1       2.153   7.612  18.921  0.00  0.00    +0.000 A 
ATOM     14  C   UNL     1       1.798   7.655  20.283  0.00  0.00    +0.000 A 
ATOM     15  C   UNL     1       1.152   8.855  20.441  0.00  0.00    +0.000 A 
ATOM     16  N   UNL     1       1.160   9.491  19.219  0.00  0.00    +0.000 N 
ATOM     17  N   UNL     1       1.752   8.716  18.268  0.00  0.00    +0.000 NA
BRANCH  16  18
ATOM     18  C   UNL     1       0.644  10.784  18.912  0.00  0.00    +0.000 A 
ATOM     19  C   UNL     1       1.486  11.906  18.898  0.00  0.00    +0.000 A 
ATOM     20  C   UNL     1       0.973  13.171  18.595  0.00  0.00    +0.000 A 
ATOM     21  C   UNL     1      -0.382  13.326  18.312  0.00  0.00    +0.000 A 
ATOM     22  C   UNL     1      -1.226  12.216  18.320  0.00  0.00    +0.000 A 
ATOM     23  C   UNL     1      -0.717  10.945  18.615  0.00  0.00    +0.000 A 
ENDBRANCH  16  18
ENDBRANCH   1  13
TORSDOF 5
ENDMDL
