MODEL 1
REMARK VINA RESULT:      -8.0      0.000      0.000
REMARK  Name = 
REMARK  10 active torsions:
REMARK  status: ('A' for Active; 'I' for Inactive)
REMARK    1  A    between atoms: C_1  and  O_2
REMARK    2  A    between atoms: O_2  and  C_3
REMARK    3  A    between atoms: C_6  and  N_7
REMARK    4  A    between atoms: C_8  and  C_9
REMARK    5  A    between atoms: C_9  and  C_10
REMARK    6  A    between atoms: N_14  and  C_15
REMARK    7  A    between atoms: C_18  and  S_19
REMARK    8  A    between atoms: S_19  and  C_20
REMARK    9  A    between atoms: C_20  and  C_21
REMARK   10  A    between atoms: N_23  and  C_24
REMARK                            x       y       z     vdW  Elec       q    Type
REMARK                         _______ _______ _______ _____ _____    ______ ____
ROOT
ATOM      1  N   UNL     1      -0.032  11.502  19.695  0.00  0.00    +0.000 N 
ATOM      2  C   UNL     1       0.794  12.636  19.721  0.00  0.00    +0.000 A 
ATOM      3  N   UNL     1       1.540  12.613  20.813  0.00  0.00    +0.000 NA
ATOM      4  N   UNL     1       1.267  11.475  21.505  0.00  0.00    +0.000 NA
ATOM      5  C   UNL     1       0.353  10.809  20.847  0.00  0.00    +0.000 A 
ENDROOT
BRANCH   1   9
ATOM      6  C   UNL     1      -2.993  10.536  16.802  0.00  0.00    +0.000 A 
ATOM      7  C   UNL     1      -3.234  11.519  17.756  0.00  0.00    +0.000 A 
ATOM      8  C   UNL     1      -2.259  11.845  18.711  0.00  0.00    +0.000 A 
ATOM      9  C   UNL     1      -1.043  11.155  18.752  0.00  0.00    +0.000 A 
ATOM     10  C   UNL     1      -0.840  10.118  17.827  0.00  0.00    +0.000 A 
ATOM     11  C   UNL     1      -1.799   9.826  16.847  0.00  0.00    +0.000 A 
BRANCH   6  13
ATOM     12  C   UNL     1      -3.589  10.203  14.547  0.00  0.00    +0.000 C 
ATOM     13  O   UNL     1      -4.001  10.318  15.905  0.00  0.00    +0.000 OA
ENDBRANCH   6  13
ENDBRANCH   1   9
BRANCH   2  14
ATOM     14  C   UNL     1       0.721  13.822  18.800  0.00  0.00    +0.000 C 
BRANCH  14  15
ATOM     15  C   UNL     1       1.417  15.068  19.295  0.00  0.00    +0.000 A 
ATOM     16  C   UNL     1       0.942  16.109  20.080  0.00  0.00    +0.000 A 
ATOM     17  C   UNL     1       1.972  17.075  20.205  0.00  0.00    +0.000 A 
ATOM     18  C   UNL     1       3.057  16.601  19.506  0.00  0.00    +0.000 A 
ATOM     19  N   UNL     1       2.726  15.379  18.978  0.00  0.00    +0.000 N 
ATOM     20  C   UNL     1       3.648  14.556  18.222  0.00  0.00    +0.000 C 
ENDBRANCH  14  15
ENDBRANCH   2  14
BRANCH   5  21
ATOM     21  S   UNL     1      -0.156   9.206  21.285  0.00  0.00    +0.000 S 
BRANCH  21  22
ATOM     22  C   UNL     1       1.413   8.322  21.431  0.00  0.00    +0.000 C 
BRANCH  22  23
ATOM     23  C   UNL     1       1.823   7.652  20.130  0.00  0.00    +0.000 C 
ATOM     24  O   UNL     1       1.983   8.304  19.100  0.00  0.00    +0.000 OA
ATOM     25  N   UNL     1       2.018   6.291  20.264  0.00  0.00    +0.000 N 
ATOM     26  H   UNL     1       1.610   5.851  21.090  0.00  0.00    +0.000 HD
BRANCH  25  27
ATOM     27  C   UNL     1       2.774   5.447  19.426  0.00  0.00    +0.000 A 
ATOM     28  C   UNL     1       2.265   4.868  18.244  0.00  0.00    +0.000 A 
ATOM     29  C   UNL     1       3.118   4.247  17.321  0.00  0.00    +0.000 A 
ATOM     30  C   UNL     1       4.463   4.257  17.602  0.00  0.00    +0.000 A 
ATOM     31  C   UNL     1       4.954   4.758  18.786  0.00  0.00    +0.000 A 
ATOM     32  C   UNL     1       4.135   5.325  19.736  0.00  0.00    +0.000 A 
ATOM     33  O   UNL     1       6.316   4.738  18.824  0.00  0.00    +0.000 OA
ATOM     34  C   UNL     1       6.577   4.524  17.422  0.00  0.00    +0.000 C 
ATOM     35  O   UNL     1       5.465   3.893  16.752  0.00  0.00    +0.000 OA
ENDBRANCH  25  27
ENDBRANCH  22  23
ENDBRANCH  21  22
ENDBRANCH   5  21
TORSDOF 8
ENDMDL
MODEL 2
REMARK VINA RESULT:      -8.0      2.866      9.820
REMARK  Name = 
REMARK  10 active torsions:
REMARK  status: ('A' for Active; 'I' for Inactive)
REMARK    1  A    between atoms: C_1  and  O_2
REMARK    2  A    between atoms: O_2  and  C_3
REMARK    3  A    between atoms: C_6  and  N_7
REMARK    4  A    between atoms: C_8  and  C_9
REMARK    5  A    between atoms: C_9  and  C_10
REMARK    6  A    between atoms: N_14  and  C_15
REMARK    7  A    between atoms: C_18  and  S_19
REMARK    8  A    between atoms: S_19  and  C_20
REMARK    9  A    between atoms: C_20  and  C_21
REMARK   10  A    between atoms: N_23  and  C_24
REMARK                            x       y       z     vdW  Elec       q    Type
REMARK                         _______ _______ _______ _____ _____    ______ ____
ROOT
ATOM      1  N   UNL     1       2.979   6.048  19.400  0.00  0.00    +0.000 N 
ATOM      2  C   UNL     1       2.306   5.378  20.432  0.00  0.00    +0.000 A 
ATOM      3  N   UNL     1       1.451   6.205  21.011  0.00  0.00    +0.000 NA
ATOM      4  N   UNL     1       1.503   7.404  20.372  0.00  0.00    +0.000 NA
ATOM      5  C   UNL     1       2.390   7.316  19.414  0.00  0.00    +0.000 A 
ENDROOT
BRANCH   1   9
ATOM      6  C   UNL     1       6.140   4.743  16.875  0.00  0.00    +0.000 A 
ATOM      7  C   UNL     1       4.821   4.697  16.434  0.00  0.00    +0.000 A 
ATOM      8  C   UNL     1       3.775   5.130  17.262  0.00  0.00    +0.000 A 
ATOM      9  C   UNL     1       4.031   5.572  18.564  0.00  0.00    +0.000 A 
ATOM     10  C   UNL     1       5.359   5.548  19.020  0.00  0.00    +0.000 A 
ATOM     11  C   UNL     1       6.407   5.156  18.174  0.00  0.00    +0.000 A 
BRANCH   6  13
ATOM     12  C   UNL     1       6.639   4.251  14.625  0.00  0.00    +0.000 C 
ATOM     13  O   UNL     1       7.081   4.321  15.978  0.00  0.00    +0.000 OA
ENDBRANCH   6  13
ENDBRANCH   1   9
BRANCH   2  14
ATOM     14  C   UNL     1       2.625   4.014  20.976  0.00  0.00    +0.000 C 
BRANCH  14  15
ATOM     15  C   UNL     1       2.914   2.955  19.937  0.00  0.00    +0.000 A 
ATOM     16  C   UNL     1       4.081   2.254  19.672  0.00  0.00    +0.000 A 
ATOM     17  C   UNL     1       3.850   1.421  18.548  0.00  0.00    +0.000 A 
ATOM     18  C   UNL     1       2.548   1.621  18.158  0.00  0.00    +0.000 A 
ATOM     19  N   UNL     1       1.978   2.530  19.013  0.00  0.00    +0.000 N 
ATOM     20  C   UNL     1       0.591   2.941  18.938  0.00  0.00    +0.000 C 
ENDBRANCH  14  15
ENDBRANCH   2  14
BRANCH   5  21
ATOM     21  S   UNL     1       2.641   8.565  18.233  0.00  0.00    +0.000 S 
BRANCH  21  22
ATOM     22  C   UNL     1       0.963   8.908  17.659  0.00  0.00    +0.000 C 
BRANCH  22  23
ATOM     23  C   UNL     1       0.341  10.100  18.368  0.00  0.00    +0.000 C 
ATOM     24  O   UNL     1      -0.730  10.575  17.996  0.00  0.00    +0.000 OA
ATOM     25  N   UNL     1       1.083  10.528  19.452  0.00  0.00    +0.000 N 
ATOM     26  H   UNL     1       2.054  10.217  19.491  0.00  0.00    +0.000 HD
BRANCH  25  27
ATOM     27  C   UNL     1       0.636  11.291  20.549  0.00  0.00    +0.000 A 
ATOM     28  C   UNL     1       0.785  12.691  20.633  0.00  0.00    +0.000 A 
ATOM     29  C   UNL     1       0.110  13.430  21.614  0.00  0.00    +0.000 A 
ATOM     30  C   UNL     1      -0.723  12.739  22.462  0.00  0.00    +0.000 A 
ATOM     31  C   UNL     1      -0.816  11.366  22.426  0.00  0.00    +0.000 A 
ATOM     32  C   UNL     1      -0.122  10.609  21.509  0.00  0.00    +0.000 A 
ATOM     33  O   UNL     1      -1.752  10.894  23.297  0.00  0.00    +0.000 OA
ATOM     34  C   UNL     1      -2.445  12.129  23.571  0.00  0.00    +0.000 C 
ATOM     35  O   UNL     1      -1.612  13.284  23.339  0.00  0.00    +0.000 OA
ENDBRANCH  25  27
ENDBRANCH  22  23
ENDBRANCH  21  22
ENDBRANCH   5  21
TORSDOF 8
ENDMDL
MODEL 3
REMARK VINA RESULT:      -8.0      2.859     10.094
REMARK  Name = 
REMARK  10 active torsions:
REMARK  status: ('A' for Active; 'I' for Inactive)
REMARK    1  A    between atoms: C_1  and  O_2
REMARK    2  A    between atoms: O_2  and  C_3
REMARK    3  A    between atoms: C_6  and  N_7
REMARK    4  A    between atoms: C_8  and  C_9
REMARK    5  A    between atoms: C_9  and  C_10
REMARK    6  A    between atoms: N_14  and  C_15
REMARK    7  A    between atoms: C_18  and  S_19
REMARK    8  A    between atoms: S_19  and  C_20
REMARK    9  A    between atoms: C_20  and  C_21
REMARK   10  A    between atoms: N_23  and  C_24
REMARK                            x       y       z     vdW  Elec       q    Type
REMARK                         _______ _______ _______ _____ _____    ______ ____
ROOT
ATOM      1  N   UNL     1       2.932   6.103  19.373  0.00  0.00    +0.000 N 
ATOM      2  C   UNL     1       2.262   5.471  20.431  0.00  0.00    +0.000 A 
ATOM      3  N   UNL     1       1.400   6.315  20.973  0.00  0.00    +0.000 NA
ATOM      4  N   UNL     1       1.443   7.487  20.285  0.00  0.00    +0.000 NA
ATOM      5  C   UNL     1       2.332   7.365  19.333  0.00  0.00    +0.000 A 
ENDROOT
BRANCH   1   9
ATOM      6  C   UNL     1       6.106   4.719  16.907  0.00  0.00    +0.000 A 
ATOM      7  C   UNL     1       4.786   4.614  16.481  0.00  0.00    +0.000 A 
ATOM      8  C   UNL     1       3.735   5.073  17.289  0.00  0.00    +0.000 A 
ATOM      9  C   UNL     1       3.990   5.601  18.559  0.00  0.00    +0.000 A 
ATOM     10  C   UNL     1       5.321   5.637  19.004  0.00  0.00    +0.000 A 
ATOM     11  C   UNL     1       6.372   5.218  18.176  0.00  0.00    +0.000 A 
BRANCH   6  13
ATOM     12  C   UNL     1       6.988   4.831  14.725  0.00  0.00    +0.000 C 
ATOM     13  O   UNL     1       7.051   4.264  16.030  0.00  0.00    +0.000 OA
ENDBRANCH   6  13
ENDBRANCH   1   9
BRANCH   2  14
ATOM     14  C   UNL     1       2.591   4.133  21.032  0.00  0.00    +0.000 C 
BRANCH  14  15
ATOM     15  C   UNL     1       2.898   3.036  20.039  0.00  0.00    +0.000 A 
ATOM     16  C   UNL     1       4.079   2.351  19.797  0.00  0.00    +0.000 A 
ATOM     17  C   UNL     1       3.861   1.464  18.712  0.00  0.00    +0.000 A 
ATOM     18  C   UNL     1       2.552   1.617  18.322  0.00  0.00    +0.000 A 
ATOM     19  N   UNL     1       1.967   2.550  19.141  0.00  0.00    +0.000 N 
ATOM     20  C   UNL     1       0.570   2.926  19.057  0.00  0.00    +0.000 C 
ENDBRANCH  14  15
ENDBRANCH   2  14
BRANCH   5  21
ATOM     21  S   UNL     1       2.577   8.567  18.101  0.00  0.00    +0.000 S 
BRANCH  21  22
ATOM     22  C   UNL     1       1.018   9.480  18.128  0.00  0.00    +0.000 C 
BRANCH  22  23
ATOM     23  C   UNL     1       1.132  10.796  18.881  0.00  0.00    +0.000 C 
ATOM     24  O   UNL     1       1.116  10.832  20.109  0.00  0.00    +0.000 OA
ATOM     25  N   UNL     1       1.287  11.884  18.042  0.00  0.00    +0.000 N 
ATOM     26  H   UNL     1       1.030  11.745  17.064  0.00  0.00    +0.000 HD
BRANCH  25  27
ATOM     27  C   UNL     1       1.823  13.146  18.366  0.00  0.00    +0.000 A 
ATOM     28  C   UNL     1       3.183  13.479  18.194  0.00  0.00    +0.000 A 
ATOM     29  C   UNL     1       3.618  14.808  18.292  0.00  0.00    +0.000 A 
ATOM     30  C   UNL     1       2.661  15.767  18.527  0.00  0.00    +0.000 A 
ATOM     31  C   UNL     1       1.346  15.437  18.763  0.00  0.00    +0.000 A 
ATOM     32  C   UNL     1       0.900  14.135  18.729  0.00  0.00    +0.000 A 
ATOM     33  O   UNL     1       0.558  16.541  18.896  0.00  0.00    +0.000 OA
ATOM     34  C   UNL     1       1.460  17.527  18.354  0.00  0.00    +0.000 C 
ATOM     35  O   UNL     1       2.840  17.116  18.456  0.00  0.00    +0.000 OA
ENDBRANCH  25  27
ENDBRANCH  22  23
ENDBRANCH  21  22
ENDBRANCH   5  21
TORSDOF 8
ENDMDL
MODEL 4
REMARK VINA RESULT:      -8.0      4.797      9.023
REMARK  Name = 
REMARK  10 active torsions:
REMARK  status: ('A' for Active; 'I' for Inactive)
REMARK    1  A    between atoms: C_1  and  O_2
REMARK    2  A    between atoms: O_2  and  C_3
REMARK    3  A    between atoms: C_6  and  N_7
REMARK    4  A    between atoms: C_8  and  C_9
REMARK    5  A    between atoms: C_9  and  C_10
REMARK    6  A    between atoms: N_14  and  C_15
REMARK    7  A    between atoms: C_18  and  S_19
REMARK    8  A    between atoms: S_19  and  C_20
REMARK    9  A    between atoms: C_20  and  C_21
REMARK   10  A    between atoms: N_23  and  C_24
REMARK                            x       y       z     vdW  Elec       q    Type
REMARK                         _______ _______ _______ _____ _____    ______ ____
ROOT
ATOM      1  N   UNL     1       3.512   5.779  17.559  0.00  0.00    +0.000 N 
ATOM      2  C   UNL     1       3.200   4.414  17.472  0.00  0.00    +0.000 A 
ATOM      3  N   UNL     1       4.065   3.814  16.671  0.00  0.00    +0.000 NA
ATOM      4  N   UNL     1       4.975   4.731  16.246  0.00  0.00    +0.000 NA
ATOM      5  C   UNL     1       4.665   5.886  16.775  0.00  0.00    +0.000 A 
ENDROOT
BRANCH   1   9
ATOM      6  C   UNL     1       1.321   8.798  19.597  0.00  0.00    +0.000 A 
ATOM      7  C   UNL     1       1.549   8.895  18.228  0.00  0.00    +0.000 A 
ATOM      8  C   UNL     1       2.268   7.900  17.550  0.00  0.00    +0.000 A 
ATOM      9  C   UNL     1       2.811   6.814  18.245  0.00  0.00    +0.000 A 
ATOM     10  C   UNL     1       2.632   6.764  19.637  0.00  0.00    +0.000 A 
ATOM     11  C   UNL     1       1.876   7.738  20.303  0.00  0.00    +0.000 A 
BRANCH   6  13
ATOM     12  C   UNL     1       0.492  10.991  19.359  0.00  0.00    +0.000 C 
ATOM     13  O   UNL     1       0.588   9.810  20.150  0.00  0.00    +0.000 OA
ENDBRANCH   6  13
ENDBRANCH   1   9
BRANCH   2  14
ATOM     14  C   UNL     1       1.966   3.739  18.001  0.00  0.00    +0.000 C 
BRANCH  14  15
ATOM     15  C   UNL     1       1.995   3.402  19.474  0.00  0.00    +0.000 A 
ATOM     16  C   UNL     1       1.111   3.738  20.488  0.00  0.00    +0.000 A 
ATOM     17  C   UNL     1       1.626   3.235  21.710  0.00  0.00    +0.000 A 
ATOM     18  C   UNL     1       2.806   2.594  21.416  0.00  0.00    +0.000 A 
ATOM     19  N   UNL     1       3.014   2.676  20.063  0.00  0.00    +0.000 N 
ATOM     20  C   UNL     1       4.137   2.061  19.385  0.00  0.00    +0.000 C 
ENDBRANCH  14  15
ENDBRANCH   2  14
BRANCH   5  21
ATOM     21  S   UNL     1       5.673   7.296  16.640  0.00  0.00    +0.000 S 
BRANCH  21  22
ATOM     22  C   UNL     1       7.290   6.673  17.154  0.00  0.00    +0.000 C 
BRANCH  22  23
ATOM     23  C   UNL     1       7.949   7.565  18.194  0.00  0.00    +0.000 C 
ATOM     24  O   UNL     1       8.596   7.088  19.124  0.00  0.00    +0.000 OA
ATOM     25  N   UNL     1       7.764   8.911  17.943  0.00  0.00    +0.000 N 
ATOM     26  H   UNL     1       7.009   9.155  17.301  0.00  0.00    +0.000 HD
BRANCH  25  27
ATOM     27  C   UNL     1       8.540   9.986  18.419  0.00  0.00    +0.000 A 
ATOM     28  C   UNL     1       9.392   9.892  19.541  0.00  0.00    +0.000 A 
ATOM     29  C   UNL     1      10.324  10.899  19.824  0.00  0.00    +0.000 A 
ATOM     30  C   UNL     1      10.393  11.957  18.949  0.00  0.00    +0.000 A 
ATOM     31  C   UNL     1       9.517  12.085  17.895  0.00  0.00    +0.000 A 
ATOM     32  C   UNL     1       8.555  11.139  17.624  0.00  0.00    +0.000 A 
ATOM     33  O   UNL     1       9.811  13.163  17.114  0.00  0.00    +0.000 OA
ATOM     34  C   UNL     1      11.144  13.431  17.595  0.00  0.00    +0.000 C 
ATOM     35  O   UNL     1      11.353  12.924  18.930  0.00  0.00    +0.000 OA
ENDBRANCH  25  27
ENDBRANCH  22  23
ENDBRANCH  21  22
ENDBRANCH   5  21
TORSDOF 8
ENDMDL
MODEL 5
REMARK VINA RESULT:      -7.9      2.877      9.628
REMARK  Name = 
REMARK  10 active torsions:
REMARK  status: ('A' for Active; 'I' for Inactive)
REMARK    1  A    between atoms: C_1  and  O_2
REMARK    2  A    between atoms: O_2  and  C_3
REMARK    3  A    between atoms: C_6  and  N_7
REMARK    4  A    between atoms: C_8  and  C_9
REMARK    5  A    between atoms: C_9  and  C_10
REMARK    6  A    between atoms: N_14  and  C_15
REMARK    7  A    between atoms: C_18  and  S_19
REMARK    8  A    between atoms: S_19  and  C_20
REMARK    9  A    between atoms: C_20  and  C_21
REMARK   10  A    between atoms: N_23  and  C_24
REMARK                            x       y       z     vdW  Elec       q    Type
REMARK                         _______ _______ _______ _____ _____    ______ ____
ROOT
ATOM      1  N   UNL     1       2.629   6.971  19.046  0.00  0.00    +0.000 N 
ATOM      2  C   UNL     1       2.139   6.329  20.193  0.00  0.00    +0.000 A 
ATOM      3  N   UNL     1       1.356   7.159  20.862  0.00  0.00    +0.000 NA
ATOM      4  N   UNL     1       1.275   8.331  20.176  0.00  0.00    +0.000 NA
ATOM      5  C   UNL     1       2.010   8.223  19.100  0.00  0.00    +0.000 A 
ENDROOT
BRANCH   1   9
ATOM      6  C   UNL     1       5.456   5.463  16.252  0.00  0.00    +0.000 A 
ATOM      7  C   UNL     1       5.622   6.726  16.811  0.00  0.00    +0.000 A 
ATOM      8  C   UNL     1       4.695   7.227  17.736  0.00  0.00    +0.000 A 
ATOM      9  C   UNL     1       3.559   6.486  18.080  0.00  0.00    +0.000 A 
ATOM     10  C   UNL     1       3.368   5.242  17.456  0.00  0.00    +0.000 A 
ATOM     11  C   UNL     1       4.320   4.727  16.565  0.00  0.00    +0.000 A 
BRANCH   6  13
ATOM     12  C   UNL     1       6.083   3.972  14.539  0.00  0.00    +0.000 C 
ATOM     13  O   UNL     1       6.433   5.066  15.382  0.00  0.00    +0.000 OA
ENDBRANCH   6  13
ENDBRANCH   1   9
BRANCH   2  14
ATOM     14  C   UNL     1       2.578   4.998  20.735  0.00  0.00    +0.000 C 
BRANCH  14  15
ATOM     15  C   UNL     1       2.036   3.792  20.004  0.00  0.00    +0.000 A 
ATOM     16  C   UNL     1       0.756   3.524  19.541  0.00  0.00    +0.000 A 
ATOM     17  C   UNL     1       0.751   2.221  18.982  0.00  0.00    +0.000 A 
ATOM     18  C   UNL     1       2.027   1.724  19.105  0.00  0.00    +0.000 A 
ATOM     19  N   UNL     1       2.805   2.684  19.701  0.00  0.00    +0.000 N 
ATOM     20  C   UNL     1       4.225   2.529  19.940  0.00  0.00    +0.000 C 
ENDBRANCH  14  15
ENDBRANCH   2  14
BRANCH   5  21
ATOM     21  S   UNL     1       2.044   9.427  17.847  0.00  0.00    +0.000 S 
BRANCH  21  22
ATOM     22  C   UNL     1       1.966  10.971  18.783  0.00  0.00    +0.000 C 
BRANCH  22  23
ATOM     23  C   UNL     1       0.645  11.698  18.590  0.00  0.00    +0.000 C 
ATOM     24  O   UNL     1       0.611  12.891  18.297  0.00  0.00    +0.000 OA
ATOM     25  N   UNL     1      -0.451  10.871  18.744  0.00  0.00    +0.000 N 
ATOM     26  H   UNL     1      -0.291   9.987  19.229  0.00  0.00    +0.000 HD
BRANCH  25  27
ATOM     27  C   UNL     1      -1.755  11.076  18.250  0.00  0.00    +0.000 A 
ATOM     28  C   UNL     1      -2.239  10.478  17.067  0.00  0.00    +0.000 A 
ATOM     29  C   UNL     1      -3.604  10.509  16.751  0.00  0.00    +0.000 A 
ATOM     30  C   UNL     1      -4.446  11.113  17.654  0.00  0.00    +0.000 A 
ATOM     31  C   UNL     1      -3.968  11.756  18.773  0.00  0.00    +0.000 A 
ATOM     32  C   UNL     1      -2.627  11.790  19.081  0.00  0.00    +0.000 A 
ATOM     33  O   UNL     1      -4.975  12.217  19.567  0.00  0.00    +0.000 OA
ATOM     34  C   UNL     1      -6.069  11.467  19.000  0.00  0.00    +0.000 C 
ATOM     35  O   UNL     1      -5.808  11.072  17.637  0.00  0.00    +0.000 OA
ENDBRANCH  25  27
ENDBRANCH  22  23
ENDBRANCH  21  22
ENDBRANCH   5  21
TORSDOF 8
ENDMDL
MODEL 6
REMARK VINA RESULT:      -7.8      3.137      9.929
REMARK  Name = 
REMARK  10 active torsions:
REMARK  status: ('A' for Active; 'I' for Inactive)
REMARK    1  A    between atoms: C_1  and  O_2
REMARK    2  A    between atoms: O_2  and  C_3
REMARK    3  A    between atoms: C_6  and  N_7
REMARK    4  A    between atoms: C_8  and  C_9
REMARK    5  A    between atoms: C_9  and  C_10
REMARK    6  A    between atoms: N_14  and  C_15
REMARK    7  A    between atoms: C_18  and  S_19
REMARK    8  A    between atoms: S_19  and  C_20
REMARK    9  A    between atoms: C_20  and  C_21
REMARK   10  A    between atoms: N_23  and  C_24
REMARK                            x       y       z     vdW  Elec       q    Type
REMARK                         _______ _______ _______ _____ _____    ______ ____
ROOT
ATOM      1  N   UNL     1       2.673   6.470  19.451  0.00  0.00    +0.000 N 
ATOM      2  C   UNL     1       1.987   5.884  20.525  0.00  0.00    +0.000 A 
ATOM      3  N   UNL     1       1.208   6.787  21.096  0.00  0.00    +0.000 NA
ATOM      4  N   UNL     1       1.320   7.956  20.412  0.00  0.00    +0.000 NA
ATOM      5  C   UNL     1       2.170   7.775  19.435  0.00  0.00    +0.000 A 
ENDROOT
BRANCH   1   9
ATOM      6  C   UNL     1       5.646   4.863  16.872  0.00  0.00    +0.000 A 
ATOM      7  C   UNL     1       4.296   4.667  16.599  0.00  0.00    +0.000 A 
ATOM      8  C   UNL     1       3.311   5.199  17.445  0.00  0.00    +0.000 A 
ATOM      9  C   UNL     1       3.666   5.896  18.605  0.00  0.00    +0.000 A 
ATOM     10  C   UNL     1       5.032   6.026  18.904  0.00  0.00    +0.000 A 
ATOM     11  C   UNL     1       6.013   5.531  18.034  0.00  0.00    +0.000 A 
BRANCH   6  13
ATOM     12  C   UNL     1       5.981   4.099  14.669  0.00  0.00    +0.000 C 
ATOM     13  O   UNL     1       6.518   4.323  15.969  0.00  0.00    +0.000 OA
ENDBRANCH   6  13
ENDBRANCH   1   9
BRANCH   2  14
ATOM     14  C   UNL     1       2.231   4.521  21.110  0.00  0.00    +0.000 C 
BRANCH  14  15
ATOM     15  C   UNL     1       1.992   3.362  20.170  0.00  0.00    +0.000 A 
ATOM     16  C   UNL     1       0.824   2.926  19.562  0.00  0.00    +0.000 A 
ATOM     17  C   UNL     1       1.120   1.751  18.826  0.00  0.00    +0.000 A 
ATOM     18  C   UNL     1       2.462   1.500  18.989  0.00  0.00    +0.000 A 
ATOM     19  N   UNL     1       2.990   2.487  19.782  0.00  0.00    +0.000 N 
ATOM     20  C   UNL     1       4.395   2.576  20.121  0.00  0.00    +0.000 C 
ENDBRANCH  14  15
ENDBRANCH   2  14
BRANCH   5  21
ATOM     21  S   UNL     1       2.470   8.963  18.202  0.00  0.00    +0.000 S 
BRANCH  21  22
ATOM     22  C   UNL     1       1.325  10.288  18.647  0.00  0.00    +0.000 C 
BRANCH  22  23
ATOM     23  C   UNL     1       0.006  10.189  17.897  0.00  0.00    +0.000 C 
ATOM     24  O   UNL     1      -0.355   9.135  17.379  0.00  0.00    +0.000 OA
ATOM     25  N   UNL     1      -0.710  11.370  17.910  0.00  0.00    +0.000 N 
ATOM     26  H   UNL     1      -0.190  12.216  18.147  0.00  0.00    +0.000 HD
BRANCH  25  27
ATOM     27  C   UNL     1      -2.093  11.536  17.700  0.00  0.00    +0.000 A 
ATOM     28  C   UNL     1      -2.747  11.164  16.506  0.00  0.00    +0.000 A 
ATOM     29  C   UNL     1      -4.146  11.115  16.436  0.00  0.00    +0.000 A 
ATOM     30  C   UNL     1      -4.845  11.411  17.582  0.00  0.00    +0.000 A 
ATOM     31  C   UNL     1      -4.212  11.842  18.726  0.00  0.00    +0.000 A 
ATOM     32  C   UNL     1      -2.842  11.952  18.808  0.00  0.00    +0.000 A 
ATOM     33  O   UNL     1      -5.084  12.005  19.761  0.00  0.00    +0.000 OA
ATOM     34  C   UNL     1      -6.210  11.284  19.222  0.00  0.00    +0.000 C 
ATOM     35  O   UNL     1      -6.181  11.229  17.780  0.00  0.00    +0.000 OA
ENDBRANCH  25  27
ENDBRANCH  22  23
ENDBRANCH  21  22
ENDBRANCH   5  21
TORSDOF 8
ENDMDL
MODEL 7
REMARK VINA RESULT:      -7.7      2.918      9.957
REMARK  Name = 
REMARK  10 active torsions:
REMARK  status: ('A' for Active; 'I' for Inactive)
REMARK    1  A    between atoms: C_1  and  O_2
REMARK    2  A    between atoms: O_2  and  C_3
REMARK    3  A    between atoms: C_6  and  N_7
REMARK    4  A    between atoms: C_8  and  C_9
REMARK    5  A    between atoms: C_9  and  C_10
REMARK    6  A    between atoms: N_14  and  C_15
REMARK    7  A    between atoms: C_18  and  S_19
REMARK    8  A    between atoms: S_19  and  C_20
REMARK    9  A    between atoms: C_20  and  C_21
REMARK   10  A    between atoms: N_23  and  C_24
REMARK                            x       y       z     vdW  Elec       q    Type
REMARK                         _______ _______ _______ _____ _____    ______ ____
ROOT
ATOM      1  N   UNL     1       2.555   6.508  19.333  0.00  0.00    +0.000 N 
ATOM      2  C   UNL     1       2.019   5.981  20.518  0.00  0.00    +0.000 A 
ATOM      3  N   UNL     1       1.370   6.932  21.170  0.00  0.00    +0.000 NA
ATOM      4  N   UNL     1       1.423   8.077  20.438  0.00  0.00    +0.000 NA
ATOM      5  C   UNL     1       2.106   7.833  19.350  0.00  0.00    +0.000 A 
ENDROOT
BRANCH   1   9
ATOM      6  C   UNL     1       5.045   4.511  16.526  0.00  0.00    +0.000 A 
ATOM      7  C   UNL     1       5.561   5.520  17.334  0.00  0.00    +0.000 A 
ATOM      8  C   UNL     1       4.745   6.179  18.264  0.00  0.00    +0.000 A 
ATOM      9  C   UNL     1       3.385   5.869  18.366  0.00  0.00    +0.000 A 
ATOM     10  C   UNL     1       2.862   4.898  17.497  0.00  0.00    +0.000 A 
ATOM     11  C   UNL     1       3.691   4.211  16.599  0.00  0.00    +0.000 A 
BRANCH   6  13
ATOM     12  C   UNL     1       7.105   4.683  15.395  0.00  0.00    +0.000 C 
ATOM     13  O   UNL     1       5.935   3.920  15.674  0.00  0.00    +0.000 OA
ENDBRANCH   6  13
ENDBRANCH   1   9
BRANCH   2  14
ATOM     14  C   UNL     1       2.296   4.626  21.104  0.00  0.00    +0.000 C 
BRANCH  14  15
ATOM     15  C   UNL     1       1.932   3.453  20.223  0.00  0.00    +0.000 A 
ATOM     16  C   UNL     1       0.703   3.063  19.712  0.00  0.00    +0.000 A 
ATOM     17  C   UNL     1       0.885   1.852  18.998  0.00  0.00    +0.000 A 
ATOM     18  C   UNL     1       2.220   1.533  19.078  0.00  0.00    +0.000 A 
ATOM     19  N   UNL     1       2.853   2.514  19.798  0.00  0.00    +0.000 N 
ATOM     20  C   UNL     1       4.281   2.537  20.037  0.00  0.00    +0.000 C 
ENDBRANCH  14  15
ENDBRANCH   2  14
BRANCH   5  21
ATOM     21  S   UNL     1       2.260   8.973  18.047  0.00  0.00    +0.000 S 
BRANCH  21  22
ATOM     22  C   UNL     1       0.692   9.868  18.121  0.00  0.00    +0.000 C 
BRANCH  22  23
ATOM     23  C   UNL     1       0.814  11.186  18.869  0.00  0.00    +0.000 C 
ATOM     24  O   UNL     1       0.717  11.236  20.093  0.00  0.00    +0.000 OA
ATOM     25  N   UNL     1       1.072  12.257  18.034  0.00  0.00    +0.000 N 
ATOM     26  H   UNL     1       0.874  12.119  17.042  0.00  0.00    +0.000 HD
BRANCH  25  27
ATOM     27  C   UNL     1       1.640  13.498  18.382  0.00  0.00    +0.000 A 
ATOM     28  C   UNL     1       2.992  13.826  18.148  0.00  0.00    +0.000 A 
ATOM     29  C   UNL     1       3.446  15.145  18.280  0.00  0.00    +0.000 A 
ATOM     30  C   UNL     1       2.516  16.101  18.612  0.00  0.00    +0.000 A 
ATOM     31  C   UNL     1       1.213  15.773  18.909  0.00  0.00    +0.000 A 
ATOM     32  C   UNL     1       0.751  14.478  18.842  0.00  0.00    +0.000 A 
ATOM     33  O   UNL     1       0.447  16.877  19.137  0.00  0.00    +0.000 OA
ATOM     34  C   UNL     1       1.328  17.878  18.588  0.00  0.00    +0.000 C 
ATOM     35  O   UNL     1       2.707  17.451  18.592  0.00  0.00    +0.000 OA
ENDBRANCH  25  27
ENDBRANCH  22  23
ENDBRANCH  21  22
ENDBRANCH   5  21
TORSDOF 8
ENDMDL
MODEL 8
REMARK VINA RESULT:      -7.7      2.781      9.581
REMARK  Name = 
REMARK  10 active torsions:
REMARK  status: ('A' for Active; 'I' for Inactive)
REMARK    1  A    between atoms: C_1  and  O_2
REMARK    2  A    between atoms: O_2  and  C_3
REMARK    3  A    between atoms: C_6  and  N_7
REMARK    4  A    between atoms: C_8  and  C_9
REMARK    5  A    between atoms: C_9  and  C_10
REMARK    6  A    between atoms: N_14  and  C_15
REMARK    7  A    between atoms: C_18  and  S_19
REMARK    8  A    between atoms: S_19  and  C_20
REMARK    9  A    between atoms: C_20  and  C_21
REMARK   10  A    between atoms: N_23  and  C_24
REMARK                            x       y       z     vdW  Elec       q    Type
REMARK                         _______ _______ _______ _____ _____    ______ ____
ROOT
ATOM      1  N   UNL     1       2.627   6.956  19.086  0.00  0.00    +0.000 N 
ATOM      2  C   UNL     1       2.147   6.341  20.252  0.00  0.00    +0.000 A 
ATOM      3  N   UNL     1       1.363   7.184  20.903  0.00  0.00    +0.000 NA
ATOM      4  N   UNL     1       1.270   8.336  20.188  0.00  0.00    +0.000 NA
ATOM      5  C   UNL     1       2.000   8.206  19.111  0.00  0.00    +0.000 A 
ENDROOT
BRANCH   1   9
ATOM      6  C   UNL     1       5.440   5.384  16.313  0.00  0.00    +0.000 A 
ATOM      7  C   UNL     1       5.669   6.610  16.931  0.00  0.00    +0.000 A 
ATOM      8  C   UNL     1       4.746   7.131  17.850  0.00  0.00    +0.000 A 
ATOM      9  C   UNL     1       3.555   6.452  18.127  0.00  0.00    +0.000 A 
ATOM     10  C   UNL     1       3.305   5.250  17.445  0.00  0.00    +0.000 A 
ATOM     11  C   UNL     1       4.250   4.712  16.561  0.00  0.00    +0.000 A 
BRANCH   6  13
ATOM     12  C   UNL     1       5.969   4.120  14.397  0.00  0.00    +0.000 C 
ATOM     13  O   UNL     1       6.417   4.960  15.456  0.00  0.00    +0.000 OA
ENDBRANCH   6  13
ENDBRANCH   1   9
BRANCH   2  14
ATOM     14  C   UNL     1       2.598   5.027  20.826  0.00  0.00    +0.000 C 
BRANCH  14  15
ATOM     15  C   UNL     1       2.065   3.799  20.125  0.00  0.00    +0.000 A 
ATOM     16  C   UNL     1       0.767   3.459  19.774  0.00  0.00    +0.000 A 
ATOM     17  C   UNL     1       0.790   2.165  19.195  0.00  0.00    +0.000 A 
ATOM     18  C   UNL     1       2.099   1.747  19.193  0.00  0.00    +0.000 A 
ATOM     19  N   UNL     1       2.869   2.745  19.733  0.00  0.00    +0.000 N 
ATOM     20  C   UNL     1       4.312   2.675  19.841  0.00  0.00    +0.000 C 
ENDBRANCH  14  15
ENDBRANCH   2  14
BRANCH   5  21
ATOM     21  S   UNL     1       2.020   9.377  17.827  0.00  0.00    +0.000 S 
BRANCH  21  22
ATOM     22  C   UNL     1       2.198  10.937  18.721  0.00  0.00    +0.000 C 
BRANCH  22  23
ATOM     23  C   UNL     1       0.894  11.715  18.792  0.00  0.00    +0.000 C 
ATOM     24  O   UNL     1       0.774  12.810  18.246  0.00  0.00    +0.000 OA
ATOM     25  N   UNL     1      -0.096  11.043  19.484  0.00  0.00    +0.000 N 
ATOM     26  H   UNL     1       0.209  10.281  20.090  0.00  0.00    +0.000 HD
BRANCH  25  27
ATOM     27  C   UNL     1      -1.488  11.244  19.400  0.00  0.00    +0.000 A 
ATOM     28  C   UNL     1      -2.194  12.145  20.225  0.00  0.00    +0.000 A 
ATOM     29  C   UNL     1      -3.521  12.494  19.940  0.00  0.00    +0.000 A 
ATOM     30  C   UNL     1      -4.087  11.950  18.812  0.00  0.00    +0.000 A 
ATOM     31  C   UNL     1      -3.424  11.018  18.046  0.00  0.00    +0.000 A 
ATOM     32  C   UNL     1      -2.140  10.614  18.332  0.00  0.00    +0.000 A 
ATOM     33  O   UNL     1      -4.137  10.669  16.937  0.00  0.00    +0.000 OA
ATOM     34  C   UNL     1      -5.096  11.746  16.939  0.00  0.00    +0.000 C 
ATOM     35  O   UNL     1      -5.277  12.312  18.254  0.00  0.00    +0.000 OA
ENDBRANCH  25  27
ENDBRANCH  22  23
ENDBRANCH  21  22
ENDBRANCH   5  21
TORSDOF 8
ENDMDL
MODEL 9
REMARK VINA RESULT:      -7.7      3.146     10.151
REMARK  Name = 
REMARK  10 active torsions:
REMARK  status: ('A' for Active; 'I' for Inactive)
REMARK    1  A    between atoms: C_1  and  O_2
REMARK    2  A    between atoms: O_2  and  C_3
REMARK    3  A    between atoms: C_6  and  N_7
REMARK    4  A    between atoms: C_8  and  C_9
REMARK    5  A    between atoms: C_9  and  C_10
REMARK    6  A    between atoms: N_14  and  C_15
REMARK    7  A    between atoms: C_18  and  S_19
REMARK    8  A    between atoms: S_19  and  C_20
REMARK    9  A    between atoms: C_20  and  C_21
REMARK   10  A    between atoms: N_23  and  C_24
REMARK                            x       y       z     vdW  Elec       q    Type
REMARK                         _______ _______ _______ _____ _____    ______ ____
ROOT
ATOM      1  N   UNL     1       2.994   6.200  19.274  0.00  0.00    +0.000 N 
ATOM      2  C   UNL     1       2.400   5.510  20.341  0.00  0.00    +0.000 A 
ATOM      3  N   UNL     1       1.489   6.281  20.912  0.00  0.00    +0.000 NA
ATOM      4  N   UNL     1       1.427   7.458  20.234  0.00  0.00    +0.000 NA
ATOM      5  C   UNL     1       2.300   7.413  19.261  0.00  0.00    +0.000 A 
ENDROOT
BRANCH   1   9
ATOM      6  C   UNL     1       6.183   4.859  16.803  0.00  0.00    +0.000 A 
ATOM      7  C   UNL     1       6.448   5.486  18.016  0.00  0.00    +0.000 A 
ATOM      8  C   UNL     1       5.399   5.927  18.837  0.00  0.00    +0.000 A 
ATOM      9  C   UNL     1       4.068   5.787  18.431  0.00  0.00    +0.000 A 
ATOM     10  C   UNL     1       3.818   5.216  17.173  0.00  0.00    +0.000 A 
ATOM     11  C   UNL     1       4.867   4.737  16.375  0.00  0.00    +0.000 A 
BRANCH   6  13
ATOM     12  C   UNL     1       7.241   4.735  14.702  0.00  0.00    +0.000 C 
ATOM     13  O   UNL     1       7.278   4.448  16.096  0.00  0.00    +0.000 OA
ENDBRANCH   6  13
ENDBRANCH   1   9
BRANCH   2  14
ATOM     14  C   UNL     1       2.844   4.196  20.920  0.00  0.00    +0.000 C 
BRANCH  14  15
ATOM     15  C   UNL     1       3.013   3.074  19.923  0.00  0.00    +0.000 A 
ATOM     16  C   UNL     1       4.154   2.395  19.521  0.00  0.00    +0.000 A 
ATOM     17  C   UNL     1       3.787   1.474  18.508  0.00  0.00    +0.000 A 
ATOM     18  C   UNL     1       2.432   1.600  18.320  0.00  0.00    +0.000 A 
ATOM     19  N   UNL     1       1.964   2.550  19.192  0.00  0.00    +0.000 N 
ATOM     20  C   UNL     1       0.565   2.906  19.313  0.00  0.00    +0.000 C 
ENDBRANCH  14  15
ENDBRANCH   2  14
BRANCH   5  21
ATOM     21  S   UNL     1       2.423   8.640  18.036  0.00  0.00    +0.000 S 
BRANCH  21  22
ATOM     22  C   UNL     1       1.459   9.997  18.740  0.00  0.00    +0.000 C 
BRANCH  22  23
ATOM     23  C   UNL     1       0.088  10.127  18.097  0.00  0.00    +0.000 C 
ATOM     24  O   UNL     1      -0.414   9.196  17.471  0.00  0.00    +0.000 OA
ATOM     25  N   UNL     1      -0.502  11.355  18.332  0.00  0.00    +0.000 N 
ATOM     26  H   UNL     1       0.117  12.106  18.638  0.00  0.00    +0.000 HD
BRANCH  25  27
ATOM     27  C   UNL     1      -1.872  11.674  18.262  0.00  0.00    +0.000 A 
ATOM     28  C   UNL     1      -2.693  11.339  17.164  0.00  0.00    +0.000 A 
ATOM     29  C   UNL     1      -4.087  11.452  17.246  0.00  0.00    +0.000 A 
ATOM     30  C   UNL     1      -4.616  11.869  18.445  0.00  0.00    +0.000 A 
ATOM     31  C   UNL     1      -3.815  12.263  19.492  0.00  0.00    +0.000 A 
ATOM     32  C   UNL     1      -2.441  12.215  19.422  0.00  0.00    +0.000 A 
ATOM     33  O   UNL     1      -4.541  12.565  20.606  0.00  0.00    +0.000 OA
ATOM     34  C   UNL     1      -5.795  11.962  20.226  0.00  0.00    +0.000 C 
ATOM     35  O   UNL     1      -5.933  11.852  18.793  0.00  0.00    +0.000 OA
ENDBRANCH  25  27
ENDBRANCH  22  23
ENDBRANCH  21  22
ENDBRANCH   5  21
TORSDOF 8
ENDMDL
