MODEL 1
REMARK VINA RESULT:      -5.6      0.000      0.000
REMARK  Name = 
REMARK  7 active torsions:
REMARK  status: ('A' for Active; 'I' for Inactive)
REMARK    1  A    between atoms: C_1  and  C_2
REMARK    2  A    between atoms: C_2  and  C_3
REMARK    3  A    between atoms: C_3  and  C_4
REMARK    4  A    between atoms: C_4  and  C_5
REMARK    5  A    between atoms: C_5  and  O_6
REMARK    6  A    between atoms: O_6  and  C_7
REMARK    7  A    between atoms: C_7  and  C_9
REMARK                            x       y       z     vdW  Elec       q    Type
REMARK                         _______ _______ _______ _____ _____    ______ ____
ROOT
ATOM      1  C   UNL     1       4.544   3.398  18.316  0.00  0.00    +0.000 C 
ATOM      2  O   UNL     1       4.983   3.385  19.456  0.00  0.00    +0.000 OA
ENDROOT
BRANCH   1   3
ATOM      3  C   UNL     1       4.799   4.509  17.382  0.00  0.00    +0.000 A 
ATOM      4  C   UNL     1       4.490   5.823  17.709  0.00  0.00    +0.000 A 
ATOM      5  C   UNL     1       4.754   6.798  16.765  0.00  0.00    +0.000 A 
ATOM      6  N   UNL     1       5.295   6.541  15.552  0.00  0.00    +0.000 NA
ATOM      7  C   UNL     1       5.579   5.256  15.262  0.00  0.00    +0.000 A 
ATOM      8  C   UNL     1       5.351   4.208  16.139  0.00  0.00    +0.000 A 
ENDBRANCH   1   3
BRANCH   1   9
ATOM      9  O   UNL     1       3.738   2.465  17.755  0.00  0.00    +0.000 OA
BRANCH   9  10
ATOM     10  C   UNL     1       2.350   2.832  17.739  0.00  0.00    +0.000 C 
BRANCH  10  11
ATOM     11  C   UNL     1       1.608   2.174  18.900  0.00  0.00    +0.000 C 
BRANCH  11  12
ATOM     12  C   UNL     1       0.742   3.186  19.646  0.00  0.00    +0.000 C 
BRANCH  12  14
ATOM     13  C   UNL     1       2.231   2.958  21.667  0.00  0.00    +0.000 C 
ATOM     14  C   UNL     1       1.541   3.925  20.719  0.00  0.00    +0.000 C 
ENDBRANCH  12  14
ENDBRANCH  11  12
ENDBRANCH  10  11
ENDBRANCH   9  10
ENDBRANCH   1   9
TORSDOF 6
ENDMDL
MODEL 2
REMARK VINA RESULT:      -5.6      0.146      1.269
REMARK  Name = 
REMARK  7 active torsions:
REMARK  status: ('A' for Active; 'I' for Inactive)
REMARK    1  A    between atoms: C_1  and  C_2
REMARK    2  A    between atoms: C_2  and  C_3
REMARK    3  A    between atoms: C_3  and  C_4
REMARK    4  A    between atoms: C_4  and  C_5
REMARK    5  A    between atoms: C_5  and  O_6
REMARK    6  A    between atoms: O_6  and  C_7
REMARK    7  A    between atoms: C_7  and  C_9
REMARK                            x       y       z     vdW  Elec       q    Type
REMARK                         _______ _______ _______ _____ _____    ______ ____
ROOT
ATOM      1  C   UNL     1       4.524   3.439  18.295  0.00  0.00    +0.000 C 
ATOM      2  O   UNL     1       5.020   3.457  19.412  0.00  0.00    +0.000 OA
ENDROOT
BRANCH   1   3
ATOM      3  C   UNL     1       4.813   4.471  17.284  0.00  0.00    +0.000 A 
ATOM      4  C   UNL     1       5.328   4.146  16.035  0.00  0.00    +0.000 A 
ATOM      5  C   UNL     1       5.578   5.183  15.155  0.00  0.00    +0.000 A 
ATOM      6  N   UNL     1       5.347   6.484  15.444  0.00  0.00    +0.000 NA
ATOM      7  C   UNL     1       4.852   6.768  16.665  0.00  0.00    +0.000 A 
ATOM      8  C   UNL     1       4.570   5.801  17.616  0.00  0.00    +0.000 A 
ENDBRANCH   1   3
BRANCH   1   9
ATOM      9  O   UNL     1       3.621   2.542  17.831  0.00  0.00    +0.000 OA
BRANCH   9  10
ATOM     10  C   UNL     1       2.273   3.034  17.807  0.00  0.00    +0.000 C 
BRANCH  10  11
ATOM     11  C   UNL     1       1.396   2.246  18.777  0.00  0.00    +0.000 C 
BRANCH  11  12
ATOM     12  C   UNL     1       0.674   3.176  19.749  0.00  0.00    +0.000 C 
BRANCH  12  14
ATOM     13  C   UNL     1       2.321   2.866  21.632  0.00  0.00    +0.000 C 
ATOM     14  C   UNL     1       1.653   3.864  20.700  0.00  0.00    +0.000 C 
ENDBRANCH  12  14
ENDBRANCH  11  12
ENDBRANCH  10  11
ENDBRANCH   9  10
ENDBRANCH   1   9
TORSDOF 6
ENDMDL
MODEL 3
REMARK VINA RESULT:      -5.5      1.460      1.700
REMARK  Name = 
REMARK  7 active torsions:
REMARK  status: ('A' for Active; 'I' for Inactive)
REMARK    1  A    between atoms: C_1  and  C_2
REMARK    2  A    between atoms: C_2  and  C_3
REMARK    3  A    between atoms: C_3  and  C_4
REMARK    4  A    between atoms: C_4  and  C_5
REMARK    5  A    between atoms: C_5  and  O_6
REMARK    6  A    between atoms: O_6  and  C_7
REMARK    7  A    between atoms: C_7  and  C_9
REMARK                            x       y       z     vdW  Elec       q    Type
REMARK                         _______ _______ _______ _____ _____    ______ ____
ROOT
ATOM      1  C   UNL     1       4.117   3.510  17.749  0.00  0.00    +0.000 C 
ATOM      2  O   UNL     1       4.250   2.775  18.716  0.00  0.00    +0.000 OA
ENDROOT
BRANCH   1   3
ATOM      3  C   UNL     1       5.248   4.237  17.146  0.00  0.00    +0.000 A 
ATOM      4  C   UNL     1       6.163   4.937  17.921  0.00  0.00    +0.000 A 
ATOM      5  C   UNL     1       7.186   5.599  17.265  0.00  0.00    +0.000 A 
ATOM      6  N   UNL     1       7.341   5.596  15.921  0.00  0.00    +0.000 NA
ATOM      7  C   UNL     1       6.434   4.911  15.196  0.00  0.00    +0.000 A 
ATOM      8  C   UNL     1       5.375   4.219  15.759  0.00  0.00    +0.000 A 
ENDBRANCH   1   3
BRANCH   1   9
ATOM      9  O   UNL     1       2.954   3.816  17.126  0.00  0.00    +0.000 OA
BRANCH   9  10
ATOM     10  C   UNL     1       1.866   4.079  18.025  0.00  0.00    +0.000 C 
BRANCH  10  11
ATOM     11  C   UNL     1       2.139   5.339  18.844  0.00  0.00    +0.000 C 
BRANCH  11  12
ATOM     12  C   UNL     1       1.807   5.122  20.318  0.00  0.00    +0.000 C 
BRANCH  12  14
ATOM     13  C   UNL     1       1.869   2.949  21.596  0.00  0.00    +0.000 C 
ATOM     14  C   UNL     1       1.134   3.769  20.548  0.00  0.00    +0.000 C 
ENDBRANCH  12  14
ENDBRANCH  11  12
ENDBRANCH  10  11
ENDBRANCH   9  10
ENDBRANCH   1   9
TORSDOF 6
ENDMDL
MODEL 4
REMARK VINA RESULT:      -5.5      2.573      5.334
REMARK  Name = 
REMARK  7 active torsions:
REMARK  status: ('A' for Active; 'I' for Inactive)
REMARK    1  A    between atoms: C_1  and  C_2
REMARK    2  A    between atoms: C_2  and  C_3
REMARK    3  A    between atoms: C_3  and  C_4
REMARK    4  A    between atoms: C_4  and  C_5
REMARK    5  A    between atoms: C_5  and  O_6
REMARK    6  A    between atoms: O_6  and  C_7
REMARK    7  A    between atoms: C_7  and  C_9
REMARK                            x       y       z     vdW  Elec       q    Type
REMARK                         _______ _______ _______ _____ _____    ______ ____
ROOT
ATOM      1  C   UNL     1       5.731   4.607  18.466  0.00  0.00    +0.000 C 
ATOM      2  O   UNL     1       6.083   4.996  19.569  0.00  0.00    +0.000 OA
ENDROOT
BRANCH   1   3
ATOM      3  C   UNL     1       4.321   4.334  18.136  0.00  0.00    +0.000 A 
ATOM      4  C   UNL     1       3.341   5.312  18.251  0.00  0.00    +0.000 A 
ATOM      5  C   UNL     1       2.043   4.959  17.930  0.00  0.00    +0.000 A 
ATOM      6  N   UNL     1       1.682   3.725  17.511  0.00  0.00    +0.000 NA
ATOM      7  C   UNL     1       2.655   2.797  17.415  0.00  0.00    +0.000 A 
ATOM      8  C   UNL     1       3.983   3.050  17.714  0.00  0.00    +0.000 A 
ENDBRANCH   1   3
BRANCH   1   9
ATOM      9  O   UNL     1       6.541   4.319  17.419  0.00  0.00    +0.000 OA
BRANCH   9  10
ATOM     10  C   UNL     1       6.532   5.317  16.387  0.00  0.00    +0.000 C 
BRANCH  10  11
ATOM     11  C   UNL     1       6.994   4.719  15.059  0.00  0.00    +0.000 C 
BRANCH  11  12
ATOM     12  C   UNL     1       5.818   4.144  14.274  0.00  0.00    +0.000 C 
BRANCH  12  14
ATOM     13  C   UNL     1       5.048   3.269  12.038  0.00  0.00    +0.000 C 
ATOM     14  C   UNL     1       6.242   3.698  12.874  0.00  0.00    +0.000 C 
ENDBRANCH  12  14
ENDBRANCH  11  12
ENDBRANCH  10  11
ENDBRANCH   9  10
ENDBRANCH   1   9
TORSDOF 6
ENDMDL
MODEL 5
REMARK VINA RESULT:      -5.5      1.110      1.321
REMARK  Name = 
REMARK  7 active torsions:
REMARK  status: ('A' for Active; 'I' for Inactive)
REMARK    1  A    between atoms: C_1  and  C_2
REMARK    2  A    between atoms: C_2  and  C_3
REMARK    3  A    between atoms: C_3  and  C_4
REMARK    4  A    between atoms: C_4  and  C_5
REMARK    5  A    between atoms: C_5  and  O_6
REMARK    6  A    between atoms: O_6  and  C_7
REMARK    7  A    between atoms: C_7  and  C_9
REMARK                            x       y       z     vdW  Elec       q    Type
REMARK                         _______ _______ _______ _____ _____    ______ ____
ROOT
ATOM      1  C   UNL     1       4.707   3.442  18.486  0.00  0.00    +0.000 C 
ATOM      2  O   UNL     1       4.952   3.198  19.658  0.00  0.00    +0.000 OA
ENDROOT
BRANCH   1   3
ATOM      3  C   UNL     1       5.228   4.637  17.800  0.00  0.00    +0.000 A 
ATOM      4  C   UNL     1       4.403   5.468  17.053  0.00  0.00    +0.000 A 
ATOM      5  C   UNL     1       4.983   6.561  16.435  0.00  0.00    +0.000 A 
ATOM      6  N   UNL     1       6.299   6.861  16.522  0.00  0.00    +0.000 NA
ATOM      7  C   UNL     1       7.075   6.033  17.250  0.00  0.00    +0.000 A 
ATOM      8  C   UNL     1       6.589   4.913  17.905  0.00  0.00    +0.000 A 
ENDBRANCH   1   3
BRANCH   1   9
ATOM      9  O   UNL     1       3.906   2.720  17.666  0.00  0.00    +0.000 OA
BRANCH   9  10
ATOM     10  C   UNL     1       2.768   2.146  18.326  0.00  0.00    +0.000 C 
BRANCH  10  11
ATOM     11  C   UNL     1       1.620   3.151  18.386  0.00  0.00    +0.000 C 
BRANCH  11  12
ATOM     12  C   UNL     1       0.817   2.996  19.676  0.00  0.00    +0.000 C 
BRANCH  12  14
ATOM     13  C   UNL     1       1.917   5.169  20.329  0.00  0.00    +0.000 C 
ATOM     14  C   UNL     1       1.423   3.816  20.815  0.00  0.00    +0.000 C 
ENDBRANCH  12  14
ENDBRANCH  11  12
ENDBRANCH  10  11
ENDBRANCH   9  10
ENDBRANCH   1   9
TORSDOF 6
ENDMDL
MODEL 6
REMARK VINA RESULT:      -5.4      1.634      2.323
REMARK  Name = 
REMARK  7 active torsions:
REMARK  status: ('A' for Active; 'I' for Inactive)
REMARK    1  A    between atoms: C_1  and  C_2
REMARK    2  A    between atoms: C_2  and  C_3
REMARK    3  A    between atoms: C_3  and  C_4
REMARK    4  A    between atoms: C_4  and  C_5
REMARK    5  A    between atoms: C_5  and  O_6
REMARK    6  A    between atoms: O_6  and  C_7
REMARK    7  A    between atoms: C_7  and  C_9
REMARK                            x       y       z     vdW  Elec       q    Type
REMARK                         _______ _______ _______ _____ _____    ______ ____
ROOT
ATOM      1  C   UNL     1       5.025   4.350  19.218  0.00  0.00    +0.000 C 
ATOM      2  O   UNL     1       5.142   3.198  19.609  0.00  0.00    +0.000 OA
ENDROOT
BRANCH   1   3
ATOM      3  C   UNL     1       5.815   4.889  18.098  0.00  0.00    +0.000 A 
ATOM      4  C   UNL     1       5.780   4.313  16.835  0.00  0.00    +0.000 A 
ATOM      5  C   UNL     1       6.564   4.882  15.848  0.00  0.00    +0.000 A 
ATOM      6  N   UNL     1       7.355   5.961  16.047  0.00  0.00    +0.000 NA
ATOM      7  C   UNL     1       7.372   6.495  17.284  0.00  0.00    +0.000 A 
ATOM      8  C   UNL     1       6.624   5.997  18.339  0.00  0.00    +0.000 A 
ENDBRANCH   1   3
BRANCH   1   9
ATOM      9  O   UNL     1       4.228   5.304  19.756  0.00  0.00    +0.000 OA
BRANCH   9  10
ATOM     10  C   UNL     1       2.895   5.313  19.225  0.00  0.00    +0.000 C 
BRANCH  10  11
ATOM     11  C   UNL     1       1.867   5.342  20.354  0.00  0.00    +0.000 C 
BRANCH  11  12
ATOM     12  C   UNL     1       0.924   4.144  20.273  0.00  0.00    +0.000 C 
BRANCH  12  14
ATOM     13  C   UNL     1       2.293   2.599  21.720  0.00  0.00    +0.000 C 
ATOM     14  C   UNL     1       1.688   2.822  20.343  0.00  0.00    +0.000 C 
ENDBRANCH  12  14
ENDBRANCH  11  12
ENDBRANCH  10  11
ENDBRANCH   9  10
ENDBRANCH   1   9
TORSDOF 6
ENDMDL
MODEL 7
REMARK VINA RESULT:      -5.4      1.663      1.953
REMARK  Name = 
REMARK  7 active torsions:
REMARK  status: ('A' for Active; 'I' for Inactive)
REMARK    1  A    between atoms: C_1  and  C_2
REMARK    2  A    between atoms: C_2  and  C_3
REMARK    3  A    between atoms: C_3  and  C_4
REMARK    4  A    between atoms: C_4  and  C_5
REMARK    5  A    between atoms: C_5  and  O_6
REMARK    6  A    between atoms: O_6  and  C_7
REMARK    7  A    between atoms: C_7  and  C_9
REMARK                            x       y       z     vdW  Elec       q    Type
REMARK                         _______ _______ _______ _____ _____    ______ ____
ROOT
ATOM      1  C   UNL     1       5.835   5.346  19.113  0.00  0.00    +0.000 C 
ATOM      2  O   UNL     1       6.815   5.269  19.840  0.00  0.00    +0.000 OA
ENDROOT
BRANCH   1   3
ATOM      3  C   UNL     1       5.943   5.436  17.647  0.00  0.00    +0.000 A 
ATOM      4  C   UNL     1       5.138   6.292  16.906  0.00  0.00    +0.000 A 
ATOM      5  C   UNL     1       5.302   6.299  15.533  0.00  0.00    +0.000 A 
ATOM      6  N   UNL     1       6.200   5.525  14.881  0.00  0.00    +0.000 NA
ATOM      7  C   UNL     1       6.962   4.702  15.626  0.00  0.00    +0.000 A 
ATOM      8  C   UNL     1       6.872   4.620  17.006  0.00  0.00    +0.000 A 
ENDBRANCH   1   3
BRANCH   1   9
ATOM      9  O   UNL     1       4.543   5.416  19.512  0.00  0.00    +0.000 OA
BRANCH   9  10
ATOM     10  C   UNL     1       3.860   4.154  19.492  0.00  0.00    +0.000 C 
BRANCH  10  11
ATOM     11  C   UNL     1       2.553   4.264  18.710  0.00  0.00    +0.000 C 
BRANCH  11  12
ATOM     12  C   UNL     1       1.347   4.013  19.612  0.00  0.00    +0.000 C 
BRANCH  12  14
ATOM     13  C   UNL     1       1.487   2.564  21.671  0.00  0.00    +0.000 C 
ATOM     14  C   UNL     1       1.753   3.941  21.084  0.00  0.00    +0.000 C 
ENDBRANCH  12  14
ENDBRANCH  11  12
ENDBRANCH  10  11
ENDBRANCH   9  10
ENDBRANCH   1   9
TORSDOF 6
ENDMDL
MODEL 8
REMARK VINA RESULT:      -5.3      1.095      1.723
REMARK  Name = 
REMARK  7 active torsions:
REMARK  status: ('A' for Active; 'I' for Inactive)
REMARK    1  A    between atoms: C_1  and  C_2
REMARK    2  A    between atoms: C_2  and  C_3
REMARK    3  A    between atoms: C_3  and  C_4
REMARK    4  A    between atoms: C_4  and  C_5
REMARK    5  A    between atoms: C_5  and  O_6
REMARK    6  A    between atoms: O_6  and  C_7
REMARK    7  A    between atoms: C_7  and  C_9
REMARK                            x       y       z     vdW  Elec       q    Type
REMARK                         _______ _______ _______ _____ _____    ______ ____
ROOT
ATOM      1  C   UNL     1       3.138   3.444  17.390  0.00  0.00    +0.000 C 
ATOM      2  O   UNL     1       1.951   3.470  17.099  0.00  0.00    +0.000 OA
ENDROOT
BRANCH   1   3
ATOM      3  C   UNL     1       4.077   4.503  16.980  0.00  0.00    +0.000 A 
ATOM      4  C   UNL     1       3.974   5.799  17.468  0.00  0.00    +0.000 A 
ATOM      5  C   UNL     1       4.894   6.729  17.017  0.00  0.00    +0.000 A 
ATOM      6  N   UNL     1       5.880   6.443  16.136  0.00  0.00    +0.000 NA
ATOM      7  C   UNL     1       5.950   5.178  15.677  0.00  0.00    +0.000 A 
ATOM      8  C   UNL     1       5.076   4.176  16.066  0.00  0.00    +0.000 A 
ENDBRANCH   1   3
BRANCH   1   9
ATOM      9  O   UNL     1       3.779   2.457  18.060  0.00  0.00    +0.000 OA
BRANCH   9  10
ATOM     10  C   UNL     1       3.864   2.677  19.475  0.00  0.00    +0.000 C 
BRANCH  10  11
ATOM     11  C   UNL     1       2.558   2.278  20.160  0.00  0.00    +0.000 C 
BRANCH  11  12
ATOM     12  C   UNL     1       2.146   3.310  21.207  0.00  0.00    +0.000 C 
BRANCH  12  14
ATOM     13  C   UNL     1       1.818   5.693  20.453  0.00  0.00    +0.000 C 
ATOM     14  C   UNL     1       1.165   4.332  20.632  0.00  0.00    +0.000 C 
ENDBRANCH  12  14
ENDBRANCH  11  12
ENDBRANCH  10  11
ENDBRANCH   9  10
ENDBRANCH   1   9
TORSDOF 6
ENDMDL
MODEL 9
REMARK VINA RESULT:      -5.3      1.556      1.882
REMARK  Name = 
REMARK  7 active torsions:
REMARK  status: ('A' for Active; 'I' for Inactive)
REMARK    1  A    between atoms: C_1  and  C_2
REMARK    2  A    between atoms: C_2  and  C_3
REMARK    3  A    between atoms: C_3  and  C_4
REMARK    4  A    between atoms: C_4  and  C_5
REMARK    5  A    between atoms: C_5  and  O_6
REMARK    6  A    between atoms: O_6  and  C_7
REMARK    7  A    between atoms: C_7  and  C_9
REMARK                            x       y       z     vdW  Elec       q    Type
REMARK                         _______ _______ _______ _____ _____    ______ ____
ROOT
ATOM      1  C   UNL     1       3.844   5.073  18.199  0.00  0.00    +0.000 C 
ATOM      2  O   UNL     1       3.723   5.774  19.193  0.00  0.00    +0.000 OA
ENDROOT
BRANCH   1   3
ATOM      3  C   UNL     1       5.098   5.002  17.429  0.00  0.00    +0.000 A 
ATOM      4  C   UNL     1       5.132   5.261  16.065  0.00  0.00    +0.000 A 
ATOM      5  C   UNL     1       6.354   5.158  15.423  0.00  0.00    +0.000 A 
ATOM      6  N   UNL     1       7.505   4.823  16.050  0.00  0.00    +0.000 NA
ATOM      7  C   UNL     1       7.437   4.572  17.373  0.00  0.00    +0.000 A 
ATOM      8  C   UNL     1       6.263   4.647  18.104  0.00  0.00    +0.000 A 
ENDBRANCH   1   3
BRANCH   1   9
ATOM      9  O   UNL     1       2.876   4.319  17.625  0.00  0.00    +0.000 OA
BRANCH   9  10
ATOM     10  C   UNL     1       2.935   2.930  17.981  0.00  0.00    +0.000 C 
BRANCH  10  11
ATOM     11  C   UNL     1       1.569   2.440  18.457  0.00  0.00    +0.000 C 
BRANCH  11  12
ATOM     12  C   UNL     1       0.971   3.389  19.492  0.00  0.00    +0.000 C 
BRANCH  12  14
ATOM     13  C   UNL     1       2.276   3.654  21.633  0.00  0.00    +0.000 C 
ATOM     14  C   UNL     1       1.186   2.874  20.915  0.00  0.00    +0.000 C 
ENDBRANCH  12  14
ENDBRANCH  11  12
ENDBRANCH  10  11
ENDBRANCH   9  10
ENDBRANCH   1   9
TORSDOF 6
ENDMDL
