MODEL 1
REMARK VINA RESULT:      -8.7      0.000      0.000
REMARK  Name = 
REMARK  4 active torsions:
REMARK  status: ('A' for Active; 'I' for Inactive)
REMARK    1  A    between atoms: C_1  and  N_2
REMARK    2  A    between atoms: C_7  and  C_8
REMARK    3  A    between atoms: C_8  and  N_9
REMARK    4  A    between atoms: C_17  and  C_18
REMARK                            x       y       z     vdW  Elec       q    Type
REMARK                         _______ _______ _______ _____ _____    ______ ____
ROOT
ATOM      1  C   UNL     1       1.753   2.756  21.659  0.00  0.00    +0.000 C 
ATOM      2  N   UNL     1       2.446   3.475  20.587  0.00  0.00    +0.000 NA
ATOM      3  C   UNL     1       3.286   2.508  19.853  0.00  0.00    +0.000 C 
ATOM      4  C   UNL     1       2.305   1.848  18.870  0.00  0.00    +0.000 C 
ATOM      5  C   UNL     1       1.185   2.867  18.669  0.00  0.00    +0.000 C 
ATOM      6  C   UNL     1       1.625   4.070  19.505  0.00  0.00    +0.000 C 
ATOM      7  C   UNL     1       2.469   5.013  18.556  0.00  0.00    +0.000 C 
ATOM      8  C   UNL     1       3.916   4.439  18.281  0.00  0.00    +0.000 C 
ATOM      9  C   UNL     1       4.391   3.390  19.307  0.00  0.00    +0.000 C 
ENDROOT
BRANCH   8  10
ATOM     10  C   UNL     1       5.100   5.378  18.042  0.00  0.00    +0.000 A 
ATOM     11  C   UNL     1       5.065   6.416  17.095  0.00  0.00    +0.000 A 
ATOM     12  C   UNL     1       6.136   7.306  16.960  0.00  0.00    +0.000 A 
ATOM     13  C   UNL     1       7.232   7.206  17.804  0.00  0.00    +0.000 A 
ATOM     14 CL   UNL     1       8.534   8.321  17.664  0.00  0.00    +0.000 Cl
ATOM     15  C   UNL     1       7.273   6.213  18.784  0.00  0.00    +0.000 A 
ATOM     16  C   UNL     1       6.216   5.305  18.893  0.00  0.00    +0.000 A 
ENDBRANCH   8  10
BRANCH   7  17
ATOM     17  C   UNL     1       2.393   6.516  18.878  0.00  0.00    +0.000 C 
BRANCH  17  18
ATOM     18  N   UNL     1       2.044   6.776  20.292  0.00  0.00    +0.000 N 
ATOM     19  C   UNL     1       1.539   8.077  20.495  0.00  0.00    +0.000 A 
ATOM     20  C   UNL     1       1.189   8.471  21.794  0.00  0.00    +0.000 A 
ATOM     21  C   UNL     1       0.675   9.747  22.018  0.00  0.00    +0.000 A 
ATOM     22  C   UNL     1       0.502  10.603  20.942  0.00  0.00    +0.000 A 
ATOM     23  C   UNL     1       0.848  10.130  19.684  0.00  0.00    +0.000 A 
ATOM     24  F   UNL     1       0.682  10.938  18.633  0.00  0.00    +0.000 F 
ATOM     25  N   UNL     1       1.353   8.912  19.449  0.00  0.00    +0.000 NA
ATOM     26  H   UNL     1       2.833   6.640  20.916  0.00  0.00    +0.000 HD
ENDBRANCH  17  18
ENDBRANCH   7  17
TORSDOF 3
ENDMDL
MODEL 2
REMARK VINA RESULT:      -8.5      2.860      5.515
REMARK  Name = 
REMARK  4 active torsions:
REMARK  status: ('A' for Active; 'I' for Inactive)
REMARK    1  A    between atoms: C_1  and  N_2
REMARK    2  A    between atoms: C_7  and  C_8
REMARK    3  A    between atoms: C_8  and  N_9
REMARK    4  A    between atoms: C_17  and  C_18
REMARK                            x       y       z     vdW  Elec       q    Type
REMARK                         _______ _______ _______ _____ _____    ______ ____
ROOT
ATOM      1  C   UNL     1       3.265   1.621  17.763  0.00  0.00    +0.000 C 
ATOM      2  N   UNL     1       3.115   2.945  18.373  0.00  0.00    +0.000 NA
ATOM      3  C   UNL     1       1.724   3.075  18.853  0.00  0.00    +0.000 C 
ATOM      4  C   UNL     1       1.744   2.371  20.219  0.00  0.00    +0.000 C 
ATOM      5  C   UNL     1       3.194   2.447  20.694  0.00  0.00    +0.000 C 
ATOM      6  C   UNL     1       3.902   3.241  19.595  0.00  0.00    +0.000 C 
ATOM      7  C   UNL     1       3.831   4.768  20.004  0.00  0.00    +0.000 C 
ATOM      8  C   UNL     1       2.390   5.378  19.775  0.00  0.00    +0.000 C 
ATOM      9  C   UNL     1       1.505   4.574  18.801  0.00  0.00    +0.000 C 
ENDROOT
BRANCH   8  10
ATOM     10  C   UNL     1       2.212   6.851  19.406  0.00  0.00    +0.000 A 
ATOM     11  C   UNL     1       2.414   7.337  18.102  0.00  0.00    +0.000 A 
ATOM     12  C   UNL     1       2.163   8.676  17.783  0.00  0.00    +0.000 A 
ATOM     13  C   UNL     1       1.657   9.535  18.746  0.00  0.00    +0.000 A 
ATOM     14 CL   UNL     1       1.314  11.173  18.348  0.00  0.00    +0.000 Cl
ATOM     15  C   UNL     1       1.405   9.070  20.038  0.00  0.00    +0.000 A 
ATOM     16  C   UNL     1       1.688   7.740  20.360  0.00  0.00    +0.000 A 
ENDBRANCH   8  10
BRANCH   7  17
ATOM     17  C   UNL     1       5.010   5.636  19.532  0.00  0.00    +0.000 C 
BRANCH  17  18
ATOM     18  N   UNL     1       6.070   4.842  18.873  0.00  0.00    +0.000 N 
ATOM     19  C   UNL     1       6.126   5.061  17.480  0.00  0.00    +0.000 A 
ATOM     20  C   UNL     1       7.070   4.354  16.723  0.00  0.00    +0.000 A 
ATOM     21  C   UNL     1       7.153   4.564  15.347  0.00  0.00    +0.000 A 
ATOM     22  C   UNL     1       6.307   5.487  14.753  0.00  0.00    +0.000 A 
ATOM     23  C   UNL     1       5.418   6.165  15.575  0.00  0.00    +0.000 A 
ATOM     24  F   UNL     1       4.599   7.064  15.022  0.00  0.00    +0.000 F 
ATOM     25  N   UNL     1       5.315   5.970  16.897  0.00  0.00    +0.000 NA
ATOM     26  H   UNL     1       5.963   3.845  19.033  0.00  0.00    +0.000 HD
ENDBRANCH  17  18
ENDBRANCH   7  17
TORSDOF 3
ENDMDL
MODEL 3
REMARK VINA RESULT:      -8.4      2.078      2.561
REMARK  Name = 
REMARK  4 active torsions:
REMARK  status: ('A' for Active; 'I' for Inactive)
REMARK    1  A    between atoms: C_1  and  N_2
REMARK    2  A    between atoms: C_7  and  C_8
REMARK    3  A    between atoms: C_8  and  N_9
REMARK    4  A    between atoms: C_17  and  C_18
REMARK                            x       y       z     vdW  Elec       q    Type
REMARK                         _______ _______ _______ _____ _____    ______ ____
ROOT
ATOM      1  C   UNL     1       2.678   2.703  21.566  0.00  0.00    +0.000 C 
ATOM      2  N   UNL     1       3.025   3.254  20.254  0.00  0.00    +0.000 NA
ATOM      3  C   UNL     1       2.898   2.174  19.254  0.00  0.00    +0.000 C 
ATOM      4  C   UNL     1       1.396   2.157  18.928  0.00  0.00    +0.000 C 
ATOM      5  C   UNL     1       0.893   3.561  19.253  0.00  0.00    +0.000 C 
ATOM      6  C   UNL     1       2.152   4.313  19.691  0.00  0.00    +0.000 C 
ATOM      7  C   UNL     1       2.769   4.981  18.397  0.00  0.00    +0.000 C 
ATOM      8  C   UNL     1       3.496   3.925  17.472  0.00  0.00    +0.000 C 
ATOM      9  C   UNL     1       3.878   2.611  18.183  0.00  0.00    +0.000 C 
ENDROOT
BRANCH   8  10
ATOM     10  C   UNL     1       4.704   4.325  16.624  0.00  0.00    +0.000 A 
ATOM     11  C   UNL     1       6.018   4.322  17.126  0.00  0.00    +0.000 A 
ATOM     12  C   UNL     1       7.107   4.616  16.298  0.00  0.00    +0.000 A 
ATOM     13  C   UNL     1       6.907   4.863  14.949  0.00  0.00    +0.000 A 
ATOM     14 CL   UNL     1       8.247   5.189  13.922  0.00  0.00    +0.000 Cl
ATOM     15  C   UNL     1       5.618   4.829  14.414  0.00  0.00    +0.000 A 
ATOM     16  C   UNL     1       4.529   4.567  15.251  0.00  0.00    +0.000 A 
ENDBRANCH   8  10
BRANCH   7  17
ATOM     17  C   UNL     1       3.524   6.301  18.630  0.00  0.00    +0.000 C 
BRANCH  17  18
ATOM     18  N   UNL     1       2.969   7.418  17.834  0.00  0.00    +0.000 N 
ATOM     19  C   UNL     1       2.092   8.233  18.582  0.00  0.00    +0.000 A 
ATOM     20  C   UNL     1       1.472   9.318  17.948  0.00  0.00    +0.000 A 
ATOM     21  C   UNL     1       0.612  10.144  18.669  0.00  0.00    +0.000 A 
ATOM     22  C   UNL     1       0.398   9.886  20.014  0.00  0.00    +0.000 A 
ATOM     23  C   UNL     1       1.069   8.809  20.575  0.00  0.00    +0.000 A 
ATOM     24  F   UNL     1       0.882   8.548  21.872  0.00  0.00    +0.000 F 
ATOM     25  N   UNL     1       1.891   7.996  19.897  0.00  0.00    +0.000 NA
ATOM     26  H   UNL     1       2.476   7.098  17.007  0.00  0.00    +0.000 HD
ENDBRANCH  17  18
ENDBRANCH   7  17
TORSDOF 3
ENDMDL
MODEL 4
REMARK VINA RESULT:      -8.4      1.322      1.572
REMARK  Name = 
REMARK  4 active torsions:
REMARK  status: ('A' for Active; 'I' for Inactive)
REMARK    1  A    between atoms: C_1  and  N_2
REMARK    2  A    between atoms: C_7  and  C_8
REMARK    3  A    between atoms: C_8  and  N_9
REMARK    4  A    between atoms: C_17  and  C_18
REMARK                            x       y       z     vdW  Elec       q    Type
REMARK                         _______ _______ _______ _____ _____    ______ ____
ROOT
ATOM      1  C   UNL     1       1.842   2.360  22.008  0.00  0.00    +0.000 C 
ATOM      2  N   UNL     1       2.353   3.248  20.961  0.00  0.00    +0.000 NA
ATOM      3  C   UNL     1       2.742   2.416  19.804  0.00  0.00    +0.000 C 
ATOM      4  C   UNL     1       1.416   2.187  19.060  0.00  0.00    +0.000 C 
ATOM      5  C   UNL     1       0.521   3.360  19.453  0.00  0.00    +0.000 C 
ATOM      6  C   UNL     1       1.412   4.220  20.352  0.00  0.00    +0.000 C 
ATOM      7  C   UNL     1       2.144   5.267  19.420  0.00  0.00    +0.000 C 
ATOM      8  C   UNL     1       3.310   4.603  18.583  0.00  0.00    +0.000 C 
ATOM      9  C   UNL     1       3.816   3.261  19.147  0.00  0.00    +0.000 C 
ENDROOT
BRANCH   8  10
ATOM     10  C   UNL     1       4.553   5.407  18.197  0.00  0.00    +0.000 A 
ATOM     11  C   UNL     1       4.529   6.425  17.227  0.00  0.00    +0.000 A 
ATOM     12  C   UNL     1       5.666   7.193  16.959  0.00  0.00    +0.000 A 
ATOM     13  C   UNL     1       6.827   6.995  17.691  0.00  0.00    +0.000 A 
ATOM     14 CL   UNL     1       8.215   7.963  17.387  0.00  0.00    +0.000 Cl
ATOM     15  C   UNL     1       6.866   6.022  18.691  0.00  0.00    +0.000 A 
ATOM     16  C   UNL     1       5.738   5.234  18.934  0.00  0.00    +0.000 A 
ENDBRANCH   8  10
BRANCH   7  17
ATOM     17  C   UNL     1       2.473   6.620  20.074  0.00  0.00    +0.000 C 
BRANCH  17  18
ATOM     18  N   UNL     1       1.935   7.765  19.307  0.00  0.00    +0.000 N 
ATOM     19  C   UNL     1       1.263   8.698  20.125  0.00  0.00    +0.000 A 
ATOM     20  C   UNL     1       0.680   9.823  19.527  0.00  0.00    +0.000 A 
ATOM     21  C   UNL     1       0.021  10.765  20.316  0.00  0.00    +0.000 A 
ATOM     22  C   UNL     1      -0.030  10.578  21.688  0.00  0.00    +0.000 A 
ATOM     23  C   UNL     1       0.593   9.451  22.206  0.00  0.00    +0.000 A 
ATOM     24  F   UNL     1       0.560   9.257  23.528  0.00  0.00    +0.000 F 
ATOM     25  N   UNL     1       1.222   8.529  21.465  0.00  0.00    +0.000 NA
ATOM     26  H   UNL     1       1.301   7.474  18.570  0.00  0.00    +0.000 HD
ENDBRANCH  17  18
ENDBRANCH   7  17
TORSDOF 3
ENDMDL
MODEL 5
REMARK VINA RESULT:      -8.2      3.323      6.069
REMARK  Name = 
REMARK  4 active torsions:
REMARK  status: ('A' for Active; 'I' for Inactive)
REMARK    1  A    between atoms: C_1  and  N_2
REMARK    2  A    between atoms: C_7  and  C_8
REMARK    3  A    between atoms: C_8  and  N_9
REMARK    4  A    between atoms: C_17  and  C_18
REMARK                            x       y       z     vdW  Elec       q    Type
REMARK                         _______ _______ _______ _____ _____    ______ ____
ROOT
ATOM      1  C   UNL     1       1.524   1.997  18.508  0.00  0.00    +0.000 C 
ATOM      2  N   UNL     1       1.766   3.320  19.087  0.00  0.00    +0.000 NA
ATOM      3  C   UNL     1       0.795   3.527  20.181  0.00  0.00    +0.000 C 
ATOM      4  C   UNL     1       1.437   2.809  21.378  0.00  0.00    +0.000 C 
ATOM      5  C   UNL     1       2.936   2.792  21.086  0.00  0.00    +0.000 C 
ATOM      6  C   UNL     1       3.064   3.555  19.766  0.00  0.00    +0.000 C 
ATOM      7  C   UNL     1       3.289   5.079  20.128  0.00  0.00    +0.000 C 
ATOM      8  C   UNL     1       1.957   5.776  20.617  0.00  0.00    +0.000 C 
ATOM      9  C   UNL     1       0.665   5.038  20.213  0.00  0.00    +0.000 C 
ENDROOT
BRANCH   8  10
ATOM     10  C   UNL     1       1.707   7.262  20.353  0.00  0.00    +0.000 A 
ATOM     11  C   UNL     1       1.801   7.831  19.070  0.00  0.00    +0.000 A 
ATOM     12  C   UNL     1       1.486   9.176  18.853  0.00  0.00    +0.000 A 
ATOM     13  C   UNL     1       1.021   9.958  19.899  0.00  0.00    +0.000 A 
ATOM     14 CL   UNL     1       0.600  11.603  19.627  0.00  0.00    +0.000 Cl
ATOM     15  C   UNL     1       0.875   9.408  21.174  0.00  0.00    +0.000 A 
ATOM     16  C   UNL     1       1.222   8.072  21.394  0.00  0.00    +0.000 A 
ENDBRANCH   8  10
BRANCH   7  17
ATOM     17  C   UNL     1       4.136   5.880  19.125  0.00  0.00    +0.000 C 
BRANCH  17  18
ATOM     18  N   UNL     1       3.819   5.545  17.719  0.00  0.00    +0.000 N 
ATOM     19  C   UNL     1       4.943   5.079  17.005  0.00  0.00    +0.000 A 
ATOM     20  C   UNL     1       4.793   4.746  15.652  0.00  0.00    +0.000 A 
ATOM     21  C   UNL     1       5.887   4.272  14.929  0.00  0.00    +0.000 A 
ATOM     22  C   UNL     1       7.105   4.120  15.572  0.00  0.00    +0.000 A 
ATOM     23  C   UNL     1       7.166   4.447  16.919  0.00  0.00    +0.000 A 
ATOM     24  F   UNL     1       8.330   4.301  17.557  0.00  0.00    +0.000 F 
ATOM     25  N   UNL     1       6.130   4.914  17.629  0.00  0.00    +0.000 NA
ATOM     26  H   UNL     1       3.424   6.331  17.213  0.00  0.00    +0.000 HD
ENDBRANCH  17  18
ENDBRANCH   7  17
TORSDOF 3
ENDMDL
MODEL 6
REMARK VINA RESULT:      -7.8      3.341      6.024
REMARK  Name = 
REMARK  4 active torsions:
REMARK  status: ('A' for Active; 'I' for Inactive)
REMARK    1  A    between atoms: C_1  and  N_2
REMARK    2  A    between atoms: C_7  and  C_8
REMARK    3  A    between atoms: C_8  and  N_9
REMARK    4  A    between atoms: C_17  and  C_18
REMARK                            x       y       z     vdW  Elec       q    Type
REMARK                         _______ _______ _______ _____ _____    ______ ____
ROOT
ATOM      1  C   UNL     1       1.111   1.766  18.861  0.00  0.00    +0.000 C 
ATOM      2  N   UNL     1       1.562   3.130  19.148  0.00  0.00    +0.000 NA
ATOM      3  C   UNL     1       1.108   3.488  20.507  0.00  0.00    +0.000 C 
ATOM      4  C   UNL     1       2.176   2.868  21.422  0.00  0.00    +0.000 C 
ATOM      5  C   UNL     1       3.433   2.759  20.563  0.00  0.00    +0.000 C 
ATOM      6  C   UNL     1       3.023   3.378  19.226  0.00  0.00    +0.000 C 
ATOM      7  C   UNL     1       3.370   4.919  19.299  0.00  0.00    +0.000 C 
ATOM      8  C   UNL     1       2.344   5.718  20.197  0.00  0.00    +0.000 C 
ATOM      9  C   UNL     1       0.999   4.998  20.422  0.00  0.00    +0.000 C 
ENDROOT
BRANCH   8  10
ATOM     10  C   UNL     1       2.006   7.179  19.892  0.00  0.00    +0.000 A 
ATOM     11  C   UNL     1       2.170   7.745  18.615  0.00  0.00    +0.000 A 
ATOM     12  C   UNL     1       1.774   9.061  18.353  0.00  0.00    +0.000 A 
ATOM     13  C   UNL     1       1.161   9.812  19.344  0.00  0.00    +0.000 A 
ATOM     14 CL   UNL     1       0.642  11.418  19.014  0.00  0.00    +0.000 Cl
ATOM     15  C   UNL     1       0.945   9.260  20.608  0.00  0.00    +0.000 A 
ATOM     16  C   UNL     1       1.372   7.957  20.875  0.00  0.00    +0.000 A 
ENDBRANCH   8  10
BRANCH   7  17
ATOM     17  C   UNL     1       3.746   5.578  17.960  0.00  0.00    +0.000 C 
BRANCH  17  18
ATOM     18  N   UNL     1       5.197   5.842  17.846  0.00  0.00    +0.000 N 
ATOM     19  C   UNL     1       5.737   5.388  16.624  0.00  0.00    +0.000 A 
ATOM     20  C   UNL     1       7.109   5.550  16.390  0.00  0.00    +0.000 A 
ATOM     21  C   UNL     1       7.663   5.121  15.185  0.00  0.00    +0.000 A 
ATOM     22  C   UNL     1       6.837   4.554  14.227  0.00  0.00    +0.000 A 
ATOM     23  C   UNL     1       5.485   4.452  14.524  0.00  0.00    +0.000 A 
ATOM     24  F   UNL     1       4.672   3.915  13.611  0.00  0.00    +0.000 F 
ATOM     25  N   UNL     1       4.936   4.848  15.680  0.00  0.00    +0.000 NA
ATOM     26  H   UNL     1       5.728   5.422  18.603  0.00  0.00    +0.000 HD
ENDBRANCH  17  18
ENDBRANCH   7  17
TORSDOF 3
ENDMDL
MODEL 7
REMARK VINA RESULT:      -7.8      1.628      1.963
REMARK  Name = 
REMARK  4 active torsions:
REMARK  status: ('A' for Active; 'I' for Inactive)
REMARK    1  A    between atoms: C_1  and  N_2
REMARK    2  A    between atoms: C_7  and  C_8
REMARK    3  A    between atoms: C_8  and  N_9
REMARK    4  A    between atoms: C_17  and  C_18
REMARK                            x       y       z     vdW  Elec       q    Type
REMARK                         _______ _______ _______ _____ _____    ______ ____
ROOT
ATOM      1  C   UNL     1       2.311   2.656  21.664  0.00  0.00    +0.000 C 
ATOM      2  N   UNL     1       2.711   3.188  20.359  0.00  0.00    +0.000 NA
ATOM      3  C   UNL     1       2.794   2.059  19.409  0.00  0.00    +0.000 C 
ATOM      4  C   UNL     1       1.338   1.857  18.959  0.00  0.00    +0.000 C 
ATOM      5  C   UNL     1       0.657   3.208  19.168  0.00  0.00    +0.000 C 
ATOM      6  C   UNL     1       1.781   4.115  19.671  0.00  0.00    +0.000 C 
ATOM      7  C   UNL     1       2.435   4.794  18.401  0.00  0.00    +0.000 C 
ATOM      8  C   UNL     1       3.353   3.790  17.596  0.00  0.00    +0.000 C 
ATOM      9  C   UNL     1       3.811   2.559  18.403  0.00  0.00    +0.000 C 
ENDROOT
BRANCH   8  10
ATOM     10  C   UNL     1       4.581   4.289  16.833  0.00  0.00    +0.000 A 
ATOM     11  C   UNL     1       5.844   4.428  17.435  0.00  0.00    +0.000 A 
ATOM     12  C   UNL     1       6.963   4.810  16.687  0.00  0.00    +0.000 A 
ATOM     13  C   UNL     1       6.849   5.005  15.319  0.00  0.00    +0.000 A 
ATOM     14 CL   UNL     1       8.230   5.439  14.391  0.00  0.00    +0.000 Cl
ATOM     15  C   UNL     1       5.617   4.830  14.686  0.00  0.00    +0.000 A 
ATOM     16  C   UNL     1       4.495   4.481  15.443  0.00  0.00    +0.000 A 
ENDBRANCH   8  10
BRANCH   7  17
ATOM     17  C   UNL     1       3.017   6.201  18.627  0.00  0.00    +0.000 C 
BRANCH  17  18
ATOM     18  N   UNL     1       2.709   6.731  19.973  0.00  0.00    +0.000 N 
ATOM     19  C   UNL     1       1.938   7.912  19.928  0.00  0.00    +0.000 A 
ATOM     20  C   UNL     1       1.593   8.540  21.132  0.00  0.00    +0.000 A 
ATOM     21  C   UNL     1       0.821   9.700  21.113  0.00  0.00    +0.000 A 
ATOM     22  C   UNL     1       0.392  10.206  19.896  0.00  0.00    +0.000 A 
ATOM     23  C   UNL     1       0.755   9.513  18.750  0.00  0.00    +0.000 A 
ATOM     24  F   UNL     1       0.345   9.980  17.567  0.00  0.00    +0.000 F 
ATOM     25  N   UNL     1       1.504   8.402  18.746  0.00  0.00    +0.000 NA
ATOM     26  H   UNL     1       3.546   6.919  20.516  0.00  0.00    +0.000 HD
ENDBRANCH  17  18
ENDBRANCH   7  17
TORSDOF 3
ENDMDL
MODEL 8
REMARK VINA RESULT:      -7.5      1.169      1.741
REMARK  Name = 
REMARK  4 active torsions:
REMARK  status: ('A' for Active; 'I' for Inactive)
REMARK    1  A    between atoms: C_1  and  N_2
REMARK    2  A    between atoms: C_7  and  C_8
REMARK    3  A    between atoms: C_8  and  N_9
REMARK    4  A    between atoms: C_17  and  C_18
REMARK                            x       y       z     vdW  Elec       q    Type
REMARK                         _______ _______ _______ _____ _____    ______ ____
ROOT
ATOM      1  C   UNL     1       2.012   2.087  21.045  0.00  0.00    +0.000 C 
ATOM      2  N   UNL     1       2.647   3.101  20.200  0.00  0.00    +0.000 NA
ATOM      3  C   UNL     1       3.398   2.406  19.134  0.00  0.00    +0.000 C 
ATOM      4  C   UNL     1       2.325   2.096  18.077  0.00  0.00    +0.000 C 
ATOM      5  C   UNL     1       1.228   3.135  18.296  0.00  0.00    +0.000 C 
ATOM      6  C   UNL     1       1.768   4.012  19.427  0.00  0.00    +0.000 C 
ATOM      7  C   UNL     1       2.570   5.199  18.755  0.00  0.00    +0.000 C 
ATOM      8  C   UNL     1       3.973   4.728  18.199  0.00  0.00    +0.000 C 
ATOM      9  C   UNL     1       4.488   3.407  18.804  0.00  0.00    +0.000 C 
ENDROOT
BRANCH   8  10
ATOM     10  C   UNL     1       5.166   5.685  18.170  0.00  0.00    +0.000 A 
ATOM     11  C   UNL     1       6.339   5.457  18.910  0.00  0.00    +0.000 A 
ATOM     12  C   UNL     1       7.442   6.311  18.796  0.00  0.00    +0.000 A 
ATOM     13  C   UNL     1       7.409   7.371  17.903  0.00  0.00    +0.000 A 
ATOM     14 CL   UNL     1       8.776   8.401  17.735  0.00  0.00    +0.000 Cl
ATOM     15  C   UNL     1       6.274   7.594  17.122  0.00  0.00    +0.000 A 
ATOM     16  C   UNL     1       5.163   6.759  17.263  0.00  0.00    +0.000 A 
ENDBRANCH   8  10
BRANCH   7  17
ATOM     17  C   UNL     1       2.568   6.525  19.535  0.00  0.00    +0.000 C 
BRANCH  17  18
ATOM     18  N   UNL     1       2.027   7.649  18.740  0.00  0.00    +0.000 N 
ATOM     19  C   UNL     1       1.424   8.641  19.542  0.00  0.00    +0.000 A 
ATOM     20  C   UNL     1       0.847   9.755  18.918  0.00  0.00    +0.000 A 
ATOM     21  C   UNL     1       0.257  10.754  19.691  0.00  0.00    +0.000 A 
ATOM     22  C   UNL     1       0.268  10.635  21.072  0.00  0.00    +0.000 A 
ATOM     23  C   UNL     1       0.882   9.514  21.614  0.00  0.00    +0.000 A 
ATOM     24  F   UNL     1       0.909   9.385  22.943  0.00  0.00    +0.000 F 
ATOM     25  N   UNL     1       1.445   8.538  20.889  0.00  0.00    +0.000 NA
ATOM     26  H   UNL     1       1.349   7.344  18.049  0.00  0.00    +0.000 HD
ENDBRANCH  17  18
ENDBRANCH   7  17
TORSDOF 3
ENDMDL
MODEL 9
REMARK VINA RESULT:      -7.5      2.911      5.773
REMARK  Name = 
REMARK  4 active torsions:
REMARK  status: ('A' for Active; 'I' for Inactive)
REMARK    1  A    between atoms: C_1  and  N_2
REMARK    2  A    between atoms: C_7  and  C_8
REMARK    3  A    between atoms: C_8  and  N_9
REMARK    4  A    between atoms: C_17  and  C_18
REMARK                            x       y       z     vdW  Elec       q    Type
REMARK                         _______ _______ _______ _____ _____    ______ ____
ROOT
ATOM      1  C   UNL     1       8.056   4.285  17.832  0.00  0.00    +0.000 C 
ATOM      2  N   UNL     1       6.774   4.972  17.657  0.00  0.00    +0.000 NA
ATOM      3  C   UNL     1       7.051   6.383  17.319  0.00  0.00    +0.000 C 
ATOM      4  C   UNL     1       7.319   6.348  15.806  0.00  0.00    +0.000 C 
ATOM      5  C   UNL     1       6.590   5.108  15.293  0.00  0.00    +0.000 C 
ATOM      6  C   UNL     1       5.902   4.543  16.537  0.00  0.00    +0.000 C 
ATOM      7  C   UNL     1       4.461   5.193  16.609  0.00  0.00    +0.000 C 
ATOM      8  C   UNL     1       4.512   6.697  17.093  0.00  0.00    +0.000 C 
ATOM      9  C   UNL     1       5.809   7.086  17.830  0.00  0.00    +0.000 C 
ENDROOT
BRANCH   8  10
ATOM     10  C   UNL     1       3.359   7.302  17.896  0.00  0.00    +0.000 A 
ATOM     11  C   UNL     1       3.064   6.908  19.213  0.00  0.00    +0.000 A 
ATOM     12  C   UNL     1       2.053   7.540  19.946  0.00  0.00    +0.000 A 
ATOM     13  C   UNL     1       1.361   8.608  19.396  0.00  0.00    +0.000 A 
ATOM     14 CL   UNL     1       0.143   9.409  20.308  0.00  0.00    +0.000 Cl
ATOM     15  C   UNL     1       1.664   9.049  18.106  0.00  0.00    +0.000 A 
ATOM     16  C   UNL     1       2.652   8.394  17.366  0.00  0.00    +0.000 A 
ENDBRANCH   8  10
BRANCH   7  17
ATOM     17  C   UNL     1       3.371   4.318  17.251  0.00  0.00    +0.000 C 
BRANCH  17  18
ATOM     18  N   UNL     1       3.916   3.384  18.262  0.00  0.00    +0.000 N 
ATOM     19  C   UNL     1       3.096   3.285  19.406  0.00  0.00    +0.000 A 
ATOM     20  C   UNL     1       3.502   2.453  20.458  0.00  0.00    +0.000 A 
ATOM     21  C   UNL     1       2.702   2.329  21.593  0.00  0.00    +0.000 A 
ATOM     22  C   UNL     1       1.503   3.021  21.653  0.00  0.00    +0.000 A 
ATOM     23  C   UNL     1       1.160   3.804  20.560  0.00  0.00    +0.000 A 
ATOM     24  F   UNL     1       0.004   4.474  20.595  0.00  0.00    +0.000 F 
ATOM     25  N   UNL     1       1.919   3.945  19.465  0.00  0.00    +0.000 NA
ATOM     26  H   UNL     1       4.850   3.641  18.562  0.00  0.00    +0.000 HD
ENDBRANCH  17  18
ENDBRANCH   7  17
TORSDOF 3
ENDMDL
