MODEL 1
REMARK VINA RESULT:      -7.1      0.000      0.000
REMARK  Name = 
REMARK  9 active torsions:
REMARK  status: ('A' for Active; 'I' for Inactive)
REMARK    1  A    between atoms: C_1  and  C_2
REMARK    2  A    between atoms: C_2  and  C_3
REMARK    3  A    between atoms: C_4  and  C_5
REMARK    4  A    between atoms: C_5  and  O_7
REMARK    5  A    between atoms: O_7  and  C_8
REMARK    6  A    between atoms: C_15  and  O_16
REMARK    7  A    between atoms: O_16  and  C_17
REMARK    8  A    between atoms: C_18  and  O_19
REMARK    9  A    between atoms: O_19  and  C_20
REMARK                            x       y       z     vdW  Elec       q    Type
REMARK                         _______ _______ _______ _____ _____    ______ ____
ROOT
ATOM      1  C   UNL     1       3.041   5.201  19.617  0.00  0.00    +0.000 A 
ATOM      2  C   UNL     1       3.889   4.487  18.818  0.00  0.00    +0.000 A 
ATOM      3  N   UNL     1       4.419   5.038  17.641  0.00  0.00    +0.000 N 
ATOM      4  C   UNL     1       4.116   6.310  17.203  0.00  0.00    +0.000 A 
ATOM      5  C   UNL     1       3.295   7.100  17.912  0.00  0.00    +0.000 A 
ATOM      6  N   UNL     1       2.864   8.373  17.661  0.00  0.00    +0.000 NA
ATOM      7  C   UNL     1       2.099   8.624  18.681  0.00  0.00    +0.000 A 
ATOM      8  C   UNL     1       1.330   9.858  18.934  0.00  0.00    +0.000 A 
ATOM      9  C   UNL     1       0.538   9.977  20.028  0.00  0.00    +0.000 A 
ATOM     10  C   UNL     1       0.459   8.875  21.017  0.00  0.00    +0.000 A 
ATOM     11  C   UNL     1       1.163   7.746  20.829  0.00  0.00    +0.000 A 
ATOM     12  C   UNL     1       1.977   7.549  19.682  0.00  0.00    +0.000 A 
ATOM     13  C   UNL     1       2.738   6.577  19.161  0.00  0.00    +0.000 A 
ATOM     14  H   UNL     1       4.988   4.425  17.063  0.00  0.00    +0.000 HD
ENDROOT
BRANCH   1  16
ATOM     15  C   UNL     1       1.018   4.054  20.561  0.00  0.00    +0.000 C 
ATOM     16  C   UNL     1       2.379   4.666  20.864  0.00  0.00    +0.000 C 
ENDBRANCH   1  16
BRANCH   2  17
ATOM     17  C   UNL     1       4.295   3.076  19.172  0.00  0.00    +0.000 C 
ATOM     18  O   UNL     1       4.856   2.724  20.198  0.00  0.00    +0.000 OA
BRANCH  17  19
ATOM     19  O   UNL     1       3.944   2.238  18.154  0.00  0.00    +0.000 OA
ATOM     20  C   UNL     1       2.556   1.901  18.172  0.00  0.00    +0.000 C 
ENDBRANCH  17  19
ENDBRANCH   2  17
BRANCH   9  21
ATOM     21  O   UNL     1      -0.234  11.096  20.297  0.00  0.00    +0.000 OA
ATOM     22  C   UNL     1       0.431  12.216  20.888  0.00  0.00    +0.000 C 
ENDBRANCH   9  21
BRANCH  10  23
ATOM     23  O   UNL     1      -0.315   8.858  22.158  0.00  0.00    +0.000 OA
ATOM     24  C   UNL     1      -0.012   9.487  23.381  0.00  0.00    +0.000 C 
ENDBRANCH  10  23
TORSDOF 5
ENDMDL
MODEL 2
REMARK VINA RESULT:      -6.9      2.210      3.805
REMARK  Name = 
REMARK  9 active torsions:
REMARK  status: ('A' for Active; 'I' for Inactive)
REMARK    1  A    between atoms: C_1  and  C_2
REMARK    2  A    between atoms: C_2  and  C_3
REMARK    3  A    between atoms: C_4  and  C_5
REMARK    4  A    between atoms: C_5  and  O_7
REMARK    5  A    between atoms: O_7  and  C_8
REMARK    6  A    between atoms: C_15  and  O_16
REMARK    7  A    between atoms: O_16  and  C_17
REMARK    8  A    between atoms: C_18  and  O_19
REMARK    9  A    between atoms: O_19  and  C_20
REMARK                            x       y       z     vdW  Elec       q    Type
REMARK                         _______ _______ _______ _____ _____    ______ ____
ROOT
ATOM      1  C   UNL     1       4.834   5.532  17.635  0.00  0.00    +0.000 A 
ATOM      2  C   UNL     1       5.550   4.371  17.551  0.00  0.00    +0.000 A 
ATOM      3  N   UNL     1       5.337   3.316  18.450  0.00  0.00    +0.000 N 
ATOM      4  C   UNL     1       4.418   3.376  19.477  0.00  0.00    +0.000 A 
ATOM      5  C   UNL     1       3.659   4.469  19.652  0.00  0.00    +0.000 A 
ATOM      6  N   UNL     1       2.706   4.737  20.594  0.00  0.00    +0.000 NA
ATOM      7  C   UNL     1       2.309   5.931  20.270  0.00  0.00    +0.000 A 
ATOM      8  C   UNL     1       1.297   6.752  20.964  0.00  0.00    +0.000 A 
ATOM      9  C   UNL     1       1.000   8.005  20.539  0.00  0.00    +0.000 A 
ATOM     10  C   UNL     1       1.666   8.563  19.337  0.00  0.00    +0.000 A 
ATOM     11  C   UNL     1       2.576   7.835  18.668  0.00  0.00    +0.000 A 
ATOM     12  C   UNL     1       2.956   6.533  19.091  0.00  0.00    +0.000 A 
ATOM     13  C   UNL     1       3.829   5.586  18.721  0.00  0.00    +0.000 A 
ATOM     14  H   UNL     1       5.953   2.511  18.368  0.00  0.00    +0.000 HD
ENDROOT
BRANCH   1  16
ATOM     15  C   UNL     1       6.238   7.566  17.197  0.00  0.00    +0.000 C 
ATOM     16  C   UNL     1       5.041   6.737  16.750  0.00  0.00    +0.000 C 
ENDBRANCH   1  16
BRANCH   2  17
ATOM     17  C   UNL     1       6.598   4.174  16.481  0.00  0.00    +0.000 C 
ATOM     18  O   UNL     1       7.781   4.461  16.570  0.00  0.00    +0.000 OA
BRANCH  17  19
ATOM     19  O   UNL     1       6.015   3.624  15.377  0.00  0.00    +0.000 OA
ATOM     20  C   UNL     1       6.407   4.273  14.166  0.00  0.00    +0.000 C 
ENDBRANCH  17  19
ENDBRANCH   2  17
BRANCH   9  21
ATOM     21  O   UNL     1       0.087   8.832  21.171  0.00  0.00    +0.000 OA
ATOM     22  C   UNL     1       0.452   9.339  22.458  0.00  0.00    +0.000 C 
ENDBRANCH   9  21
BRANCH  10  23
ATOM     23  O   UNL     1       1.470   9.821  18.808  0.00  0.00    +0.000 OA
ATOM     24  C   UNL     1       0.280  10.311  18.237  0.00  0.00    +0.000 C 
ENDBRANCH  10  23
TORSDOF 5
ENDMDL
MODEL 3
REMARK VINA RESULT:      -6.8      0.634      1.072
REMARK  Name = 
REMARK  9 active torsions:
REMARK  status: ('A' for Active; 'I' for Inactive)
REMARK    1  A    between atoms: C_1  and  C_2
REMARK    2  A    between atoms: C_2  and  C_3
REMARK    3  A    between atoms: C_4  and  C_5
REMARK    4  A    between atoms: C_5  and  O_7
REMARK    5  A    between atoms: O_7  and  C_8
REMARK    6  A    between atoms: C_15  and  O_16
REMARK    7  A    between atoms: O_16  and  C_17
REMARK    8  A    between atoms: C_18  and  O_19
REMARK    9  A    between atoms: O_19  and  C_20
REMARK                            x       y       z     vdW  Elec       q    Type
REMARK                         _______ _______ _______ _____ _____    ______ ____
ROOT
ATOM      1  C   UNL     1       2.965   4.914  19.601  0.00  0.00    +0.000 A 
ATOM      2  C   UNL     1       3.776   4.132  18.829  0.00  0.00    +0.000 A 
ATOM      3  N   UNL     1       4.367   4.628  17.657  0.00  0.00    +0.000 N 
ATOM      4  C   UNL     1       4.165   5.912  17.198  0.00  0.00    +0.000 A 
ATOM      5  C   UNL     1       3.388   6.767  17.880  0.00  0.00    +0.000 A 
ATOM      6  N   UNL     1       3.053   8.064  17.606  0.00  0.00    +0.000 NA
ATOM      7  C   UNL     1       2.288   8.382  18.606  0.00  0.00    +0.000 A 
ATOM      8  C   UNL     1       1.603   9.671  18.828  0.00  0.00    +0.000 A 
ATOM      9  C   UNL     1       0.799   9.860  19.904  0.00  0.00    +0.000 A 
ATOM     10  C   UNL     1       0.622   8.779  20.904  0.00  0.00    +0.000 A 
ATOM     11  C   UNL     1       1.248   7.601  20.744  0.00  0.00    +0.000 A 
ATOM     12  C   UNL     1       2.070   7.332  19.616  0.00  0.00    +0.000 A 
ATOM     13  C   UNL     1       2.769   6.301  19.123  0.00  0.00    +0.000 A 
ATOM     14  H   UNL     1       4.903   3.969  17.099  0.00  0.00    +0.000 HD
ENDROOT
BRANCH   1  16
ATOM     15  C   UNL     1       0.906   3.795  20.501  0.00  0.00    +0.000 C 
ATOM     16  C   UNL     1       2.242   4.443  20.840  0.00  0.00    +0.000 C 
ENDBRANCH   1  16
BRANCH   2  17
ATOM     17  C   UNL     1       4.074   2.700  19.208  0.00  0.00    +0.000 C 
ATOM     18  O   UNL     1       3.484   1.710  18.805  0.00  0.00    +0.000 OA
BRANCH  17  19
ATOM     19  O   UNL     1       5.116   2.675  20.089  0.00  0.00    +0.000 OA
ATOM     20  C   UNL     1       5.146   1.481  20.872  0.00  0.00    +0.000 C 
ENDBRANCH  17  19
ENDBRANCH   2  17
BRANCH   9  21
ATOM     21  O   UNL     1       0.103  11.034  20.143  0.00  0.00    +0.000 OA
ATOM     22  C   UNL     1       0.818  12.092  20.786  0.00  0.00    +0.000 C 
ENDBRANCH   9  21
BRANCH  10  23
ATOM     23  O   UNL     1      -0.174   8.832  22.027  0.00  0.00    +0.000 OA
ATOM     24  C   UNL     1       0.151   9.446  23.252  0.00  0.00    +0.000 C 
ENDBRANCH  10  23
TORSDOF 5
ENDMDL
MODEL 4
REMARK VINA RESULT:      -6.7      1.462      6.620
REMARK  Name = 
REMARK  9 active torsions:
REMARK  status: ('A' for Active; 'I' for Inactive)
REMARK    1  A    between atoms: C_1  and  C_2
REMARK    2  A    between atoms: C_2  and  C_3
REMARK    3  A    between atoms: C_4  and  C_5
REMARK    4  A    between atoms: C_5  and  O_7
REMARK    5  A    between atoms: O_7  and  C_8
REMARK    6  A    between atoms: C_15  and  O_16
REMARK    7  A    between atoms: O_16  and  C_17
REMARK    8  A    between atoms: C_18  and  O_19
REMARK    9  A    between atoms: O_19  and  C_20
REMARK                            x       y       z     vdW  Elec       q    Type
REMARK                         _______ _______ _______ _____ _____    ______ ____
ROOT
ATOM      1  C   UNL     1       0.898   9.076  20.120  0.00  0.00    +0.000 A 
ATOM      2  C   UNL     1       0.720  10.307  19.555  0.00  0.00    +0.000 A 
ATOM      3  N   UNL     1       1.348  10.654  18.350  0.00  0.00    +0.000 N 
ATOM      4  C   UNL     1       2.189   9.801  17.667  0.00  0.00    +0.000 A 
ATOM      5  C   UNL     1       2.434   8.566  18.130  0.00  0.00    +0.000 A 
ATOM      6  N   UNL     1       3.227   7.575  17.622  0.00  0.00    +0.000 NA
ATOM      7  C   UNL     1       3.074   6.614  18.482  0.00  0.00    +0.000 A 
ATOM      8  C   UNL     1       3.722   5.288  18.460  0.00  0.00    +0.000 A 
ATOM      9  C   UNL     1       3.501   4.383  19.445  0.00  0.00    +0.000 A 
ATOM     10  C   UNL     1       2.565   4.699  20.552  0.00  0.00    +0.000 A 
ATOM     11  C   UNL     1       1.940   5.888  20.591  0.00  0.00    +0.000 A 
ATOM     12  C   UNL     1       2.165   6.889  19.609  0.00  0.00    +0.000 A 
ATOM     13  C   UNL     1       1.780   8.150  19.373  0.00  0.00    +0.000 A 
ATOM     14  H   UNL     1       1.223  11.609  18.025  0.00  0.00    +0.000 HD
ENDROOT
BRANCH   1  16
ATOM     15  C   UNL     1       1.149   9.128  22.618  0.00  0.00    +0.000 C 
ATOM     16  C   UNL     1       0.311   8.643  21.442  0.00  0.00    +0.000 C 
ENDBRANCH   1  16
BRANCH   2  17
ATOM     17  C   UNL     1      -0.166  11.345  20.203  0.00  0.00    +0.000 C 
ATOM     18  O   UNL     1       0.186  12.191  21.010  0.00  0.00    +0.000 OA
BRANCH  17  19
ATOM     19  O   UNL     1      -1.444  11.190  19.752  0.00  0.00    +0.000 OA
ATOM     20  C   UNL     1      -2.090  12.436  19.487  0.00  0.00    +0.000 C 
ENDBRANCH  17  19
ENDBRANCH   2  17
BRANCH   9  21
ATOM     21  O   UNL     1       4.109   3.140  19.495  0.00  0.00    +0.000 OA
ATOM     22  C   UNL     1       3.615   2.139  18.602  0.00  0.00    +0.000 C 
ENDBRANCH   9  21
BRANCH  10  23
ATOM     23  O   UNL     1       2.262   3.881  21.620  0.00  0.00    +0.000 OA
ATOM     24  C   UNL     1       1.430   2.746  21.592  0.00  0.00    +0.000 C 
ENDBRANCH  10  23
TORSDOF 5
ENDMDL
MODEL 5
REMARK VINA RESULT:      -6.5      1.113      1.529
REMARK  Name = 
REMARK  9 active torsions:
REMARK  status: ('A' for Active; 'I' for Inactive)
REMARK    1  A    between atoms: C_1  and  C_2
REMARK    2  A    between atoms: C_2  and  C_3
REMARK    3  A    between atoms: C_4  and  C_5
REMARK    4  A    between atoms: C_5  and  O_7
REMARK    5  A    between atoms: O_7  and  C_8
REMARK    6  A    between atoms: C_15  and  O_16
REMARK    7  A    between atoms: O_16  and  C_17
REMARK    8  A    between atoms: C_18  and  O_19
REMARK    9  A    between atoms: O_19  and  C_20
REMARK                            x       y       z     vdW  Elec       q    Type
REMARK                         _______ _______ _______ _____ _____    ______ ____
ROOT
ATOM      1  C   UNL     1       3.080   5.871  19.344  0.00  0.00    +0.000 A 
ATOM      2  C   UNL     1       3.943   5.306  18.449  0.00  0.00    +0.000 A 
ATOM      3  N   UNL     1       4.290   5.960  17.258  0.00  0.00    +0.000 N 
ATOM      4  C   UNL     1       3.783   7.192  16.900  0.00  0.00    +0.000 A 
ATOM      5  C   UNL     1       2.928   7.839  17.707  0.00  0.00    +0.000 A 
ATOM      6  N   UNL     1       2.310   9.048  17.547  0.00  0.00    +0.000 NA
ATOM      7  C   UNL     1       1.610   9.160  18.636  0.00  0.00    +0.000 A 
ATOM      8  C   UNL     1       0.707  10.268  19.004  0.00  0.00    +0.000 A 
ATOM      9  C   UNL     1       0.003  10.243  20.163  0.00  0.00    +0.000 A 
ATOM     10  C   UNL     1       0.159   9.109  21.107  0.00  0.00    +0.000 A 
ATOM     11  C   UNL     1       0.990   8.095  20.814  0.00  0.00    +0.000 A 
ATOM     12  C   UNL     1       1.720   8.047  19.596  0.00  0.00    +0.000 A 
ATOM     13  C   UNL     1       2.556   7.205  18.974  0.00  0.00    +0.000 A 
ATOM     14  H   UNL     1       4.884   5.450  16.609  0.00  0.00    +0.000 HD
ENDROOT
BRANCH   1  16
ATOM     15  C   UNL     1       1.328   4.412  20.397  0.00  0.00    +0.000 C 
ATOM     16  C   UNL     1       2.607   5.211  20.617  0.00  0.00    +0.000 C 
ENDBRANCH   1  16
BRANCH   2  17
ATOM     17  C   UNL     1       4.565   3.953  18.708  0.00  0.00    +0.000 C 
ATOM     18  O   UNL     1       4.080   2.870  18.419  0.00  0.00    +0.000 OA
BRANCH  17  19
ATOM     19  O   UNL     1       5.767   4.122  19.330  0.00  0.00    +0.000 OA
ATOM     20  C   UNL     1       6.765   4.661  18.463  0.00  0.00    +0.000 C 
ENDBRANCH  17  19
ENDBRANCH   2  17
BRANCH   9  21
ATOM     21  O   UNL     1      -0.885  11.236  20.541  0.00  0.00    +0.000 OA
ATOM     22  C   UNL     1      -1.701  11.804  19.514  0.00  0.00    +0.000 C 
ENDBRANCH   9  21
BRANCH  10  23
ATOM     23  O   UNL     1      -0.504   8.951  22.305  0.00  0.00    +0.000 OA
ATOM     24  C   UNL     1      -0.176   9.567  23.528  0.00  0.00    +0.000 C 
ENDBRANCH  10  23
TORSDOF 5
ENDMDL
MODEL 6
REMARK VINA RESULT:      -6.5      1.544      6.661
REMARK  Name = 
REMARK  9 active torsions:
REMARK  status: ('A' for Active; 'I' for Inactive)
REMARK    1  A    between atoms: C_1  and  C_2
REMARK    2  A    between atoms: C_2  and  C_3
REMARK    3  A    between atoms: C_4  and  C_5
REMARK    4  A    between atoms: C_5  and  O_7
REMARK    5  A    between atoms: O_7  and  C_8
REMARK    6  A    between atoms: C_15  and  O_16
REMARK    7  A    between atoms: O_16  and  C_17
REMARK    8  A    between atoms: C_18  and  O_19
REMARK    9  A    between atoms: O_19  and  C_20
REMARK                            x       y       z     vdW  Elec       q    Type
REMARK                         _______ _______ _______ _____ _____    ______ ____
ROOT
ATOM      1  C   UNL     1       1.087   9.584  20.516  0.00  0.00    +0.000 A 
ATOM      2  C   UNL     1       0.866  10.866  20.101  0.00  0.00    +0.000 A 
ATOM      3  N   UNL     1       1.197  11.279  18.801  0.00  0.00    +0.000 N 
ATOM      4  C   UNL     1       1.773  10.442  17.870  0.00  0.00    +0.000 A 
ATOM      5  C   UNL     1       2.032   9.160  18.170  0.00  0.00    +0.000 A 
ATOM      6  N   UNL     1       2.596   8.173  17.410  0.00  0.00    +0.000 NA
ATOM      7  C   UNL     1       2.591   7.152  18.213  0.00  0.00    +0.000 A 
ATOM      8  C   UNL     1       3.112   5.799  17.936  0.00  0.00    +0.000 A 
ATOM      9  C   UNL     1       3.076   4.828  18.882  0.00  0.00    +0.000 A 
ATOM     10  C   UNL     1       2.474   5.100  20.210  0.00  0.00    +0.000 A 
ATOM     11  C   UNL     1       1.970   6.314  20.487  0.00  0.00    +0.000 A 
ATOM     12  C   UNL     1       2.016   7.381  19.551  0.00  0.00    +0.000 A 
ATOM     13  C   UNL     1       1.681   8.677  19.507  0.00  0.00    +0.000 A 
ATOM     14  H   UNL     1       1.066  12.264  18.585  0.00  0.00    +0.000 HD
ENDROOT
BRANCH   1  16
ATOM     15  C   UNL     1      -0.575   8.468  22.032  0.00  0.00    +0.000 C 
ATOM     16  C   UNL     1       0.818   9.073  21.911  0.00  0.00    +0.000 C 
ENDBRANCH   1  16
BRANCH   2  17
ATOM     17  C   UNL     1       0.251  11.893  21.023  0.00  0.00    +0.000 C 
ATOM     18  O   UNL     1       0.856  12.721  21.685  0.00  0.00    +0.000 OA
BRANCH  17  19
ATOM     19  O   UNL     1      -1.106  11.751  21.012  0.00  0.00    +0.000 OA
ATOM     20  C   UNL     1      -1.694  11.989  22.292  0.00  0.00    +0.000 C 
ENDBRANCH  17  19
ENDBRANCH   2  17
BRANCH   9  21
ATOM     21  O   UNL     1       3.583   3.553  18.690  0.00  0.00    +0.000 OA
ATOM     22  C   UNL     1       2.872   2.701  17.788  0.00  0.00    +0.000 C 
ENDBRANCH   9  21
BRANCH  10  23
ATOM     23  O   UNL     1       2.387   4.213  21.261  0.00  0.00    +0.000 OA
ATOM     24  C   UNL     1       1.501   3.124  21.363  0.00  0.00    +0.000 C 
ENDBRANCH  10  23
TORSDOF 5
ENDMDL
MODEL 7
REMARK VINA RESULT:      -6.3      2.177      3.834
REMARK  Name = 
REMARK  9 active torsions:
REMARK  status: ('A' for Active; 'I' for Inactive)
REMARK    1  A    between atoms: C_1  and  C_2
REMARK    2  A    between atoms: C_2  and  C_3
REMARK    3  A    between atoms: C_4  and  C_5
REMARK    4  A    between atoms: C_5  and  O_7
REMARK    5  A    between atoms: O_7  and  C_8
REMARK    6  A    between atoms: C_15  and  O_16
REMARK    7  A    between atoms: O_16  and  C_17
REMARK    8  A    between atoms: C_18  and  O_19
REMARK    9  A    between atoms: O_19  and  C_20
REMARK                            x       y       z     vdW  Elec       q    Type
REMARK                         _______ _______ _______ _____ _____    ______ ____
ROOT
ATOM      1  C   UNL     1       4.590   5.491  17.379  0.00  0.00    +0.000 A 
ATOM      2  C   UNL     1       5.258   4.311  17.210  0.00  0.00    +0.000 A 
ATOM      3  N   UNL     1       5.069   3.233  18.088  0.00  0.00    +0.000 N 
ATOM      4  C   UNL     1       4.225   3.290  19.178  0.00  0.00    +0.000 A 
ATOM      5  C   UNL     1       3.518   4.400  19.437  0.00  0.00    +0.000 A 
ATOM      6  N   UNL     1       2.640   4.667  20.451  0.00  0.00    +0.000 NA
ATOM      7  C   UNL     1       2.264   5.884  20.192  0.00  0.00    +0.000 A 
ATOM      8  C   UNL     1       1.330   6.713  20.979  0.00  0.00    +0.000 A 
ATOM      9  C   UNL     1       1.049   7.989  20.615  0.00  0.00    +0.000 A 
ATOM     10  C   UNL     1       1.651   8.565  19.387  0.00  0.00    +0.000 A 
ATOM     11  C   UNL     1       2.488   7.830  18.635  0.00  0.00    +0.000 A 
ATOM     12  C   UNL     1       2.850   6.503  18.991  0.00  0.00    +0.000 A 
ATOM     13  C   UNL     1       3.663   5.541  18.532  0.00  0.00    +0.000 A 
ATOM     14  H   UNL     1       5.650   2.412  17.939  0.00  0.00    +0.000 HD
ENDROOT
BRANCH   1  16
ATOM     15  C   UNL     1       5.876   7.623  17.062  0.00  0.00    +0.000 C 
ATOM     16  C   UNL     1       4.778   6.717  16.519  0.00  0.00    +0.000 C 
ENDBRANCH   1  16
BRANCH   2  17
ATOM     17  C   UNL     1       6.223   4.115  16.064  0.00  0.00    +0.000 C 
ATOM     18  O   UNL     1       5.995   3.519  15.024  0.00  0.00    +0.000 OA
BRANCH  17  19
ATOM     19  O   UNL     1       7.413   4.707  16.373  0.00  0.00    +0.000 OA
ATOM     20  C   UNL     1       7.789   4.508  17.737  0.00  0.00    +0.000 C 
ENDBRANCH  17  19
ENDBRANCH   2  17
BRANCH   9  21
ATOM     21  O   UNL     1       0.210   8.824  21.334  0.00  0.00    +0.000 OA
ATOM     22  C   UNL     1       0.706   9.329  22.576  0.00  0.00    +0.000 C 
ENDBRANCH   9  21
BRANCH  10  23
ATOM     23  O   UNL     1       1.464   9.845  18.913  0.00  0.00    +0.000 OA
ATOM     24  C   UNL     1       0.263  10.382  18.411  0.00  0.00    +0.000 C 
ENDBRANCH  10  23
TORSDOF 5
ENDMDL
MODEL 8
REMARK VINA RESULT:      -6.1      2.194      7.153
REMARK  Name = 
REMARK  9 active torsions:
REMARK  status: ('A' for Active; 'I' for Inactive)
REMARK    1  A    between atoms: C_1  and  C_2
REMARK    2  A    between atoms: C_2  and  C_3
REMARK    3  A    between atoms: C_4  and  C_5
REMARK    4  A    between atoms: C_5  and  O_7
REMARK    5  A    between atoms: O_7  and  C_8
REMARK    6  A    between atoms: C_15  and  O_16
REMARK    7  A    between atoms: O_16  and  C_17
REMARK    8  A    between atoms: C_18  and  O_19
REMARK    9  A    between atoms: O_19  and  C_20
REMARK                            x       y       z     vdW  Elec       q    Type
REMARK                         _______ _______ _______ _____ _____    ______ ____
ROOT
ATOM      1  C   UNL     1      -0.118  10.131  21.212  0.00  0.00    +0.000 A 
ATOM      2  C   UNL     1      -0.547  11.420  21.066  0.00  0.00    +0.000 A 
ATOM      3  N   UNL     1      -0.190  12.186  19.946  0.00  0.00    +0.000 N 
ATOM      4  C   UNL     1       0.619  11.709  18.936  0.00  0.00    +0.000 A 
ATOM      5  C   UNL     1       1.095  10.456  18.976  0.00  0.00    +0.000 A 
ATOM      6  N   UNL     1       1.906   9.793  18.097  0.00  0.00    +0.000 NA
ATOM      7  C   UNL     1       2.029   8.622  18.645  0.00  0.00    +0.000 A 
ATOM      8  C   UNL     1       2.826   7.484  18.146  0.00  0.00    +0.000 A 
ATOM      9  C   UNL     1       2.898   6.321  18.839  0.00  0.00    +0.000 A 
ATOM     10  C   UNL     1       2.138   6.157  20.102  0.00  0.00    +0.000 A 
ATOM     11  C   UNL     1       1.385   7.164  20.574  0.00  0.00    +0.000 A 
ATOM     12  C   UNL     1       1.305   8.418  19.913  0.00  0.00    +0.000 A 
ATOM     13  C   UNL     1       0.728   9.611  20.114  0.00  0.00    +0.000 A 
ATOM     14  H   UNL     1      -0.491  13.157  19.939  0.00  0.00    +0.000 HD
ENDROOT
BRANCH   1  16
ATOM     15  C   UNL     1       0.664   9.412  23.486  0.00  0.00    +0.000 C 
ATOM     16  C   UNL     1      -0.405   9.260  22.411  0.00  0.00    +0.000 C 
ENDBRANCH   1  16
BRANCH   2  17
ATOM     17  C   UNL     1      -1.430  12.074  22.104  0.00  0.00    +0.000 C 
ATOM     18  O   UNL     1      -2.651  12.068  22.117  0.00  0.00    +0.000 OA
BRANCH  17  19
ATOM     19  O   UNL     1      -0.648  12.689  23.037  0.00  0.00    +0.000 OA
ATOM     20  C   UNL     1      -1.192  13.935  23.476  0.00  0.00    +0.000 C 
ENDBRANCH  17  19
ENDBRANCH   2  17
BRANCH   9  21
ATOM     21  O   UNL     1       3.658   5.235  18.437  0.00  0.00    +0.000 OA
ATOM     22  C   UNL     1       5.000   5.166  18.927  0.00  0.00    +0.000 C 
ENDBRANCH   9  21
BRANCH  10  23
ATOM     23  O   UNL     1       2.134   5.040  20.910  0.00  0.00    +0.000 OA
ATOM     24  C   UNL     1       1.336   3.892  20.742  0.00  0.00    +0.000 C 
ENDBRANCH  10  23
TORSDOF 5
ENDMDL
MODEL 9
REMARK VINA RESULT:      -6.0      3.665      7.052
REMARK  Name = 
REMARK  9 active torsions:
REMARK  status: ('A' for Active; 'I' for Inactive)
REMARK    1  A    between atoms: C_1  and  C_2
REMARK    2  A    between atoms: C_2  and  C_3
REMARK    3  A    between atoms: C_4  and  C_5
REMARK    4  A    between atoms: C_5  and  O_7
REMARK    5  A    between atoms: O_7  and  C_8
REMARK    6  A    between atoms: C_15  and  O_16
REMARK    7  A    between atoms: O_16  and  C_17
REMARK    8  A    between atoms: C_18  and  O_19
REMARK    9  A    between atoms: O_19  and  C_20
REMARK                            x       y       z     vdW  Elec       q    Type
REMARK                         _______ _______ _______ _____ _____    ______ ____
ROOT
ATOM      1  C   UNL     1       2.880   3.892  17.956  0.00  0.00    +0.000 A 
ATOM      2  C   UNL     1       2.140   4.305  19.028  0.00  0.00    +0.000 A 
ATOM      3  N   UNL     1       2.404   5.524  19.671  0.00  0.00    +0.000 N 
ATOM      4  C   UNL     1       3.422   6.372  19.288  0.00  0.00    +0.000 A 
ATOM      5  C   UNL     1       4.210   6.066  18.246  0.00  0.00    +0.000 A 
ATOM      6  N   UNL     1       5.264   6.751  17.708  0.00  0.00    +0.000 NA
ATOM      7  C   UNL     1       5.634   5.986  16.726  0.00  0.00    +0.000 A 
ATOM      8  C   UNL     1       6.760   6.210  15.798  0.00  0.00    +0.000 A 
ATOM      9  C   UNL     1       7.061   5.308  14.832  0.00  0.00    +0.000 A 
ATOM     10  C   UNL     1       6.235   4.087  14.665  0.00  0.00    +0.000 A 
ATOM     11  C   UNL     1       5.189   3.863  15.479  0.00  0.00    +0.000 A 
ATOM     12  C   UNL     1       4.851   4.752  16.533  0.00  0.00    +0.000 A 
ATOM     13  C   UNL     1       3.955   4.816  17.528  0.00  0.00    +0.000 A 
ATOM     14  H   UNL     1       1.856   5.733  20.502  0.00  0.00    +0.000 HD
ENDROOT
BRANCH   1  16
ATOM     15  C   UNL     1       3.472   1.453  17.938  0.00  0.00    +0.000 C 
ATOM     16  C   UNL     1       2.704   2.572  17.246  0.00  0.00    +0.000 C 
ENDBRANCH   1  16
BRANCH   2  17
ATOM     17  C   UNL     1       1.001   3.468  19.562  0.00  0.00    +0.000 C 
ATOM     18  O   UNL     1       0.258   2.758  18.902  0.00  0.00    +0.000 OA
BRANCH  17  19
ATOM     19  O   UNL     1       0.919   3.630  20.914  0.00  0.00    +0.000 OA
ATOM     20  C   UNL     1       1.586   2.593  21.634  0.00  0.00    +0.000 C 
ENDBRANCH  17  19
ENDBRANCH   2  17
BRANCH   9  21
ATOM     21  O   UNL     1       8.126   5.448  13.958  0.00  0.00    +0.000 OA
ATOM     22  C   UNL     1       7.815   5.782  12.603  0.00  0.00    +0.000 C 
ENDBRANCH   9  21
BRANCH  10  23
ATOM     23  O   UNL     1       6.439   3.086  13.740  0.00  0.00    +0.000 OA
ATOM     24  C   UNL     1       5.856   3.001  12.461  0.00  0.00    +0.000 C 
ENDBRANCH  10  23
TORSDOF 5
ENDMDL
