MODEL 1
REMARK VINA RESULT:      -7.2      0.000      0.000
REMARK  Name = 
REMARK  9 active torsions:
REMARK  status: ('A' for Active; 'I' for Inactive)
REMARK    1  A    between atoms: C_1  and  O_2
REMARK    2  A    between atoms: O_2  and  C_3
REMARK    3  A    between atoms: C_5  and  O_6
REMARK    4  A    between atoms: C_7  and  C_8
REMARK    5  A    between atoms: C_8  and  C_10
REMARK    6  A    between atoms: C_10  and  C_11
REMARK    7  A    between atoms: C_11  and  C_12
REMARK    8  A    between atoms: C_18  and  O_19
REMARK    9  A    between atoms: O_19  and  C_20
REMARK                            x       y       z     vdW  Elec       q    Type
REMARK                         _______ _______ _______ _____ _____    ______ ____
ROOT
ATOM      1  C   UNL     1       6.225   4.250  14.657  0.00  0.00    +0.000 A 
ATOM      2  C   UNL     1       5.613   3.373  15.543  0.00  0.00    +0.000 A 
ATOM      3  C   UNL     1       5.213   3.807  16.809  0.00  0.00    +0.000 A 
ATOM      4  C   UNL     1       5.429   5.132  17.233  0.00  0.00    +0.000 A 
ATOM      5  C   UNL     1       6.064   6.022  16.332  0.00  0.00    +0.000 A 
ATOM      6  C   UNL     1       6.448   5.566  15.054  0.00  0.00    +0.000 A 
ENDROOT
BRANCH   1   8
ATOM      7  C   UNL     1       5.489   3.508  12.522  0.00  0.00    +0.000 C 
ATOM      8  O   UNL     1       6.550   3.702  13.449  0.00  0.00    +0.000 OA
ENDBRANCH   1   8
BRANCH   3   9
ATOM      9  O   UNL     1       4.575   2.894  17.601  0.00  0.00    +0.000 OA
ATOM     10  H   UNL     1       4.282   2.133  17.069  0.00  0.00    +0.000 HD
ENDBRANCH   3   9
BRANCH   4  11
ATOM     11  C   UNL     1       4.965   5.604  18.594  0.00  0.00    +0.000 C 
ATOM     12  O   UNL     1       5.527   5.208  19.615  0.00  0.00    +0.000 OA
BRANCH  11  13
ATOM     13  C   UNL     1       3.797   6.583  18.673  0.00  0.00    +0.000 C 
BRANCH  13  14
ATOM     14  C   UNL     1       2.514   6.089  18.003  0.00  0.00    +0.000 C 
BRANCH  14  15
ATOM     15  C   UNL     1       1.973   4.873  18.731  0.00  0.00    +0.000 A 
ATOM     16  C   UNL     1       1.525   3.757  18.018  0.00  0.00    +0.000 A 
ATOM     17  C   UNL     1       0.973   2.662  18.690  0.00  0.00    +0.000 A 
ATOM     18  C   UNL     1       0.865   2.674  20.081  0.00  0.00    +0.000 A 
ATOM     19  C   UNL     1       1.305   3.781  20.799  0.00  0.00    +0.000 A 
ATOM     20  C   UNL     1       1.856   4.875  20.129  0.00  0.00    +0.000 A 
ENDBRANCH  14  15
ENDBRANCH  13  14
ENDBRANCH  11  13
ENDBRANCH   4  11
BRANCH   5  21
ATOM     21  O   UNL     1       6.318   7.305  16.754  0.00  0.00    +0.000 OA
ATOM     22  C   UNL     1       7.538   7.561  17.442  0.00  0.00    +0.000 C 
ENDBRANCH   5  21
TORSDOF 7
ENDMDL
MODEL 2
REMARK VINA RESULT:      -7.0      0.571      1.196
REMARK  Name = 
REMARK  9 active torsions:
REMARK  status: ('A' for Active; 'I' for Inactive)
REMARK    1  A    between atoms: C_1  and  O_2
REMARK    2  A    between atoms: O_2  and  C_3
REMARK    3  A    between atoms: C_5  and  O_6
REMARK    4  A    between atoms: C_7  and  C_8
REMARK    5  A    between atoms: C_8  and  C_10
REMARK    6  A    between atoms: C_10  and  C_11
REMARK    7  A    between atoms: C_11  and  C_12
REMARK    8  A    between atoms: C_18  and  O_19
REMARK    9  A    between atoms: O_19  and  C_20
REMARK                            x       y       z     vdW  Elec       q    Type
REMARK                         _______ _______ _______ _____ _____    ______ ____
ROOT
ATOM      1  C   UNL     1       6.438   4.445  14.687  0.00  0.00    +0.000 A 
ATOM      2  C   UNL     1       5.771   3.521  15.481  0.00  0.00    +0.000 A 
ATOM      3  C   UNL     1       5.301   3.880  16.746  0.00  0.00    +0.000 A 
ATOM      4  C   UNL     1       5.498   5.175  17.262  0.00  0.00    +0.000 A 
ATOM      5  C   UNL     1       6.189   6.112  16.456  0.00  0.00    +0.000 A 
ATOM      6  C   UNL     1       6.644   5.733  15.176  0.00  0.00    +0.000 A 
ENDROOT
BRANCH   1   8
ATOM      7  C   UNL     1       7.551   4.861  12.628  0.00  0.00    +0.000 C 
ATOM      8  O   UNL     1       6.829   3.969  13.468  0.00  0.00    +0.000 OA
ENDBRANCH   1   8
BRANCH   3   9
ATOM      9  O   UNL     1       4.613   2.926  17.442  0.00  0.00    +0.000 OA
ATOM     10  H   UNL     1       4.752   3.041  18.399  0.00  0.00    +0.000 HD
ENDBRANCH   3   9
BRANCH   4  11
ATOM     11  C   UNL     1       4.959   5.567  18.622  0.00  0.00    +0.000 C 
ATOM     12  O   UNL     1       5.492   5.147  19.648  0.00  0.00    +0.000 OA
BRANCH  11  13
ATOM     13  C   UNL     1       3.751   6.497  18.692  0.00  0.00    +0.000 C 
BRANCH  13  14
ATOM     14  C   UNL     1       2.500   5.959  17.995  0.00  0.00    +0.000 C 
BRANCH  14  15
ATOM     15  C   UNL     1       1.903   4.816  18.794  0.00  0.00    +0.000 A 
ATOM     16  C   UNL     1       1.866   4.867  20.191  0.00  0.00    +0.000 A 
ATOM     17  C   UNL     1       1.369   3.787  20.926  0.00  0.00    +0.000 A 
ATOM     18  C   UNL     1       0.904   2.647  20.271  0.00  0.00    +0.000 A 
ATOM     19  C   UNL     1       0.939   2.585  18.881  0.00  0.00    +0.000 A 
ATOM     20  C   UNL     1       1.436   3.663  18.146  0.00  0.00    +0.000 A 
ENDBRANCH  14  15
ENDBRANCH  13  14
ENDBRANCH  11  13
ENDBRANCH   4  11
BRANCH   5  21
ATOM     21  O   UNL     1       6.424   7.365  16.970  0.00  0.00    +0.000 OA
ATOM     22  C   UNL     1       7.709   7.639  17.522  0.00  0.00    +0.000 C 
ENDBRANCH   5  21
TORSDOF 7
ENDMDL
MODEL 3
REMARK VINA RESULT:      -7.0      1.864      6.234
REMARK  Name = 
REMARK  9 active torsions:
REMARK  status: ('A' for Active; 'I' for Inactive)
REMARK    1  A    between atoms: C_1  and  O_2
REMARK    2  A    between atoms: O_2  and  C_3
REMARK    3  A    between atoms: C_5  and  O_6
REMARK    4  A    between atoms: C_7  and  C_8
REMARK    5  A    between atoms: C_8  and  C_10
REMARK    6  A    between atoms: C_10  and  C_11
REMARK    7  A    between atoms: C_11  and  C_12
REMARK    8  A    between atoms: C_18  and  O_19
REMARK    9  A    between atoms: O_19  and  C_20
REMARK                            x       y       z     vdW  Elec       q    Type
REMARK                         _______ _______ _______ _____ _____    ______ ____
ROOT
ATOM      1  C   UNL     1       2.110   4.180  19.890  0.00  0.00    +0.000 A 
ATOM      2  C   UNL     1       3.292   3.451  19.854  0.00  0.00    +0.000 A 
ATOM      3  C   UNL     1       4.410   3.945  19.178  0.00  0.00    +0.000 A 
ATOM      4  C   UNL     1       4.373   5.181  18.505  0.00  0.00    +0.000 A 
ATOM      5  C   UNL     1       3.164   5.917  18.533  0.00  0.00    +0.000 A 
ATOM      6  C   UNL     1       2.050   5.405  19.232  0.00  0.00    +0.000 A 
ENDROOT
BRANCH   1   8
ATOM      7  C   UNL     1       1.478   2.727  21.663  0.00  0.00    +0.000 C 
ATOM      8  O   UNL     1       1.101   3.590  20.598  0.00  0.00    +0.000 OA
ENDBRANCH   1   8
BRANCH   3   9
ATOM      9  O   UNL     1       5.547   3.189  19.232  0.00  0.00    +0.000 OA
ATOM     10  H   UNL     1       5.989   3.305  20.091  0.00  0.00    +0.000 HD
ENDBRANCH   3   9
BRANCH   4  11
ATOM     11  C   UNL     1       5.598   5.726  17.801  0.00  0.00    +0.000 C 
ATOM     12  O   UNL     1       6.568   6.114  18.450  0.00  0.00    +0.000 OA
BRANCH  11  13
ATOM     13  C   UNL     1       5.607   5.775  16.276  0.00  0.00    +0.000 C 
BRANCH  13  14
ATOM     14  C   UNL     1       5.299   4.437  15.600  0.00  0.00    +0.000 C 
BRANCH  14  15
ATOM     15  C   UNL     1       5.978   4.363  14.245  0.00  0.00    +0.000 A 
ATOM     16  C   UNL     1       5.485   3.516  13.247  0.00  0.00    +0.000 A 
ATOM     17  C   UNL     1       6.147   3.407  12.021  0.00  0.00    +0.000 A 
ATOM     18  C   UNL     1       7.307   4.144  11.781  0.00  0.00    +0.000 A 
ATOM     19  C   UNL     1       7.808   4.987  12.769  0.00  0.00    +0.000 A 
ATOM     20  C   UNL     1       7.147   5.096  13.994  0.00  0.00    +0.000 A 
ENDBRANCH  14  15
ENDBRANCH  13  14
ENDBRANCH  11  13
ENDBRANCH   4  11
BRANCH   5  21
ATOM     21  O   UNL     1       3.106   7.103  17.842  0.00  0.00    +0.000 OA
ATOM     22  C   UNL     1       2.268   8.138  18.346  0.00  0.00    +0.000 C 
ENDBRANCH   5  21
TORSDOF 7
ENDMDL
MODEL 4
REMARK VINA RESULT:      -6.8      1.909      5.722
REMARK  Name = 
REMARK  9 active torsions:
REMARK  status: ('A' for Active; 'I' for Inactive)
REMARK    1  A    between atoms: C_1  and  O_2
REMARK    2  A    between atoms: O_2  and  C_3
REMARK    3  A    between atoms: C_5  and  O_6
REMARK    4  A    between atoms: C_7  and  C_8
REMARK    5  A    between atoms: C_8  and  C_10
REMARK    6  A    between atoms: C_10  and  C_11
REMARK    7  A    between atoms: C_11  and  C_12
REMARK    8  A    between atoms: C_18  and  O_19
REMARK    9  A    between atoms: O_19  and  C_20
REMARK                            x       y       z     vdW  Elec       q    Type
REMARK                         _______ _______ _______ _____ _____    ______ ____
ROOT
ATOM      1  C   UNL     1       2.059   3.904  19.013  0.00  0.00    +0.000 A 
ATOM      2  C   UNL     1       3.032   2.990  19.396  0.00  0.00    +0.000 A 
ATOM      3  C   UNL     1       4.388   3.311  19.291  0.00  0.00    +0.000 A 
ATOM      4  C   UNL     1       4.811   4.555  18.786  0.00  0.00    +0.000 A 
ATOM      5  C   UNL     1       3.817   5.480  18.384  0.00  0.00    +0.000 A 
ATOM      6  C   UNL     1       2.453   5.141  18.510  0.00  0.00    +0.000 A 
ENDROOT
BRANCH   1   8
ATOM      7  C   UNL     1       0.517   2.097  18.912  0.00  0.00    +0.000 C 
ATOM      8  O   UNL     1       0.775   3.469  19.182  0.00  0.00    +0.000 OA
ENDBRANCH   1   8
BRANCH   3   9
ATOM      9  O   UNL     1       5.280   2.375  19.735  0.00  0.00    +0.000 OA
ATOM     10  H   UNL     1       5.653   1.881  18.983  0.00  0.00    +0.000 HD
ENDBRANCH   3   9
BRANCH   4  11
ATOM     11  C   UNL     1       6.280   4.909  18.704  0.00  0.00    +0.000 C 
ATOM     12  O   UNL     1       6.849   5.431  19.663  0.00  0.00    +0.000 OA
BRANCH  11  13
ATOM     13  C   UNL     1       7.040   4.598  17.418  0.00  0.00    +0.000 C 
BRANCH  13  14
ATOM     14  C   UNL     1       6.934   5.684  16.345  0.00  0.00    +0.000 C 
BRANCH  14  15
ATOM     15  C   UNL     1       6.702   5.057  14.983  0.00  0.00    +0.000 A 
ATOM     16  C   UNL     1       5.595   4.232  14.758  0.00  0.00    +0.000 A 
ATOM     17  C   UNL     1       5.417   3.609  13.519  0.00  0.00    +0.000 A 
ATOM     18  C   UNL     1       6.343   3.805  12.495  0.00  0.00    +0.000 A 
ATOM     19  C   UNL     1       7.450   4.621  12.710  0.00  0.00    +0.000 A 
ATOM     20  C   UNL     1       7.629   5.243  13.947  0.00  0.00    +0.000 A 
ENDBRANCH  14  15
ENDBRANCH  13  14
ENDBRANCH  11  13
ENDBRANCH   4  11
BRANCH   5  21
ATOM     21  O   UNL     1       4.221   6.680  17.849  0.00  0.00    +0.000 OA
ATOM     22  C   UNL     1       3.286   7.755  17.819  0.00  0.00    +0.000 C 
ENDBRANCH   5  21
TORSDOF 7
ENDMDL
MODEL 5
REMARK VINA RESULT:      -6.8      1.926      2.933
REMARK  Name = 
REMARK  9 active torsions:
REMARK  status: ('A' for Active; 'I' for Inactive)
REMARK    1  A    between atoms: C_1  and  O_2
REMARK    2  A    between atoms: O_2  and  C_3
REMARK    3  A    between atoms: C_5  and  O_6
REMARK    4  A    between atoms: C_7  and  C_8
REMARK    5  A    between atoms: C_8  and  C_10
REMARK    6  A    between atoms: C_10  and  C_11
REMARK    7  A    between atoms: C_11  and  C_12
REMARK    8  A    between atoms: C_18  and  O_19
REMARK    9  A    between atoms: O_19  and  C_20
REMARK                            x       y       z     vdW  Elec       q    Type
REMARK                         _______ _______ _______ _____ _____    ______ ____
ROOT
ATOM      1  C   UNL     1       6.619   4.576  14.994  0.00  0.00    +0.000 A 
ATOM      2  C   UNL     1       5.303   4.183  15.199  0.00  0.00    +0.000 A 
ATOM      3  C   UNL     1       4.791   4.063  16.493  0.00  0.00    +0.000 A 
ATOM      4  C   UNL     1       5.589   4.320  17.624  0.00  0.00    +0.000 A 
ATOM      5  C   UNL     1       6.935   4.708  17.413  0.00  0.00    +0.000 A 
ATOM      6  C   UNL     1       7.427   4.836  16.097  0.00  0.00    +0.000 A 
ENDROOT
BRANCH   1   8
ATOM      7  C   UNL     1       6.302   3.830  12.758  0.00  0.00    +0.000 C 
ATOM      8  O   UNL     1       6.986   4.669  13.681  0.00  0.00    +0.000 OA
ENDBRANCH   1   8
BRANCH   3   9
ATOM      9  O   UNL     1       3.474   3.719  16.606  0.00  0.00    +0.000 OA
ATOM     10  H   UNL     1       3.122   3.441  15.742  0.00  0.00    +0.000 HD
ENDBRANCH   3   9
BRANCH   4  11
ATOM     11  C   UNL     1       5.020   4.218  19.023  0.00  0.00    +0.000 C 
ATOM     12  O   UNL     1       5.131   3.176  19.667  0.00  0.00    +0.000 OA
BRANCH  11  13
ATOM     13  C   UNL     1       4.316   5.434  19.619  0.00  0.00    +0.000 C 
BRANCH  13  14
ATOM     14  C   UNL     1       2.797   5.433  19.439  0.00  0.00    +0.000 C 
BRANCH  14  15
ATOM     15  C   UNL     1       2.292   6.847  19.220  0.00  0.00    +0.000 A 
ATOM     16  C   UNL     1       2.437   7.470  17.976  0.00  0.00    +0.000 A 
ATOM     17  C   UNL     1       2.024   8.793  17.794  0.00  0.00    +0.000 A 
ATOM     18  C   UNL     1       1.463   9.505  18.854  0.00  0.00    +0.000 A 
ATOM     19  C   UNL     1       1.318   8.896  20.097  0.00  0.00    +0.000 A 
ATOM     20  C   UNL     1       1.730   7.575  20.280  0.00  0.00    +0.000 A 
ENDBRANCH  14  15
ENDBRANCH  13  14
ENDBRANCH  11  13
ENDBRANCH   4  11
BRANCH   5  21
ATOM     21  O   UNL     1       7.733   4.919  18.512  0.00  0.00    +0.000 OA
ATOM     22  C   UNL     1       8.031   6.261  18.882  0.00  0.00    +0.000 C 
ENDBRANCH   5  21
TORSDOF 7
ENDMDL
MODEL 6
REMARK VINA RESULT:      -6.8      1.438      3.442
REMARK  Name = 
REMARK  9 active torsions:
REMARK  status: ('A' for Active; 'I' for Inactive)
REMARK    1  A    between atoms: C_1  and  O_2
REMARK    2  A    between atoms: O_2  and  C_3
REMARK    3  A    between atoms: C_5  and  O_6
REMARK    4  A    between atoms: C_7  and  C_8
REMARK    5  A    between atoms: C_8  and  C_10
REMARK    6  A    between atoms: C_10  and  C_11
REMARK    7  A    between atoms: C_11  and  C_12
REMARK    8  A    between atoms: C_18  and  O_19
REMARK    9  A    between atoms: O_19  and  C_20
REMARK                            x       y       z     vdW  Elec       q    Type
REMARK                         _______ _______ _______ _____ _____    ______ ____
ROOT
ATOM      1  C   UNL     1       7.088   6.122  17.941  0.00  0.00    +0.000 A 
ATOM      2  C   UNL     1       6.598   5.393  19.017  0.00  0.00    +0.000 A 
ATOM      3  C   UNL     1       5.600   4.434  18.829  0.00  0.00    +0.000 A 
ATOM      4  C   UNL     1       5.051   4.185  17.557  0.00  0.00    +0.000 A 
ATOM      5  C   UNL     1       5.543   4.938  16.463  0.00  0.00    +0.000 A 
ATOM      6  C   UNL     1       6.561   5.892  16.672  0.00  0.00    +0.000 A 
ENDROOT
BRANCH   1   8
ATOM      7  C   UNL     1       7.948   8.328  17.731  0.00  0.00    +0.000 C 
ATOM      8  O   UNL     1       8.072   7.014  18.260  0.00  0.00    +0.000 OA
ENDBRANCH   1   8
BRANCH   3   9
ATOM      9  O   UNL     1       5.208   3.727  19.932  0.00  0.00    +0.000 OA
ATOM     10  H   UNL     1       4.795   4.321  20.583  0.00  0.00    +0.000 HD
ENDBRANCH   3   9
BRANCH   4  11
ATOM     11  C   UNL     1       3.992   3.122  17.355  0.00  0.00    +0.000 C 
ATOM     12  O   UNL     1       4.224   1.949  17.647  0.00  0.00    +0.000 OA
BRANCH  11  13
ATOM     13  C   UNL     1       2.635   3.535  16.793  0.00  0.00    +0.000 C 
BRANCH  13  14
ATOM     14  C   UNL     1       1.902   4.588  17.626  0.00  0.00    +0.000 C 
BRANCH  14  15
ATOM     15  C   UNL     1       1.795   4.136  19.071  0.00  0.00    +0.000 A 
ATOM     16  C   UNL     1       2.211   4.972  20.111  0.00  0.00    +0.000 A 
ATOM     17  C   UNL     1       2.166   4.530  21.437  0.00  0.00    +0.000 A 
ATOM     18  C   UNL     1       1.703   3.247  21.733  0.00  0.00    +0.000 A 
ATOM     19  C   UNL     1       1.289   2.406  20.704  0.00  0.00    +0.000 A 
ATOM     20  C   UNL     1       1.335   2.847  19.380  0.00  0.00    +0.000 A 
ENDBRANCH  14  15
ENDBRANCH  13  14
ENDBRANCH  11  13
ENDBRANCH   4  11
BRANCH   5  21
ATOM     21  O   UNL     1       4.983   4.732  15.225  0.00  0.00    +0.000 OA
ATOM     22  C   UNL     1       5.815   4.234  14.182  0.00  0.00    +0.000 C 
ENDBRANCH   5  21
TORSDOF 7
ENDMDL
MODEL 7
REMARK VINA RESULT:      -6.7      1.874      5.904
REMARK  Name = 
REMARK  9 active torsions:
REMARK  status: ('A' for Active; 'I' for Inactive)
REMARK    1  A    between atoms: C_1  and  O_2
REMARK    2  A    between atoms: O_2  and  C_3
REMARK    3  A    between atoms: C_5  and  O_6
REMARK    4  A    between atoms: C_7  and  C_8
REMARK    5  A    between atoms: C_8  and  C_10
REMARK    6  A    between atoms: C_10  and  C_11
REMARK    7  A    between atoms: C_11  and  C_12
REMARK    8  A    between atoms: C_18  and  O_19
REMARK    9  A    between atoms: O_19  and  C_20
REMARK                            x       y       z     vdW  Elec       q    Type
REMARK                         _______ _______ _______ _____ _____    ______ ____
ROOT
ATOM      1  C   UNL     1       2.022   3.778  18.887  0.00  0.00    +0.000 A 
ATOM      2  C   UNL     1       3.008   2.960  19.420  0.00  0.00    +0.000 A 
ATOM      3  C   UNL     1       4.359   3.276  19.257  0.00  0.00    +0.000 A 
ATOM      4  C   UNL     1       4.763   4.419  18.540  0.00  0.00    +0.000 A 
ATOM      5  C   UNL     1       3.755   5.245  17.986  0.00  0.00    +0.000 A 
ATOM      6  C   UNL     1       2.397   4.914  18.174  0.00  0.00    +0.000 A 
ENDROOT
BRANCH   1   8
ATOM      7  C   UNL     1       0.432   2.012  18.816  0.00  0.00    +0.000 C 
ATOM      8  O   UNL     1       0.744   3.362  19.134  0.00  0.00    +0.000 OA
ENDBRANCH   1   8
BRANCH   3   9
ATOM      9  O   UNL     1       5.264   2.445  19.854  0.00  0.00    +0.000 OA
ATOM     10  H   UNL     1       5.644   2.870  20.643  0.00  0.00    +0.000 HD
ENDBRANCH   3   9
BRANCH   4  11
ATOM     11  C   UNL     1       6.227   4.773  18.393  0.00  0.00    +0.000 C 
ATOM     12  O   UNL     1       6.819   5.361  19.297  0.00  0.00    +0.000 OA
BRANCH  11  13
ATOM     13  C   UNL     1       6.952   4.381  17.109  0.00  0.00    +0.000 C 
BRANCH  13  14
ATOM     14  C   UNL     1       7.025   5.494  16.061  0.00  0.00    +0.000 C 
BRANCH  14  15
ATOM     15  C   UNL     1       6.931   4.908  14.664  0.00  0.00    +0.000 A 
ATOM     16  C   UNL     1       7.750   5.385  13.636  0.00  0.00    +0.000 A 
ATOM     17  C   UNL     1       7.620   4.884  12.337  0.00  0.00    +0.000 A 
ATOM     18  C   UNL     1       6.670   3.903  12.056  0.00  0.00    +0.000 A 
ATOM     19  C   UNL     1       5.847   3.424  13.071  0.00  0.00    +0.000 A 
ATOM     20  C   UNL     1       5.976   3.924  14.368  0.00  0.00    +0.000 A 
ENDBRANCH  14  15
ENDBRANCH  13  14
ENDBRANCH  11  13
ENDBRANCH   4  11
BRANCH   5  21
ATOM     21  O   UNL     1       4.142   6.339  17.248  0.00  0.00    +0.000 OA
ATOM     22  C   UNL     1       3.574   7.605  17.569  0.00  0.00    +0.000 C 
ENDBRANCH   5  21
TORSDOF 7
ENDMDL
MODEL 8
REMARK VINA RESULT:      -6.6      2.254      6.604
REMARK  Name = 
REMARK  9 active torsions:
REMARK  status: ('A' for Active; 'I' for Inactive)
REMARK    1  A    between atoms: C_1  and  O_2
REMARK    2  A    between atoms: O_2  and  C_3
REMARK    3  A    between atoms: C_5  and  O_6
REMARK    4  A    between atoms: C_7  and  C_8
REMARK    5  A    between atoms: C_8  and  C_10
REMARK    6  A    between atoms: C_10  and  C_11
REMARK    7  A    between atoms: C_11  and  C_12
REMARK    8  A    between atoms: C_18  and  O_19
REMARK    9  A    between atoms: O_19  and  C_20
REMARK                            x       y       z     vdW  Elec       q    Type
REMARK                         _______ _______ _______ _____ _____    ______ ____
ROOT
ATOM      1  C   UNL     1       1.706   6.978  20.558  0.00  0.00    +0.000 A 
ATOM      2  C   UNL     1       2.346   7.361  19.386  0.00  0.00    +0.000 A 
ATOM      3  C   UNL     1       2.773   6.402  18.465  0.00  0.00    +0.000 A 
ATOM      4  C   UNL     1       2.585   5.027  18.697  0.00  0.00    +0.000 A 
ATOM      5  C   UNL     1       1.943   4.638  19.898  0.00  0.00    +0.000 A 
ATOM      6  C   UNL     1       1.508   5.623  20.809  0.00  0.00    +0.000 A 
ENDROOT
BRANCH   1   8
ATOM      7  C   UNL     1       1.108   9.273  20.734  0.00  0.00    +0.000 C 
ATOM      8  O   UNL     1       1.326   8.016  21.362  0.00  0.00    +0.000 OA
ENDBRANCH   1   8
BRANCH   3   9
ATOM      9  O   UNL     1       3.350   6.865  17.315  0.00  0.00    +0.000 OA
ATOM     10  H   UNL     1       2.694   6.895  16.597  0.00  0.00    +0.000 HD
ENDBRANCH   3   9
BRANCH   4  11
ATOM     11  C   UNL     1       3.022   3.994  17.680  0.00  0.00    +0.000 C 
ATOM     12  O   UNL     1       2.230   3.577  16.835  0.00  0.00    +0.000 OA
BRANCH  11  13
ATOM     13  C   UNL     1       4.461   3.489  17.718  0.00  0.00    +0.000 C 
BRANCH  13  14
ATOM     14  C   UNL     1       5.374   4.105  16.656  0.00  0.00    +0.000 C 
BRANCH  14  15
ATOM     15  C   UNL     1       6.334   5.091  17.294  0.00  0.00    +0.000 A 
ATOM     16  C   UNL     1       6.861   4.850  18.567  0.00  0.00    +0.000 A 
ATOM     17  C   UNL     1       7.698   5.790  19.177  0.00  0.00    +0.000 A 
ATOM     18  C   UNL     1       8.016   6.977  18.518  0.00  0.00    +0.000 A 
ATOM     19  C   UNL     1       7.495   7.228  17.253  0.00  0.00    +0.000 A 
ATOM     20  C   UNL     1       6.658   6.291  16.644  0.00  0.00    +0.000 A 
ENDBRANCH  14  15
ENDBRANCH  13  14
ENDBRANCH  11  13
ENDBRANCH   4  11
BRANCH   5  21
ATOM     21  O   UNL     1       1.794   3.296  20.153  0.00  0.00    +0.000 OA
ATOM     22  C   UNL     1       1.802   2.861  21.509  0.00  0.00    +0.000 C 
ENDBRANCH   5  21
TORSDOF 7
ENDMDL
MODEL 9
REMARK VINA RESULT:      -6.6      0.999      2.630
REMARK  Name = 
REMARK  9 active torsions:
REMARK  status: ('A' for Active; 'I' for Inactive)
REMARK    1  A    between atoms: C_1  and  O_2
REMARK    2  A    between atoms: O_2  and  C_3
REMARK    3  A    between atoms: C_5  and  O_6
REMARK    4  A    between atoms: C_7  and  C_8
REMARK    5  A    between atoms: C_8  and  C_10
REMARK    6  A    between atoms: C_10  and  C_11
REMARK    7  A    between atoms: C_11  and  C_12
REMARK    8  A    between atoms: C_18  and  O_19
REMARK    9  A    between atoms: O_19  and  C_20
REMARK                            x       y       z     vdW  Elec       q    Type
REMARK                         _______ _______ _______ _____ _____    ______ ____
ROOT
ATOM      1  C   UNL     1       6.243   4.697  14.711  0.00  0.00    +0.000 A 
ATOM      2  C   UNL     1       6.660   5.844  15.374  0.00  0.00    +0.000 A 
ATOM      3  C   UNL     1       6.075   6.215  16.588  0.00  0.00    +0.000 A 
ATOM      4  C   UNL     1       5.043   5.453  17.168  0.00  0.00    +0.000 A 
ATOM      5  C   UNL     1       4.611   4.291  16.484  0.00  0.00    +0.000 A 
ATOM      6  C   UNL     1       5.224   3.928  15.266  0.00  0.00    +0.000 A 
ENDROOT
BRANCH   1   8
ATOM      7  C   UNL     1       6.280   3.560  12.624  0.00  0.00    +0.000 C 
ATOM      8  O   UNL     1       6.908   4.442  13.545  0.00  0.00    +0.000 OA
ENDBRANCH   1   8
BRANCH   3   9
ATOM      9  O   UNL     1       6.576   7.329  17.199  0.00  0.00    +0.000 OA
ATOM     10  H   UNL     1       6.036   8.108  16.976  0.00  0.00    +0.000 HD
ENDBRANCH   3   9
BRANCH   4  11
ATOM     11  C   UNL     1       4.435   5.843  18.498  0.00  0.00    +0.000 C 
ATOM     12  O   UNL     1       5.047   5.639  19.546  0.00  0.00    +0.000 OA
BRANCH  11  13
ATOM     13  C   UNL     1       3.057   6.498  18.512  0.00  0.00    +0.000 C 
BRANCH  13  14
ATOM     14  C   UNL     1       2.361   6.474  19.875  0.00  0.00    +0.000 C 
BRANCH  14  15
ATOM     15  C   UNL     1       1.961   5.056  20.237  0.00  0.00    +0.000 A 
ATOM     16  C   UNL     1       2.485   4.438  21.377  0.00  0.00    +0.000 A 
ATOM     17  C   UNL     1       2.160   3.112  21.676  0.00  0.00    +0.000 A 
ATOM     18  C   UNL     1       1.309   2.392  20.837  0.00  0.00    +0.000 A 
ATOM     19  C   UNL     1       0.786   2.996  19.698  0.00  0.00    +0.000 A 
ATOM     20  C   UNL     1       1.110   4.321  19.399  0.00  0.00    +0.000 A 
ENDBRANCH  14  15
ENDBRANCH  13  14
ENDBRANCH  11  13
ENDBRANCH   4  11
BRANCH   5  21
ATOM     21  O   UNL     1       3.574   3.565  17.021  0.00  0.00    +0.000 OA
ATOM     22  C   UNL     1       3.888   2.413  17.796  0.00  0.00    +0.000 C 
ENDBRANCH   5  21
TORSDOF 7
ENDMDL
