MODEL 1
REMARK VINA RESULT:      -7.9      0.000      0.000
REMARK  Name = 
REMARK  13 active torsions:
REMARK  status: ('A' for Active; 'I' for Inactive)
REMARK    1  A    between atoms: C_1  and  C_2
REMARK    2  A    between atoms: C_2  and  C_3
REMARK    3  A    between atoms: C_3  and  C_4
REMARK    4  A    between atoms: C_3  and  C_5
REMARK    5  A    between atoms: C_3  and  C_6
REMARK    6  A    between atoms: C_6  and  C_8
REMARK    7  A    between atoms: C_15  and  C_16
REMARK    8  A    between atoms: C_16  and  O_18
REMARK    9  A    between atoms: O_18  and  C_19
REMARK   10  A    between atoms: C_19  and  C_20
REMARK   11  A    between atoms: C_20  and  C_21
REMARK   12  A    between atoms: C_20  and  C_22
REMARK   13  A    between atoms: C_20  and  C_23
REMARK                            x       y       z     vdW  Elec       q    Type
REMARK                         _______ _______ _______ _____ _____    ______ ____
ROOT
ATOM      1  C   UNL     1       5.123   4.020  18.422  0.00  0.00    +0.000 C 
ATOM      2  O   UNL     1       5.360   3.417  19.467  0.00  0.00    +0.000 OA
ATOM      3  N   UNL     1       6.053   4.820  17.764  0.00  0.00    +0.000 N 
ATOM      4  C   UNL     1       7.413   4.889  18.292  0.00  0.00    +0.000 C 
ATOM      5  C   UNL     1       7.802   6.323  18.643  0.00  0.00    +0.000 C 
ATOM      6  C   UNL     1       7.539   7.279  17.481  0.00  0.00    +0.000 C 
ATOM      7  C   UNL     1       6.107   7.139  16.958  0.00  0.00    +0.000 C 
ATOM      8  C   UNL     1       5.768   5.681  16.589  0.00  0.00    +0.000 C 
ENDROOT
BRANCH   1   9
ATOM      9  C   UNL     1       3.712   3.897  17.849  0.00  0.00    +0.000 C 
ATOM     10  O   UNL     1       3.532   3.110  16.922  0.00  0.00    +0.000 OA
BRANCH   9  11
ATOM     11  C   UNL     1       2.582   4.720  18.498  0.00  0.00    +0.000 C 
ATOM     12  C   UNL     1       1.273   4.434  17.739  0.00  0.00    +0.000 C 
ATOM     13  C   UNL     1       2.840   6.236  18.400  0.00  0.00    +0.000 C 
BRANCH  11  15
ATOM     14  C   UNL     1       1.091   3.841  20.448  0.00  0.00    +0.000 C 
ATOM     15  C   UNL     1       2.453   4.355  19.998  0.00  0.00    +0.000 C 
ENDBRANCH  11  15
ENDBRANCH   9  11
ENDBRANCH   1   9
BRANCH   8  16
ATOM     16  C   UNL     1       6.530   5.216  15.328  0.00  0.00    +0.000 C 
ATOM     17  O   UNL     1       7.734   5.354  15.146  0.00  0.00    +0.000 OA
BRANCH  16  18
ATOM     18  O   UNL     1       5.678   4.641  14.432  0.00  0.00    +0.000 OA
BRANCH  18  19
ATOM     19  C   UNL     1       6.134   3.419  13.829  0.00  0.00    +0.000 C 
BRANCH  19  20
ATOM     20  C   UNL     1       6.087   3.419  12.287  0.00  0.00    +0.000 C 
ATOM     21  C   UNL     1       7.040   4.479  11.712  0.00  0.00    +0.000 C 
ATOM     22  C   UNL     1       6.532   2.027  11.800  0.00  0.00    +0.000 C 
ATOM     23  C   UNL     1       4.666   3.694  11.775  0.00  0.00    +0.000 C 
ENDBRANCH  19  20
ENDBRANCH  18  19
ENDBRANCH  16  18
ENDBRANCH   8  16
TORSDOF 7
ENDMDL
MODEL 2
REMARK VINA RESULT:      -7.7      0.519      1.596
REMARK  Name = 
REMARK  13 active torsions:
REMARK  status: ('A' for Active; 'I' for Inactive)
REMARK    1  A    between atoms: C_1  and  C_2
REMARK    2  A    between atoms: C_2  and  C_3
REMARK    3  A    between atoms: C_3  and  C_4
REMARK    4  A    between atoms: C_3  and  C_5
REMARK    5  A    between atoms: C_3  and  C_6
REMARK    6  A    between atoms: C_6  and  C_8
REMARK    7  A    between atoms: C_15  and  C_16
REMARK    8  A    between atoms: C_16  and  O_18
REMARK    9  A    between atoms: O_18  and  C_19
REMARK   10  A    between atoms: C_19  and  C_20
REMARK   11  A    between atoms: C_20  and  C_21
REMARK   12  A    between atoms: C_20  and  C_22
REMARK   13  A    between atoms: C_20  and  C_23
REMARK                            x       y       z     vdW  Elec       q    Type
REMARK                         _______ _______ _______ _____ _____    ______ ____
ROOT
ATOM      1  C   UNL     1       5.208   3.971  18.456  0.00  0.00    +0.000 C 
ATOM      2  O   UNL     1       5.508   3.402  19.503  0.00  0.00    +0.000 OA
ATOM      3  N   UNL     1       6.068   4.819  17.762  0.00  0.00    +0.000 N 
ATOM      4  C   UNL     1       7.433   4.984  18.256  0.00  0.00    +0.000 C 
ATOM      5  C   UNL     1       7.736   6.446  18.575  0.00  0.00    +0.000 C 
ATOM      6  C   UNL     1       7.383   7.363  17.405  0.00  0.00    +0.000 C 
ATOM      7  C   UNL     1       5.951   7.122  16.920  0.00  0.00    +0.000 C 
ATOM      8  C   UNL     1       5.700   5.639  16.582  0.00  0.00    +0.000 C 
ENDROOT
BRANCH   1   9
ATOM      9  C   UNL     1       3.795   3.747  17.919  0.00  0.00    +0.000 C 
ATOM     10  O   UNL     1       3.643   2.930  17.014  0.00  0.00    +0.000 OA
BRANCH   9  11
ATOM     11  C   UNL     1       2.630   4.512  18.578  0.00  0.00    +0.000 C 
ATOM     12  C   UNL     1       2.932   4.660  20.080  0.00  0.00    +0.000 C 
ATOM     13  C   UNL     1       1.296   3.749  18.457  0.00  0.00    +0.000 C 
BRANCH  11  15
ATOM     14  C   UNL     1       2.603   7.108  18.810  0.00  0.00    +0.000 C 
ATOM     15  C   UNL     1       2.451   5.894  17.902  0.00  0.00    +0.000 C 
ENDBRANCH  11  15
ENDBRANCH   9  11
ENDBRANCH   1   9
BRANCH   8  16
ATOM     16  C   UNL     1       6.461   5.204  15.310  0.00  0.00    +0.000 C 
ATOM     17  O   UNL     1       7.643   5.434  15.087  0.00  0.00    +0.000 OA
BRANCH  16  18
ATOM     18  O   UNL     1       5.633   4.536  14.455  0.00  0.00    +0.000 OA
BRANCH  18  19
ATOM     19  C   UNL     1       6.188   3.367  13.832  0.00  0.00    +0.000 C 
BRANCH  19  20
ATOM     20  C   UNL     1       6.140   3.388  12.290  0.00  0.00    +0.000 C 
ATOM     21  C   UNL     1       6.528   2.018  11.713  0.00  0.00    +0.000 C 
ATOM     22  C   UNL     1       4.697   3.721  11.867  0.00  0.00    +0.000 C 
ATOM     23  C   UNL     1       7.085   4.456  11.720  0.00  0.00    +0.000 C 
ENDBRANCH  19  20
ENDBRANCH  18  19
ENDBRANCH  16  18
ENDBRANCH   8  16
TORSDOF 7
ENDMDL
MODEL 3
REMARK VINA RESULT:      -7.0      0.986      1.171
REMARK  Name = 
REMARK  13 active torsions:
REMARK  status: ('A' for Active; 'I' for Inactive)
REMARK    1  A    between atoms: C_1  and  C_2
REMARK    2  A    between atoms: C_2  and  C_3
REMARK    3  A    between atoms: C_3  and  C_4
REMARK    4  A    between atoms: C_3  and  C_5
REMARK    5  A    between atoms: C_3  and  C_6
REMARK    6  A    between atoms: C_6  and  C_8
REMARK    7  A    between atoms: C_15  and  C_16
REMARK    8  A    between atoms: C_16  and  O_18
REMARK    9  A    between atoms: O_18  and  C_19
REMARK   10  A    between atoms: C_19  and  C_20
REMARK   11  A    between atoms: C_20  and  C_21
REMARK   12  A    between atoms: C_20  and  C_22
REMARK   13  A    between atoms: C_20  and  C_23
REMARK                            x       y       z     vdW  Elec       q    Type
REMARK                         _______ _______ _______ _____ _____    ______ ____
ROOT
ATOM      1  C   UNL     1       4.848   3.527  18.735  0.00  0.00    +0.000 C 
ATOM      2  O   UNL     1       5.207   3.224  19.871  0.00  0.00    +0.000 OA
ATOM      3  N   UNL     1       5.580   4.356  17.888  0.00  0.00    +0.000 N 
ATOM      4  C   UNL     1       6.887   4.832  18.336  0.00  0.00    +0.000 C 
ATOM      5  C   UNL     1       6.942   6.358  18.368  0.00  0.00    +0.000 C 
ATOM      6  C   UNL     1       6.479   6.966  17.046  0.00  0.00    +0.000 C 
ATOM      7  C   UNL     1       5.119   6.408  16.621  0.00  0.00    +0.000 C 
ATOM      8  C   UNL     1       5.118   4.867  16.574  0.00  0.00    +0.000 C 
ENDROOT
BRANCH   1   9
ATOM      9  C   UNL     1       3.505   2.979  18.256  0.00  0.00    +0.000 C 
ATOM     10  O   UNL     1       3.506   1.947  17.588  0.00  0.00    +0.000 OA
BRANCH   9  11
ATOM     11  C   UNL     1       2.218   3.713  18.683  0.00  0.00    +0.000 C 
ATOM     12  C   UNL     1       1.242   2.680  19.275  0.00  0.00    +0.000 C 
ATOM     13  C   UNL     1       1.506   4.375  17.486  0.00  0.00    +0.000 C 
BRANCH  11  15
ATOM     14  C   UNL     1       2.126   4.557  21.147  0.00  0.00    +0.000 C 
ATOM     15  C   UNL     1       2.555   4.823  19.709  0.00  0.00    +0.000 C 
ENDBRANCH  11  15
ENDBRANCH   9  11
ENDBRANCH   1   9
BRANCH   8  16
ATOM     16  C   UNL     1       5.973   4.328  15.406  0.00  0.00    +0.000 C 
ATOM     17  O   UNL     1       7.094   3.846  15.523  0.00  0.00    +0.000 OA
BRANCH  16  18
ATOM     18  O   UNL     1       5.318   4.473  14.218  0.00  0.00    +0.000 OA
BRANCH  18  19
ATOM     19  C   UNL     1       5.035   3.257  13.508  0.00  0.00    +0.000 C 
BRANCH  19  20
ATOM     20  C   UNL     1       5.483   3.269  12.031  0.00  0.00    +0.000 C 
ATOM     21  C   UNL     1       6.740   4.136  11.850  0.00  0.00    +0.000 C 
ATOM     22  C   UNL     1       5.810   1.820  11.624  0.00  0.00    +0.000 C 
ATOM     23  C   UNL     1       4.372   3.805  11.117  0.00  0.00    +0.000 C 
ENDBRANCH  19  20
ENDBRANCH  18  19
ENDBRANCH  16  18
ENDBRANCH   8  16
TORSDOF 7
ENDMDL
MODEL 4
REMARK VINA RESULT:      -6.7      0.870      1.586
REMARK  Name = 
REMARK  13 active torsions:
REMARK  status: ('A' for Active; 'I' for Inactive)
REMARK    1  A    between atoms: C_1  and  C_2
REMARK    2  A    between atoms: C_2  and  C_3
REMARK    3  A    between atoms: C_3  and  C_4
REMARK    4  A    between atoms: C_3  and  C_5
REMARK    5  A    between atoms: C_3  and  C_6
REMARK    6  A    between atoms: C_6  and  C_8
REMARK    7  A    between atoms: C_15  and  C_16
REMARK    8  A    between atoms: C_16  and  O_18
REMARK    9  A    between atoms: O_18  and  C_19
REMARK   10  A    between atoms: C_19  and  C_20
REMARK   11  A    between atoms: C_20  and  C_21
REMARK   12  A    between atoms: C_20  and  C_22
REMARK   13  A    between atoms: C_20  and  C_23
REMARK                            x       y       z     vdW  Elec       q    Type
REMARK                         _______ _______ _______ _____ _____    ______ ____
ROOT
ATOM      1  C   UNL     1       5.174   4.224  18.641  0.00  0.00    +0.000 C 
ATOM      2  O   UNL     1       5.458   3.642  19.686  0.00  0.00    +0.000 OA
ATOM      3  N   UNL     1       6.078   4.997  17.916  0.00  0.00    +0.000 N 
ATOM      4  C   UNL     1       7.465   5.060  18.372  0.00  0.00    +0.000 C 
ATOM      5  C   UNL     1       7.887   6.497  18.669  0.00  0.00    +0.000 C 
ATOM      6  C   UNL     1       7.576   7.429  17.500  0.00  0.00    +0.000 C 
ATOM      7  C   UNL     1       6.117   7.296  17.055  0.00  0.00    +0.000 C 
ATOM      8  C   UNL     1       5.743   5.834  16.739  0.00  0.00    +0.000 C 
ENDROOT
BRANCH   1   9
ATOM      9  C   UNL     1       3.734   4.106  18.144  0.00  0.00    +0.000 C 
ATOM     10  O   UNL     1       3.312   4.975  17.384  0.00  0.00    +0.000 OA
BRANCH   9  11
ATOM     11  C   UNL     1       2.909   2.876  18.572  0.00  0.00    +0.000 C 
ATOM     12  C   UNL     1       3.690   1.607  18.186  0.00  0.00    +0.000 C 
ATOM     13  C   UNL     1       1.550   2.810  17.845  0.00  0.00    +0.000 C 
BRANCH  11  15
ATOM     14  C   UNL     1       1.546   3.895  20.547  0.00  0.00    +0.000 C 
ATOM     15  C   UNL     1       2.632   2.926  20.095  0.00  0.00    +0.000 C 
ENDBRANCH  11  15
ENDBRANCH   9  11
ENDBRANCH   1   9
BRANCH   8  16
ATOM     16  C   UNL     1       6.433   5.331  15.451  0.00  0.00    +0.000 C 
ATOM     17  O   UNL     1       7.602   5.546  15.153  0.00  0.00    +0.000 OA
BRANCH  16  18
ATOM     18  O   UNL     1       5.560   4.623  14.678  0.00  0.00    +0.000 OA
BRANCH  18  19
ATOM     19  C   UNL     1       6.096   3.453  14.039  0.00  0.00    +0.000 C 
BRANCH  19  20
ATOM     20  C   UNL     1       6.090   3.516  12.497  0.00  0.00    +0.000 C 
ATOM     21  C   UNL     1       6.422   2.142  11.894  0.00  0.00    +0.000 C 
ATOM     22  C   UNL     1       4.677   3.934  12.046  0.00  0.00    +0.000 C 
ATOM     23  C   UNL     1       7.103   4.547  11.979  0.00  0.00    +0.000 C 
ENDBRANCH  19  20
ENDBRANCH  18  19
ENDBRANCH  16  18
ENDBRANCH   8  16
TORSDOF 7
ENDMDL
MODEL 5
REMARK VINA RESULT:      -6.6      2.780      6.892
REMARK  Name = 
REMARK  13 active torsions:
REMARK  status: ('A' for Active; 'I' for Inactive)
REMARK    1  A    between atoms: C_1  and  C_2
REMARK    2  A    between atoms: C_2  and  C_3
REMARK    3  A    between atoms: C_3  and  C_4
REMARK    4  A    between atoms: C_3  and  C_5
REMARK    5  A    between atoms: C_3  and  C_6
REMARK    6  A    between atoms: C_6  and  C_8
REMARK    7  A    between atoms: C_15  and  C_16
REMARK    8  A    between atoms: C_16  and  O_18
REMARK    9  A    between atoms: O_18  and  C_19
REMARK   10  A    between atoms: C_19  and  C_20
REMARK   11  A    between atoms: C_20  and  C_21
REMARK   12  A    between atoms: C_20  and  C_22
REMARK   13  A    between atoms: C_20  and  C_23
REMARK                            x       y       z     vdW  Elec       q    Type
REMARK                         _______ _______ _______ _____ _____    ______ ____
ROOT
ATOM      1  C   UNL     1       4.838   3.802  19.452  0.00  0.00    +0.000 C 
ATOM      2  O   UNL     1       5.254   2.706  19.823  0.00  0.00    +0.000 OA
ATOM      3  N   UNL     1       3.486   4.130  19.376  0.00  0.00    +0.000 N 
ATOM      4  C   UNL     1       2.503   3.151  19.836  0.00  0.00    +0.000 C 
ATOM      5  C   UNL     1       1.530   2.776  18.722  0.00  0.00    +0.000 C 
ATOM      6  C   UNL     1       0.915   4.012  18.069  0.00  0.00    +0.000 C 
ATOM      7  C   UNL     1       1.995   5.006  17.634  0.00  0.00    +0.000 C 
ATOM      8  C   UNL     1       2.936   5.380  18.796  0.00  0.00    +0.000 C 
ENDROOT
BRANCH   1   9
ATOM      9  C   UNL     1       5.877   4.837  19.026  0.00  0.00    +0.000 C 
ATOM     10  O   UNL     1       6.391   5.534  19.898  0.00  0.00    +0.000 OA
BRANCH   9  11
ATOM     11  C   UNL     1       6.267   4.914  17.536  0.00  0.00    +0.000 C 
ATOM     12  C   UNL     1       7.757   4.547  17.404  0.00  0.00    +0.000 C 
ATOM     13  C   UNL     1       6.100   6.337  16.967  0.00  0.00    +0.000 C 
BRANCH  11  15
ATOM     14  C   UNL     1       5.224   4.305  15.227  0.00  0.00    +0.000 C 
ATOM     15  C   UNL     1       5.376   3.960  16.703  0.00  0.00    +0.000 C 
ENDBRANCH  11  15
ENDBRANCH   9  11
ENDBRANCH   1   9
BRANCH   8  16
ATOM     16  C   UNL     1       2.223   6.249  19.856  0.00  0.00    +0.000 C 
ATOM     17  O   UNL     1       1.693   5.818  20.874  0.00  0.00    +0.000 OA
BRANCH  16  18
ATOM     18  O   UNL     1       2.248   7.565  19.500  0.00  0.00    +0.000 OA
BRANCH  18  19
ATOM     19  C   UNL     1       1.336   8.422  20.206  0.00  0.00    +0.000 C 
BRANCH  19  20
ATOM     20  C   UNL     1       0.887   9.663  19.406  0.00  0.00    +0.000 C 
ATOM     21  C   UNL     1       1.379  10.953  20.081  0.00  0.00    +0.000 C 
ATOM     22  C   UNL     1       1.502   9.566  17.997  0.00  0.00    +0.000 C 
ATOM     23  C   UNL     1      -0.643   9.719  19.279  0.00  0.00    +0.000 C 
ENDBRANCH  19  20
ENDBRANCH  18  19
ENDBRANCH  16  18
ENDBRANCH   8  16
TORSDOF 7
ENDMDL
MODEL 6
REMARK VINA RESULT:      -6.6      0.901      1.264
REMARK  Name = 
REMARK  13 active torsions:
REMARK  status: ('A' for Active; 'I' for Inactive)
REMARK    1  A    between atoms: C_1  and  C_2
REMARK    2  A    between atoms: C_2  and  C_3
REMARK    3  A    between atoms: C_3  and  C_4
REMARK    4  A    between atoms: C_3  and  C_5
REMARK    5  A    between atoms: C_3  and  C_6
REMARK    6  A    between atoms: C_6  and  C_8
REMARK    7  A    between atoms: C_15  and  C_16
REMARK    8  A    between atoms: C_16  and  O_18
REMARK    9  A    between atoms: O_18  and  C_19
REMARK   10  A    between atoms: C_19  and  C_20
REMARK   11  A    between atoms: C_20  and  C_21
REMARK   12  A    between atoms: C_20  and  C_22
REMARK   13  A    between atoms: C_20  and  C_23
REMARK                            x       y       z     vdW  Elec       q    Type
REMARK                         _______ _______ _______ _____ _____    ______ ____
ROOT
ATOM      1  C   UNL     1       4.779   3.620  18.297  0.00  0.00    +0.000 C 
ATOM      2  O   UNL     1       5.250   2.831  19.113  0.00  0.00    +0.000 OA
ATOM      3  N   UNL     1       5.537   4.562  17.606  0.00  0.00    +0.000 N 
ATOM      4  C   UNL     1       6.986   4.567  17.796  0.00  0.00    +0.000 C 
ATOM      5  C   UNL     1       7.473   5.916  18.321  0.00  0.00    +0.000 C 
ATOM      6  C   UNL     1       6.955   7.073  17.469  0.00  0.00    +0.000 C 
ATOM      7  C   UNL     1       5.437   6.995  17.288  0.00  0.00    +0.000 C 
ATOM      8  C   UNL     1       4.993   5.628  16.729  0.00  0.00    +0.000 C 
ENDROOT
BRANCH   1   9
ATOM      9  C   UNL     1       3.269   3.569  18.065  0.00  0.00    +0.000 C 
ATOM     10  O   UNL     1       2.858   2.999  17.056  0.00  0.00    +0.000 OA
BRANCH   9  11
ATOM     11  C   UNL     1       2.342   4.181  19.133  0.00  0.00    +0.000 C 
ATOM     12  C   UNL     1       0.924   3.618  18.928  0.00  0.00    +0.000 C 
ATOM     13  C   UNL     1       2.243   5.714  19.004  0.00  0.00    +0.000 C 
BRANCH  11  15
ATOM     14  C   UNL     1       1.890   3.189  21.501  0.00  0.00    +0.000 C 
ATOM     15  C   UNL     1       2.877   3.857  20.550  0.00  0.00    +0.000 C 
ENDBRANCH  11  15
ENDBRANCH   9  11
ENDBRANCH   1   9
BRANCH   8  16
ATOM     16  C   UNL     1       5.421   5.444  15.255  0.00  0.00    +0.000 C 
ATOM     17  O   UNL     1       5.864   6.333  14.539  0.00  0.00    +0.000 OA
BRANCH  16  18
ATOM     18  O   UNL     1       5.224   4.156  14.852  0.00  0.00    +0.000 OA
BRANCH  18  19
ATOM     19  C   UNL     1       6.312   3.554  14.131  0.00  0.00    +0.000 C 
BRANCH  19  20
ATOM     20  C   UNL     1       6.102   3.493  12.604  0.00  0.00    +0.000 C 
ATOM     21  C   UNL     1       4.656   3.866  12.237  0.00  0.00    +0.000 C 
ATOM     22  C   UNL     1       7.062   4.506  11.953  0.00  0.00    +0.000 C 
ATOM     23  C   UNL     1       6.410   2.092  12.056  0.00  0.00    +0.000 C 
ENDBRANCH  19  20
ENDBRANCH  18  19
ENDBRANCH  16  18
ENDBRANCH   8  16
TORSDOF 7
ENDMDL
MODEL 7
REMARK VINA RESULT:      -6.6      3.050      7.302
REMARK  Name = 
REMARK  13 active torsions:
REMARK  status: ('A' for Active; 'I' for Inactive)
REMARK    1  A    between atoms: C_1  and  C_2
REMARK    2  A    between atoms: C_2  and  C_3
REMARK    3  A    between atoms: C_3  and  C_4
REMARK    4  A    between atoms: C_3  and  C_5
REMARK    5  A    between atoms: C_3  and  C_6
REMARK    6  A    between atoms: C_6  and  C_8
REMARK    7  A    between atoms: C_15  and  C_16
REMARK    8  A    between atoms: C_16  and  O_18
REMARK    9  A    between atoms: O_18  and  C_19
REMARK   10  A    between atoms: C_19  and  C_20
REMARK   11  A    between atoms: C_20  and  C_21
REMARK   12  A    between atoms: C_20  and  C_22
REMARK   13  A    between atoms: C_20  and  C_23
REMARK                            x       y       z     vdW  Elec       q    Type
REMARK                         _______ _______ _______ _____ _____    ______ ____
ROOT
ATOM      1  C   UNL     1       4.766   3.384  19.376  0.00  0.00    +0.000 C 
ATOM      2  O   UNL     1       5.291   2.291  19.576  0.00  0.00    +0.000 OA
ATOM      3  N   UNL     1       3.395   3.611  19.465  0.00  0.00    +0.000 N 
ATOM      4  C   UNL     1       2.532   2.514  19.898  0.00  0.00    +0.000 C 
ATOM      5  C   UNL     1       1.477   2.187  18.844  0.00  0.00    +0.000 C 
ATOM      6  C   UNL     1       0.718   3.435  18.400  0.00  0.00    +0.000 C 
ATOM      7  C   UNL     1       1.678   4.552  17.984  0.00  0.00    +0.000 C 
ATOM      8  C   UNL     1       2.705   4.870  19.088  0.00  0.00    +0.000 C 
ENDROOT
BRANCH   1   9
ATOM      9  C   UNL     1       5.684   4.538  18.977  0.00  0.00    +0.000 C 
ATOM     10  O   UNL     1       6.225   5.183  19.872  0.00  0.00    +0.000 OA
BRANCH   9  11
ATOM     11  C   UNL     1       5.929   4.796  17.476  0.00  0.00    +0.000 C 
ATOM     12  C   UNL     1       5.058   3.818  16.666  0.00  0.00    +0.000 C 
ATOM     13  C   UNL     1       7.395   4.535  17.077  0.00  0.00    +0.000 C 
BRANCH  11  15
ATOM     14  C   UNL     1       6.744   7.262  17.254  0.00  0.00    +0.000 C 
ATOM     15  C   UNL     1       5.595   6.268  17.128  0.00  0.00    +0.000 C 
ENDBRANCH  11  15
ENDBRANCH   9  11
ENDBRANCH   1   9
BRANCH   8  16
ATOM     16  C   UNL     1       2.047   5.559  20.305  0.00  0.00    +0.000 C 
ATOM     17  O   UNL     1       2.121   5.161  21.461  0.00  0.00    +0.000 OA
BRANCH  16  18
ATOM     18  O   UNL     1       1.356   6.670  19.916  0.00  0.00    +0.000 OA
BRANCH  18  19
ATOM     19  C   UNL     1       1.890   7.926  20.364  0.00  0.00    +0.000 C 
BRANCH  19  20
ATOM     20  C   UNL     1       0.873   8.814  21.113  0.00  0.00    +0.000 C 
ATOM     21  C   UNL     1       1.449   9.287  22.457  0.00  0.00    +0.000 C 
ATOM     22  C   UNL     1       0.578  10.042  20.232  0.00  0.00    +0.000 C 
ATOM     23  C   UNL     1      -0.439   8.059  21.371  0.00  0.00    +0.000 C 
ENDBRANCH  19  20
ENDBRANCH  18  19
ENDBRANCH  16  18
ENDBRANCH   8  16
TORSDOF 7
ENDMDL
MODEL 8
REMARK VINA RESULT:      -6.5      2.483      5.149
REMARK  Name = 
REMARK  13 active torsions:
REMARK  status: ('A' for Active; 'I' for Inactive)
REMARK    1  A    between atoms: C_1  and  C_2
REMARK    2  A    between atoms: C_2  and  C_3
REMARK    3  A    between atoms: C_3  and  C_4
REMARK    4  A    between atoms: C_3  and  C_5
REMARK    5  A    between atoms: C_3  and  C_6
REMARK    6  A    between atoms: C_6  and  C_8
REMARK    7  A    between atoms: C_15  and  C_16
REMARK    8  A    between atoms: C_16  and  O_18
REMARK    9  A    between atoms: O_18  and  C_19
REMARK   10  A    between atoms: C_19  and  C_20
REMARK   11  A    between atoms: C_20  and  C_21
REMARK   12  A    between atoms: C_20  and  C_22
REMARK   13  A    between atoms: C_20  and  C_23
REMARK                            x       y       z     vdW  Elec       q    Type
REMARK                         _______ _______ _______ _____ _____    ______ ____
ROOT
ATOM      1  C   UNL     1       4.079   3.380  18.072  0.00  0.00    +0.000 C 
ATOM      2  O   UNL     1       4.001   2.262  17.568  0.00  0.00    +0.000 OA
ATOM      3  N   UNL     1       4.733   4.454  17.472  0.00  0.00    +0.000 N 
ATOM      4  C   UNL     1       5.290   4.273  16.134  0.00  0.00    +0.000 C 
ATOM      5  C   UNL     1       6.793   4.539  16.117  0.00  0.00    +0.000 C 
ATOM      6  C   UNL     1       7.136   5.884  16.755  0.00  0.00    +0.000 C 
ATOM      7  C   UNL     1       6.502   6.019  18.142  0.00  0.00    +0.000 C 
ATOM      8  C   UNL     1       4.981   5.772  18.107  0.00  0.00    +0.000 C 
ENDROOT
BRANCH   1   9
ATOM      9  C   UNL     1       3.445   3.573  19.448  0.00  0.00    +0.000 C 
ATOM     10  O   UNL     1       4.158   3.426  20.439  0.00  0.00    +0.000 OA
BRANCH   9  11
ATOM     11  C   UNL     1       1.965   3.998  19.521  0.00  0.00    +0.000 C 
ATOM     12  C   UNL     1       1.494   4.367  18.103  0.00  0.00    +0.000 C 
ATOM     13  C   UNL     1       1.764   5.245  20.404  0.00  0.00    +0.000 C 
BRANCH  11  15
ATOM     14  C   UNL     1       1.277   2.600  21.611  0.00  0.00    +0.000 C 
ATOM     15  C   UNL     1       1.111   2.850  20.117  0.00  0.00    +0.000 C 
ENDBRANCH  11  15
ENDBRANCH   9  11
ENDBRANCH   1   9
BRANCH   8  16
ATOM     16  C   UNL     1       4.230   6.915  17.387  0.00  0.00    +0.000 C 
ATOM     17  O   UNL     1       4.492   7.327  16.263  0.00  0.00    +0.000 OA
BRANCH  16  18
ATOM     18  O   UNL     1       3.241   7.419  18.180  0.00  0.00    +0.000 OA
BRANCH  18  19
ATOM     19  C   UNL     1       2.207   8.150  17.501  0.00  0.00    +0.000 C 
BRANCH  19  20
ATOM     20  C   UNL     1       1.547   9.253  18.356  0.00  0.00    +0.000 C 
ATOM     21  C   UNL     1       0.078   9.451  17.951  0.00  0.00    +0.000 C 
ATOM     22  C   UNL     1       1.607   8.808  19.829  0.00  0.00    +0.000 C 
ATOM     23  C   UNL     1       2.290  10.589  18.208  0.00  0.00    +0.000 C 
ENDBRANCH  19  20
ENDBRANCH  18  19
ENDBRANCH  16  18
ENDBRANCH   8  16
TORSDOF 7
ENDMDL
MODEL 9
REMARK VINA RESULT:      -6.5      2.853      7.335
REMARK  Name = 
REMARK  13 active torsions:
REMARK  status: ('A' for Active; 'I' for Inactive)
REMARK    1  A    between atoms: C_1  and  C_2
REMARK    2  A    between atoms: C_2  and  C_3
REMARK    3  A    between atoms: C_3  and  C_4
REMARK    4  A    between atoms: C_3  and  C_5
REMARK    5  A    between atoms: C_3  and  C_6
REMARK    6  A    between atoms: C_6  and  C_8
REMARK    7  A    between atoms: C_15  and  C_16
REMARK    8  A    between atoms: C_16  and  O_18
REMARK    9  A    between atoms: O_18  and  C_19
REMARK   10  A    between atoms: C_19  and  C_20
REMARK   11  A    between atoms: C_20  and  C_21
REMARK   12  A    between atoms: C_20  and  C_22
REMARK   13  A    between atoms: C_20  and  C_23
REMARK                            x       y       z     vdW  Elec       q    Type
REMARK                         _______ _______ _______ _____ _____    ______ ____
ROOT
ATOM      1  C   UNL     1       4.697   3.629  19.359  0.00  0.00    +0.000 C 
ATOM      2  O   UNL     1       5.294   2.602  19.675  0.00  0.00    +0.000 OA
ATOM      3  N   UNL     1       3.320   3.792  19.482  0.00  0.00    +0.000 N 
ATOM      4  C   UNL     1       2.542   2.717  20.094  0.00  0.00    +0.000 C 
ATOM      5  C   UNL     1       1.468   2.196  19.141  0.00  0.00    +0.000 C 
ATOM      6  C   UNL     1       0.619   3.331  18.574  0.00  0.00    +0.000 C 
ATOM      7  C   UNL     1       1.493   4.434  17.972  0.00  0.00    +0.000 C 
ATOM      8  C   UNL     1       2.542   4.950  18.977  0.00  0.00    +0.000 C 
ENDROOT
BRANCH   1   9
ATOM      9  C   UNL     1       5.529   4.768  18.772  0.00  0.00    +0.000 C 
ATOM     10  O   UNL     1       6.143   5.496  19.548  0.00  0.00    +0.000 OA
BRANCH   9  11
ATOM     11  C   UNL     1       5.601   4.908  17.238  0.00  0.00    +0.000 C 
ATOM     12  C   UNL     1       4.968   6.255  16.842  0.00  0.00    +0.000 C 
ATOM     13  C   UNL     1       4.801   3.804  16.518  0.00  0.00    +0.000 C 
BRANCH  11  15
ATOM     14  C   UNL     1       7.290   4.800  15.255  0.00  0.00    +0.000 C 
ATOM     15  C   UNL     1       7.072   4.816  16.764  0.00  0.00    +0.000 C 
ENDBRANCH  11  15
ENDBRANCH   9  11
ENDBRANCH   1   9
BRANCH   8  16
ATOM     16  C   UNL     1       1.891   5.758  20.122  0.00  0.00    +0.000 C 
ATOM     17  O   UNL     1       1.334   5.267  21.097  0.00  0.00    +0.000 OA
BRANCH  16  18
ATOM     18  O   UNL     1       2.008   7.098  19.896  0.00  0.00    +0.000 OA
BRANCH  18  19
ATOM     19  C   UNL     1       1.826   7.944  21.043  0.00  0.00    +0.000 C 
BRANCH  19  20
ATOM     20  C   UNL     1       0.702   8.989  20.887  0.00  0.00    +0.000 C 
ATOM     21  C   UNL     1       0.523   9.380  19.412  0.00  0.00    +0.000 C 
ATOM     22  C   UNL     1      -0.606   8.357  21.401  0.00  0.00    +0.000 C 
ATOM     23  C   UNL     1       1.000  10.253  21.706  0.00  0.00    +0.000 C 
ENDBRANCH  19  20
ENDBRANCH  18  19
ENDBRANCH  16  18
ENDBRANCH   8  16
TORSDOF 7
ENDMDL
