MODEL 1
REMARK VINA RESULT:      -8.4      0.000      0.000
REMARK  Name = 
REMARK  7 active torsions:
REMARK  status: ('A' for Active; 'I' for Inactive)
REMARK    1  A    between atoms: C_1  and  C_2
REMARK    2  A    between atoms: C_5  and  C_6
REMARK    3  A    between atoms: C_6  and  S_7
REMARK    4  A    between atoms: S_7  and  C_8
REMARK    5  A    between atoms: C_13  and  N_14
REMARK    6  A    between atoms: N_14  and  C_15
REMARK    7  A    between atoms: C_15  and  C_16
REMARK                            x       y       z     vdW  Elec       q    Type
REMARK                         _______ _______ _______ _____ _____    ______ ____
ROOT
ATOM      1  C   UNL     1       6.285   6.001  17.424  0.00  0.00    +0.000 A 
ATOM      2  N   UNL     1       6.855   5.341  18.447  0.00  0.00    +0.000 NA
ATOM      3  C   UNL     1       7.844   5.956  19.095  0.00  0.00    +0.000 A 
ATOM      4  N   UNL     1       8.374   5.296  20.203  0.00  0.00    +0.000 N 
ATOM      5  C   UNL     1       8.281   7.209  18.748  0.00  0.00    +0.000 A 
ATOM      6  C   UNL     1       7.652   7.827  17.684  0.00  0.00    +0.000 A 
ATOM      7  N   UNL     1       6.632   7.238  17.021  0.00  0.00    +0.000 NA
ATOM      8  H   UNL     1       7.954   4.371  20.238  0.00  0.00    +0.000 HD
ATOM      9  H   UNL     1       9.386   5.260  20.199  0.00  0.00    +0.000 HD
ENDROOT
BRANCH   6  10
ATOM     10  N   UNL     1       8.027   9.126  17.393  0.00  0.00    +0.000 N 
ATOM     11  H   UNL     1       7.613   9.631  16.615  0.00  0.00    +0.000 HD
BRANCH  10  12
ATOM     12  C   UNL     1       8.846   9.892  18.314  0.00  0.00    +0.000 C 
BRANCH  12  13
ATOM     13  C   UNL     1       8.929  11.374  17.898  0.00  0.00    +0.000 C 
ATOM     14  O   UNL     1       7.964  11.952  17.400  0.00  0.00    +0.000 OA
ATOM     15  N   UNL     1      10.139  12.015  18.153  0.00  0.00    +0.000 N 
ATOM     16  C   UNL     1      10.269  13.458  17.951  0.00  0.00    +0.000 C 
ATOM     17  C   UNL     1      10.771  14.136  19.242  0.00  0.00    +0.000 C 
ATOM     18  N   UNL     1      12.020  13.540  19.759  0.00  0.00    +0.000 NA
ATOM     19  C   UNL     1      11.861  12.087  19.938  0.00  0.00    +0.000 C 
ATOM     20  C   UNL     1      11.362  11.381  18.663  0.00  0.00    +0.000 C 
ATOM     21  H   UNL     1      12.248  13.968  20.655  0.00  0.00    +0.000 HD
ENDBRANCH  12  13
ENDBRANCH  10  12
ENDBRANCH   6  10
BRANCH   1  22
ATOM     22  S   UNL     1       4.897   5.144  16.692  0.00  0.00    +0.000 S 
BRANCH  22  23
ATOM     23  C   UNL     1       3.458   5.896  17.514  0.00  0.00    +0.000 C 
BRANCH  23  28
ATOM     24  C   UNL     1       1.456   2.492  21.859  0.00  0.00    +0.000 C 
ATOM     25  C   UNL     1       1.961   3.347  20.731  0.00  0.00    +0.000 A 
ATOM     26  C   UNL     1       2.717   2.812  19.685  0.00  0.00    +0.000 A 
ATOM     27  C   UNL     1       3.191   3.633  18.650  0.00  0.00    +0.000 A 
ATOM     28  C   UNL     1       2.927   5.014  18.640  0.00  0.00    +0.000 A 
ATOM     29  C   UNL     1       2.150   5.539  19.686  0.00  0.00    +0.000 A 
ATOM     30  C   UNL     1       1.681   4.722  20.715  0.00  0.00    +0.000 A 
ENDBRANCH  23  28
ENDBRANCH  22  23
ENDBRANCH   1  22
TORSDOF 6
ENDMDL
MODEL 2
REMARK VINA RESULT:      -8.2      0.878      1.218
REMARK  Name = 
REMARK  7 active torsions:
REMARK  status: ('A' for Active; 'I' for Inactive)
REMARK    1  A    between atoms: C_1  and  C_2
REMARK    2  A    between atoms: C_5  and  C_6
REMARK    3  A    between atoms: C_6  and  S_7
REMARK    4  A    between atoms: S_7  and  C_8
REMARK    5  A    between atoms: C_13  and  N_14
REMARK    6  A    between atoms: N_14  and  C_15
REMARK    7  A    between atoms: C_15  and  C_16
REMARK                            x       y       z     vdW  Elec       q    Type
REMARK                         _______ _______ _______ _____ _____    ______ ____
ROOT
ATOM      1  C   UNL     1       6.731   6.021  16.950  0.00  0.00    +0.000 A 
ATOM      2  N   UNL     1       7.179   5.366  18.035  0.00  0.00    +0.000 NA
ATOM      3  C   UNL     1       7.912   6.058  18.906  0.00  0.00    +0.000 A 
ATOM      4  N   UNL     1       8.305   5.391  20.066  0.00  0.00    +0.000 N 
ATOM      5  C   UNL     1       8.212   7.384  18.723  0.00  0.00    +0.000 A 
ATOM      6  C   UNL     1       7.721   7.993  17.583  0.00  0.00    +0.000 A 
ATOM      7  N   UNL     1       6.957   7.323  16.692  0.00  0.00    +0.000 NA
ATOM      8  H   UNL     1       8.033   4.416  19.964  0.00  0.00    +0.000 HD
ATOM      9  H   UNL     1       9.290   5.496  20.272  0.00  0.00    +0.000 HD
ENDROOT
BRANCH   6  10
ATOM     10  N   UNL     1       7.944   9.351  17.444  0.00  0.00    +0.000 N 
ATOM     11  H   UNL     1       7.395   9.909  16.797  0.00  0.00    +0.000 HD
BRANCH  10  12
ATOM     12  C   UNL     1       8.799  10.067  18.372  0.00  0.00    +0.000 C 
BRANCH  12  13
ATOM     13  C   UNL     1       8.980  11.539  17.951  0.00  0.00    +0.000 C 
ATOM     14  O   UNL     1       8.040  12.197  17.505  0.00  0.00    +0.000 OA
ATOM     15  N   UNL     1      10.250  12.079  18.141  0.00  0.00    +0.000 N 
ATOM     16  C   UNL     1      10.487  13.507  17.932  0.00  0.00    +0.000 C 
ATOM     17  C   UNL     1      11.110  14.137  19.194  0.00  0.00    +0.000 C 
ATOM     18  N   UNL     1      12.332  13.439  19.644  0.00  0.00    +0.000 NA
ATOM     19  C   UNL     1      12.064  12.003  19.833  0.00  0.00    +0.000 C 
ATOM     20  C   UNL     1      11.442  11.345  18.587  0.00  0.00    +0.000 C 
ATOM     21  H   UNL     1      12.642  13.844  20.527  0.00  0.00    +0.000 HD
ENDBRANCH  12  13
ENDBRANCH  10  12
ENDBRANCH   6  10
BRANCH   1  22
ATOM     22  S   UNL     1       5.666   5.041  15.899  0.00  0.00    +0.000 S 
BRANCH  22  23
ATOM     23  C   UNL     1       5.411   3.519  16.864  0.00  0.00    +0.000 C 
BRANCH  23  28
ATOM     24  C   UNL     1       0.781   3.978  20.447  0.00  0.00    +0.000 C 
ATOM     25  C   UNL     1       1.966   3.837  19.533  0.00  0.00    +0.000 A 
ATOM     26  C   UNL     1       3.087   3.085  19.895  0.00  0.00    +0.000 A 
ATOM     27  C   UNL     1       4.189   2.980  19.031  0.00  0.00    +0.000 A 
ATOM     28  C   UNL     1       4.201   3.633  17.787  0.00  0.00    +0.000 A 
ATOM     29  C   UNL     1       3.062   4.371  17.424  0.00  0.00    +0.000 A 
ATOM     30  C   UNL     1       1.968   4.476  18.284  0.00  0.00    +0.000 A 
ENDBRANCH  23  28
ENDBRANCH  22  23
ENDBRANCH   1  22
TORSDOF 6
ENDMDL
MODEL 3
REMARK VINA RESULT:      -8.2      1.587      2.108
REMARK  Name = 
REMARK  7 active torsions:
REMARK  status: ('A' for Active; 'I' for Inactive)
REMARK    1  A    between atoms: C_1  and  C_2
REMARK    2  A    between atoms: C_5  and  C_6
REMARK    3  A    between atoms: C_6  and  S_7
REMARK    4  A    between atoms: S_7  and  C_8
REMARK    5  A    between atoms: C_13  and  N_14
REMARK    6  A    between atoms: N_14  and  C_15
REMARK    7  A    between atoms: C_15  and  C_16
REMARK                            x       y       z     vdW  Elec       q    Type
REMARK                         _______ _______ _______ _____ _____    ______ ____
ROOT
ATOM      1  C   UNL     1       6.663   6.570  16.992  0.00  0.00    +0.000 A 
ATOM      2  N   UNL     1       7.047   5.703  17.945  0.00  0.00    +0.000 NA
ATOM      3  C   UNL     1       7.888   6.153  18.875  0.00  0.00    +0.000 A 
ATOM      4  N   UNL     1       8.216   5.269  19.904  0.00  0.00    +0.000 N 
ATOM      5  C   UNL     1       8.359   7.441  18.879  0.00  0.00    +0.000 A 
ATOM      6  C   UNL     1       7.926   8.277  17.867  0.00  0.00    +0.000 A 
ATOM      7  N   UNL     1       7.056   7.856  16.922  0.00  0.00    +0.000 NA
ATOM      8  H   UNL     1       7.813   4.365  19.670  0.00  0.00    +0.000 HD
ATOM      9  H   UNL     1       9.212   5.214  20.079  0.00  0.00    +0.000 HD
ENDROOT
BRANCH   6  10
ATOM     10  N   UNL     1       8.325   9.599  17.922  0.00  0.00    +0.000 N 
ATOM     11  H   UNL     1       7.931  10.293  17.295  0.00  0.00    +0.000 HD
BRANCH  10  12
ATOM     12  C   UNL     1       9.140  10.089  19.018  0.00  0.00    +0.000 C 
BRANCH  12  13
ATOM     13  C   UNL     1      10.001  11.294  18.588  0.00  0.00    +0.000 C 
ATOM     14  O   UNL     1      10.593  11.302  17.510  0.00  0.00    +0.000 OA
ATOM     15  N   UNL     1      10.032  12.371  19.471  0.00  0.00    +0.000 N 
ATOM     16  C   UNL     1      10.679  13.625  19.086  0.00  0.00    +0.000 C 
ATOM     17  C   UNL     1       9.697  14.804  19.236  0.00  0.00    +0.000 C 
ATOM     18  N   UNL     1       9.098  14.887  20.584  0.00  0.00    +0.000 NA
ATOM     19  C   UNL     1       8.466  13.607  20.946  0.00  0.00    +0.000 C 
ATOM     20  C   UNL     1       9.425  12.409  20.808  0.00  0.00    +0.000 C 
ATOM     21  H   UNL     1       8.394  15.625  20.592  0.00  0.00    +0.000 HD
ENDBRANCH  12  13
ENDBRANCH  10  12
ENDBRANCH   6  10
BRANCH   1  22
ATOM     22  S   UNL     1       5.450   5.910  15.856  0.00  0.00    +0.000 S 
BRANCH  22  23
ATOM     23  C   UNL     1       5.366   4.150  16.310  0.00  0.00    +0.000 C 
BRANCH  23  28
ATOM     24  C   UNL     1       0.582   2.984  19.509  0.00  0.00    +0.000 C 
ATOM     25  C   UNL     1       1.813   3.298  18.706  0.00  0.00    +0.000 A 
ATOM     26  C   UNL     1       2.161   4.613  18.382  0.00  0.00    +0.000 A 
ATOM     27  C   UNL     1       3.308   4.882  17.618  0.00  0.00    +0.000 A 
ATOM     28  C   UNL     1       4.129   3.842  17.150  0.00  0.00    +0.000 A 
ATOM     29  C   UNL     1       3.781   2.526  17.497  0.00  0.00    +0.000 A 
ATOM     30  C   UNL     1       2.640   2.260  18.256  0.00  0.00    +0.000 A 
ENDBRANCH  23  28
ENDBRANCH  22  23
ENDBRANCH   1  22
TORSDOF 6
ENDMDL
MODEL 4
REMARK VINA RESULT:      -8.2      3.092      9.327
REMARK  Name = 
REMARK  7 active torsions:
REMARK  status: ('A' for Active; 'I' for Inactive)
REMARK    1  A    between atoms: C_1  and  C_2
REMARK    2  A    between atoms: C_5  and  C_6
REMARK    3  A    between atoms: C_6  and  S_7
REMARK    4  A    between atoms: S_7  and  C_8
REMARK    5  A    between atoms: C_13  and  N_14
REMARK    6  A    between atoms: N_14  and  C_15
REMARK    7  A    between atoms: C_15  and  C_16
REMARK                            x       y       z     vdW  Elec       q    Type
REMARK                         _______ _______ _______ _____ _____    ______ ____
ROOT
ATOM      1  C   UNL     1       7.737   7.700  17.902  0.00  0.00    +0.000 A 
ATOM      2  N   UNL     1       8.261   7.106  18.988  0.00  0.00    +0.000 NA
ATOM      3  C   UNL     1       7.994   5.814  19.166  0.00  0.00    +0.000 A 
ATOM      4  N   UNL     1       8.607   5.189  20.252  0.00  0.00    +0.000 N 
ATOM      5  C   UNL     1       7.216   5.097  18.292  0.00  0.00    +0.000 A 
ATOM      6  C   UNL     1       6.706   5.772  17.198  0.00  0.00    +0.000 A 
ATOM      7  N   UNL     1       6.977   7.078  16.980  0.00  0.00    +0.000 NA
ATOM      8  H   UNL     1       9.079   5.911  20.792  0.00  0.00    +0.000 HD
ATOM      9  H   UNL     1       7.965   4.645  20.814  0.00  0.00    +0.000 HD
ENDROOT
BRANCH   6  10
ATOM     10  N   UNL     1       6.001   5.031  16.269  0.00  0.00    +0.000 N 
ATOM     11  H   UNL     1       6.460   4.323  15.703  0.00  0.00    +0.000 HD
BRANCH  10  12
ATOM     12  C   UNL     1       4.551   5.069  16.226  0.00  0.00    +0.000 C 
BRANCH  12  13
ATOM     13  C   UNL     1       3.930   4.092  17.244  0.00  0.00    +0.000 C 
ATOM     14  O   UNL     1       4.276   2.912  17.290  0.00  0.00    +0.000 OA
ATOM     15  N   UNL     1       2.992   4.634  18.120  0.00  0.00    +0.000 N 
ATOM     16  C   UNL     1       2.467   3.837  19.228  0.00  0.00    +0.000 C 
ATOM     17  C   UNL     1       2.679   4.574  20.566  0.00  0.00    +0.000 C 
ATOM     18  N   UNL     1       2.125   5.943  20.565  0.00  0.00    +0.000 NA
ATOM     19  C   UNL     1       2.663   6.715  19.431  0.00  0.00    +0.000 C 
ATOM     20  C   UNL     1       2.463   6.004  18.080  0.00  0.00    +0.000 C 
ATOM     21  H   UNL     1       2.377   6.406  21.438  0.00  0.00    +0.000 HD
ENDBRANCH  12  13
ENDBRANCH  10  12
ENDBRANCH   6  10
BRANCH   1  22
ATOM     22  S   UNL     1       8.241   9.402  17.689  0.00  0.00    +0.000 S 
BRANCH  22  23
ATOM     23  C   UNL     1       9.139   9.768  19.230  0.00  0.00    +0.000 C 
BRANCH  23  28
ATOM     24  C   UNL     1      12.328  14.680  18.806  0.00  0.00    +0.000 C 
ATOM     25  C   UNL     1      11.496  13.434  18.929  0.00  0.00    +0.000 A 
ATOM     26  C   UNL     1      11.071  12.955  20.171  0.00  0.00    +0.000 A 
ATOM     27  C   UNL     1      10.308  11.780  20.262  0.00  0.00    +0.000 A 
ATOM     28  C   UNL     1       9.959  11.049  19.114  0.00  0.00    +0.000 A 
ATOM     29  C   UNL     1      10.375  11.549  17.869  0.00  0.00    +0.000 A 
ATOM     30  C   UNL     1      11.135  12.717  17.779  0.00  0.00    +0.000 A 
ENDBRANCH  23  28
ENDBRANCH  22  23
ENDBRANCH   1  22
TORSDOF 6
ENDMDL
MODEL 5
REMARK VINA RESULT:      -8.1      2.858      9.471
REMARK  Name = 
REMARK  7 active torsions:
REMARK  status: ('A' for Active; 'I' for Inactive)
REMARK    1  A    between atoms: C_1  and  C_2
REMARK    2  A    between atoms: C_5  and  C_6
REMARK    3  A    between atoms: C_6  and  S_7
REMARK    4  A    between atoms: S_7  and  C_8
REMARK    5  A    between atoms: C_13  and  N_14
REMARK    6  A    between atoms: N_14  and  C_15
REMARK    7  A    between atoms: C_15  and  C_16
REMARK                            x       y       z     vdW  Elec       q    Type
REMARK                         _______ _______ _______ _____ _____    ______ ____
ROOT
ATOM      1  C   UNL     1       7.850   7.611  17.803  0.00  0.00    +0.000 A 
ATOM      2  N   UNL     1       8.206   7.103  18.997  0.00  0.00    +0.000 NA
ATOM      3  C   UNL     1       8.041   5.793  19.176  0.00  0.00    +0.000 A 
ATOM      4  N   UNL     1       8.487   5.265  20.388  0.00  0.00    +0.000 N 
ATOM      5  C   UNL     1       7.529   4.977  18.200  0.00  0.00    +0.000 A 
ATOM      6  C   UNL     1       7.182   5.566  16.999  0.00  0.00    +0.000 A 
ATOM      7  N   UNL     1       7.357   6.888  16.780  0.00  0.00    +0.000 NA
ATOM      8  H   UNL     1       8.766   6.046  20.977  0.00  0.00    +0.000 HD
ATOM      9  H   UNL     1       7.805   4.668  20.837  0.00  0.00    +0.000 HD
ENDROOT
BRANCH   6  10
ATOM     10  N   UNL     1       6.754   4.731  15.983  0.00  0.00    +0.000 N 
ATOM     11  H   UNL     1       7.396   4.095  15.521  0.00  0.00    +0.000 HD
BRANCH  10  12
ATOM     12  C   UNL     1       5.342   4.564  15.697  0.00  0.00    +0.000 C 
BRANCH  12  13
ATOM     13  C   UNL     1       4.465   5.232  16.776  0.00  0.00    +0.000 C 
ATOM     14  O   UNL     1       4.282   6.449  16.787  0.00  0.00    +0.000 OA
ATOM     15  N   UNL     1       3.871   4.375  17.700  0.00  0.00    +0.000 N 
ATOM     16  C   UNL     1       2.891   4.884  18.659  0.00  0.00    +0.000 C 
ATOM     17  C   UNL     1       1.577   4.084  18.557  0.00  0.00    +0.000 C 
ATOM     18  N   UNL     1       1.775   2.627  18.698  0.00  0.00    +0.000 NA
ATOM     19  C   UNL     1       2.775   2.149  17.728  0.00  0.00    +0.000 C 
ATOM     20  C   UNL     1       4.102   2.928  17.808  0.00  0.00    +0.000 C 
ATOM     21  H   UNL     1       0.889   2.152  18.532  0.00  0.00    +0.000 HD
ENDBRANCH  12  13
ENDBRANCH  10  12
ENDBRANCH   6  10
BRANCH   1  22
ATOM     22  S   UNL     1       8.212   9.352  17.619  0.00  0.00    +0.000 S 
BRANCH  22  23
ATOM     23  C   UNL     1       9.058   9.771  19.174  0.00  0.00    +0.000 C 
BRANCH  23  28
ATOM     24  C   UNL     1      12.291  14.643  18.632  0.00  0.00    +0.000 C 
ATOM     25  C   UNL     1      11.467  13.391  18.748  0.00  0.00    +0.000 A 
ATOM     26  C   UNL     1      10.455  13.092  17.832  0.00  0.00    +0.000 A 
ATOM     27  C   UNL     1       9.688  11.924  17.969  0.00  0.00    +0.000 A 
ATOM     28  C   UNL     1       9.907  11.031  19.032  0.00  0.00    +0.000 A 
ATOM     29  C   UNL     1      10.939  11.332  19.936  0.00  0.00    +0.000 A 
ATOM     30  C   UNL     1      11.701  12.494  19.800  0.00  0.00    +0.000 A 
ENDBRANCH  23  28
ENDBRANCH  22  23
ENDBRANCH   1  22
TORSDOF 6
ENDMDL
MODEL 6
REMARK VINA RESULT:      -8.1      1.599      1.836
REMARK  Name = 
REMARK  7 active torsions:
REMARK  status: ('A' for Active; 'I' for Inactive)
REMARK    1  A    between atoms: C_1  and  C_2
REMARK    2  A    between atoms: C_5  and  C_6
REMARK    3  A    between atoms: C_6  and  S_7
REMARK    4  A    between atoms: S_7  and  C_8
REMARK    5  A    between atoms: C_13  and  N_14
REMARK    6  A    between atoms: N_14  and  C_15
REMARK    7  A    between atoms: C_15  and  C_16
REMARK                            x       y       z     vdW  Elec       q    Type
REMARK                         _______ _______ _______ _____ _____    ______ ____
ROOT
ATOM      1  C   UNL     1       6.568   6.421  17.059  0.00  0.00    +0.000 A 
ATOM      2  N   UNL     1       7.014   5.623  18.046  0.00  0.00    +0.000 NA
ATOM      3  C   UNL     1       7.885   6.147  18.907  0.00  0.00    +0.000 A 
ATOM      4  N   UNL     1       8.279   5.337  19.971  0.00  0.00    +0.000 N 
ATOM      5  C   UNL     1       8.326   7.442  18.809  0.00  0.00    +0.000 A 
ATOM      6  C   UNL     1       7.829   8.204  17.768  0.00  0.00    +0.000 A 
ATOM      7  N   UNL     1       6.928   7.707  16.892  0.00  0.00    +0.000 NA
ATOM      8  H   UNL     1       7.886   4.412  19.812  0.00  0.00    +0.000 HD
ATOM      9  H   UNL     1       9.282   5.312  20.104  0.00  0.00    +0.000 HD
ENDROOT
BRANCH   6  10
ATOM     10  N   UNL     1       8.200   9.535  17.724  0.00  0.00    +0.000 N 
ATOM     11  H   UNL     1       7.774  10.177  17.063  0.00  0.00    +0.000 HD
BRANCH  10  12
ATOM     12  C   UNL     1       9.034  10.114  18.760  0.00  0.00    +0.000 C 
BRANCH  12  13
ATOM     13  C   UNL     1       9.165  11.641  18.593  0.00  0.00    +0.000 C 
ATOM     14  O   UNL     1       8.932  12.188  17.515  0.00  0.00    +0.000 OA
ATOM     15  N   UNL     1       9.522  12.355  19.735  0.00  0.00    +0.000 N 
ATOM     16  C   UNL     1       9.512  13.817  19.728  0.00  0.00    +0.000 C 
ATOM     17  C   UNL     1       8.627  14.352  20.872  0.00  0.00    +0.000 C 
ATOM     18  N   UNL     1       9.005  13.813  22.194  0.00  0.00    +0.000 NA
ATOM     19  C   UNL     1       9.019  12.340  22.165  0.00  0.00    +0.000 C 
ATOM     20  C   UNL     1       9.898  11.776  21.032  0.00  0.00    +0.000 C 
ATOM     21  H   UNL     1       8.331  14.130  22.890  0.00  0.00    +0.000 HD
ENDBRANCH  12  13
ENDBRANCH  10  12
ENDBRANCH   6  10
BRANCH   1  22
ATOM     22  S   UNL     1       5.321   5.666  16.023  0.00  0.00    +0.000 S 
BRANCH  22  23
ATOM     23  C   UNL     1       5.240   3.957  16.643  0.00  0.00    +0.000 C 
BRANCH  23  28
ATOM     24  C   UNL     1       0.875   3.279  20.512  0.00  0.00    +0.000 C 
ATOM     25  C   UNL     1       1.999   3.431  19.527  0.00  0.00    +0.000 A 
ATOM     26  C   UNL     1       3.319   3.116  19.865  0.00  0.00    +0.000 A 
ATOM     27  C   UNL     1       4.356   3.280  18.933  0.00  0.00    +0.000 A 
ATOM     28  C   UNL     1       4.100   3.773  17.642  0.00  0.00    +0.000 A 
ATOM     29  C   UNL     1       2.769   4.069  17.306  0.00  0.00    +0.000 A 
ATOM     30  C   UNL     1       1.739   3.907  18.233  0.00  0.00    +0.000 A 
ENDBRANCH  23  28
ENDBRANCH  22  23
ENDBRANCH   1  22
TORSDOF 6
ENDMDL
MODEL 7
REMARK VINA RESULT:      -8.1      3.651      9.103
REMARK  Name = 
REMARK  7 active torsions:
REMARK  status: ('A' for Active; 'I' for Inactive)
REMARK    1  A    between atoms: C_1  and  C_2
REMARK    2  A    between atoms: C_5  and  C_6
REMARK    3  A    between atoms: C_6  and  S_7
REMARK    4  A    between atoms: S_7  and  C_8
REMARK    5  A    between atoms: C_13  and  N_14
REMARK    6  A    between atoms: N_14  and  C_15
REMARK    7  A    between atoms: C_15  and  C_16
REMARK                            x       y       z     vdW  Elec       q    Type
REMARK                         _______ _______ _______ _____ _____    ______ ____
ROOT
ATOM      1  C   UNL     1       7.250   5.816  17.443  0.00  0.00    +0.000 A 
ATOM      2  N   UNL     1       7.645   5.980  16.169  0.00  0.00    +0.000 NA
ATOM      3  C   UNL     1       7.111   5.171  15.255  0.00  0.00    +0.000 A 
ATOM      4  N   UNL     1       7.467   5.403  13.927  0.00  0.00    +0.000 N 
ATOM      5  C   UNL     1       6.196   4.201  15.578  0.00  0.00    +0.000 A 
ATOM      6  C   UNL     1       5.839   4.085  16.908  0.00  0.00    +0.000 A 
ATOM      7  N   UNL     1       6.347   4.905  17.854  0.00  0.00    +0.000 NA
ATOM      8  H   UNL     1       8.193   6.115  13.925  0.00  0.00    +0.000 HD
ATOM      9  H   UNL     1       7.750   4.563  13.438  0.00  0.00    +0.000 HD
ENDROOT
BRANCH   6  10
ATOM     10  N   UNL     1       4.849   3.172  17.221  0.00  0.00    +0.000 N 
ATOM     11  H   UNL     1       5.016   2.424  17.886  0.00  0.00    +0.000 HD
BRANCH  10  12
ATOM     12  C   UNL     1       3.478   3.380  16.794  0.00  0.00    +0.000 C 
BRANCH  12  13
ATOM     13  C   UNL     1       2.481   3.091  17.935  0.00  0.00    +0.000 C 
ATOM     14  O   UNL     1       2.137   1.941  18.206  0.00  0.00    +0.000 OA
ATOM     15  N   UNL     1       2.032   4.198  18.652  0.00  0.00    +0.000 N 
ATOM     16  C   UNL     1       1.218   4.021  19.854  0.00  0.00    +0.000 C 
ATOM     17  C   UNL     1       1.865   4.748  21.050  0.00  0.00    +0.000 C 
ATOM     18  N   UNL     1       2.139   6.174  20.779  0.00  0.00    +0.000 NA
ATOM     19  C   UNL     1       2.948   6.318  19.557  0.00  0.00    +0.000 C 
ATOM     20  C   UNL     1       2.326   5.603  18.343  0.00  0.00    +0.000 C 
ATOM     21  H   UNL     1       2.646   6.572  21.568  0.00  0.00    +0.000 HD
ENDBRANCH  12  13
ENDBRANCH  10  12
ENDBRANCH   6  10
BRANCH   1  22
ATOM     22  S   UNL     1       7.935   7.018  18.576  0.00  0.00    +0.000 S 
BRANCH  22  23
ATOM     23  C   UNL     1       7.886   8.567  17.623  0.00  0.00    +0.000 C 
BRANCH  23  28
ATOM     24  C   UNL     1      11.021  12.824  20.178  0.00  0.00    +0.000 C 
ATOM     25  C   UNL     1      10.236  11.732  19.508  0.00  0.00    +0.000 A 
ATOM     26  C   UNL     1      10.010  11.730  18.128  0.00  0.00    +0.000 A 
ATOM     27  C   UNL     1       9.261  10.708  17.526  0.00  0.00    +0.000 A 
ATOM     28  C   UNL     1       8.709   9.666  18.290  0.00  0.00    +0.000 A 
ATOM     29  C   UNL     1       8.957   9.665  19.673  0.00  0.00    +0.000 A 
ATOM     30  C   UNL     1       9.701  10.683  20.271  0.00  0.00    +0.000 A 
ENDBRANCH  23  28
ENDBRANCH  22  23
ENDBRANCH   1  22
TORSDOF 6
ENDMDL
MODEL 8
REMARK VINA RESULT:      -8.0      1.490      1.880
REMARK  Name = 
REMARK  7 active torsions:
REMARK  status: ('A' for Active; 'I' for Inactive)
REMARK    1  A    between atoms: C_1  and  C_2
REMARK    2  A    between atoms: C_5  and  C_6
REMARK    3  A    between atoms: C_6  and  S_7
REMARK    4  A    between atoms: S_7  and  C_8
REMARK    5  A    between atoms: C_13  and  N_14
REMARK    6  A    between atoms: N_14  and  C_15
REMARK    7  A    between atoms: C_15  and  C_16
REMARK                            x       y       z     vdW  Elec       q    Type
REMARK                         _______ _______ _______ _____ _____    ______ ____
ROOT
ATOM      1  C   UNL     1       6.624   6.414  17.017  0.00  0.00    +0.000 A 
ATOM      2  N   UNL     1       7.111   5.591  17.962  0.00  0.00    +0.000 NA
ATOM      3  C   UNL     1       7.953   6.116  18.852  0.00  0.00    +0.000 A 
ATOM      4  N   UNL     1       8.389   5.274  19.874  0.00  0.00    +0.000 N 
ATOM      5  C   UNL     1       8.324   7.436  18.823  0.00  0.00    +0.000 A 
ATOM      6  C   UNL     1       7.788   8.223  17.821  0.00  0.00    +0.000 A 
ATOM      7  N   UNL     1       6.915   7.725  16.917  0.00  0.00    +0.000 NA
ATOM      8  H   UNL     1       8.047   4.338  19.667  0.00  0.00    +0.000 HD
ATOM      9  H   UNL     1       9.393   5.296  20.008  0.00  0.00    +0.000 HD
ENDROOT
BRANCH   6  10
ATOM     10  N   UNL     1       8.087   9.572  17.846  0.00  0.00    +0.000 N 
ATOM     11  H   UNL     1       7.367  10.273  17.699  0.00  0.00    +0.000 HD
BRANCH  10  12
ATOM     12  C   UNL     1       9.379  10.043  18.308  0.00  0.00    +0.000 C 
BRANCH  12  13
ATOM     13  C   UNL     1       9.232  11.057  19.460  0.00  0.00    +0.000 C 
ATOM     14  O   UNL     1       9.155  10.686  20.631  0.00  0.00    +0.000 OA
ATOM     15  N   UNL     1       9.230  12.402  19.097  0.00  0.00    +0.000 N 
ATOM     16  C   UNL     1       9.263  13.445  20.121  0.00  0.00    +0.000 C 
ATOM     17  C   UNL     1      10.449  14.400  19.875  0.00  0.00    +0.000 C 
ATOM     18  N   UNL     1      10.457  14.970  18.512  0.00  0.00    +0.000 NA
ATOM     19  C   UNL     1      10.411  13.895  17.506  0.00  0.00    +0.000 C 
ATOM     20  C   UNL     1       9.234  12.925  17.725  0.00  0.00    +0.000 C 
ATOM     21  H   UNL     1      11.308  15.516  18.384  0.00  0.00    +0.000 HD
ENDBRANCH  12  13
ENDBRANCH  10  12
ENDBRANCH   6  10
BRANCH   1  22
ATOM     22  S   UNL     1       5.419   5.648  15.939  0.00  0.00    +0.000 S 
BRANCH  22  23
ATOM     23  C   UNL     1       5.290   3.955  16.593  0.00  0.00    +0.000 C 
BRANCH  23  28
ATOM     24  C   UNL     1       1.021   3.474  20.596  0.00  0.00    +0.000 C 
ATOM     25  C   UNL     1       2.106   3.619  19.567  0.00  0.00    +0.000 A 
ATOM     26  C   UNL     1       1.839   4.097  18.280  0.00  0.00    +0.000 A 
ATOM     27  C   UNL     1       2.866   4.210  17.330  0.00  0.00    +0.000 A 
ATOM     28  C   UNL     1       4.185   3.838  17.640  0.00  0.00    +0.000 A 
ATOM     29  C   UNL     1       4.448   3.377  18.941  0.00  0.00    +0.000 A 
ATOM     30  C   UNL     1       3.425   3.264  19.884  0.00  0.00    +0.000 A 
ENDBRANCH  23  28
ENDBRANCH  22  23
ENDBRANCH   1  22
TORSDOF 6
ENDMDL
MODEL 9
REMARK VINA RESULT:      -8.0      1.531      1.838
REMARK  Name = 
REMARK  7 active torsions:
REMARK  status: ('A' for Active; 'I' for Inactive)
REMARK    1  A    between atoms: C_1  and  C_2
REMARK    2  A    between atoms: C_5  and  C_6
REMARK    3  A    between atoms: C_6  and  S_7
REMARK    4  A    between atoms: S_7  and  C_8
REMARK    5  A    between atoms: C_13  and  N_14
REMARK    6  A    between atoms: N_14  and  C_15
REMARK    7  A    between atoms: C_15  and  C_16
REMARK                            x       y       z     vdW  Elec       q    Type
REMARK                         _______ _______ _______ _____ _____    ______ ____
ROOT
ATOM      1  C   UNL     1       6.235   6.426  17.443  0.00  0.00    +0.000 A 
ATOM      2  N   UNL     1       6.779   5.614  18.366  0.00  0.00    +0.000 NA
ATOM      3  C   UNL     1       7.830   6.076  19.042  0.00  0.00    +0.000 A 
ATOM      4  N   UNL     1       8.336   5.258  20.052  0.00  0.00    +0.000 N 
ATOM      5  C   UNL     1       8.355   7.324  18.820  0.00  0.00    +0.000 A 
ATOM      6  C   UNL     1       7.749   8.104  17.853  0.00  0.00    +0.000 A 
ATOM      7  N   UNL     1       6.668   7.671  17.166  0.00  0.00    +0.000 NA
ATOM      8  H   UNL     1       7.844   4.369  19.999  0.00  0.00    +0.000 HD
ATOM      9  H   UNL     1       9.341   5.146  20.008  0.00  0.00    +0.000 HD
ENDROOT
BRANCH   6  10
ATOM     10  N   UNL     1       8.218   9.395  17.693  0.00  0.00    +0.000 N 
ATOM     11  H   UNL     1       7.841  10.005  16.975  0.00  0.00    +0.000 HD
BRANCH  10  12
ATOM     12  C   UNL     1       9.091  10.000  18.681  0.00  0.00    +0.000 C 
BRANCH  12  13
ATOM     13  C   UNL     1       9.075  11.538  18.581  0.00  0.00    +0.000 C 
ATOM     14  O   UNL     1       8.853  12.107  17.513  0.00  0.00    +0.000 OA
ATOM     15  N   UNL     1       9.289  12.232  19.771  0.00  0.00    +0.000 N 
ATOM     16  C   UNL     1       9.130  13.685  19.819  0.00  0.00    +0.000 C 
ATOM     17  C   UNL     1       8.128  14.078  20.924  0.00  0.00    +0.000 C 
ATOM     18  N   UNL     1       8.479  13.520  22.246  0.00  0.00    +0.000 NA
ATOM     19  C   UNL     1       8.645  12.059  22.160  0.00  0.00    +0.000 C 
ATOM     20  C   UNL     1       9.643  11.636  21.066  0.00  0.00    +0.000 C 
ATOM     21  H   UNL     1       7.736  13.737  22.908  0.00  0.00    +0.000 HD
ENDBRANCH  12  13
ENDBRANCH  10  12
ENDBRANCH   6  10
BRANCH   1  22
ATOM     22  S   UNL     1       4.765   5.764  16.670  0.00  0.00    +0.000 S 
BRANCH  22  23
ATOM     23  C   UNL     1       3.415   6.454  17.677  0.00  0.00    +0.000 C 
BRANCH  23  28
ATOM     24  C   UNL     1       1.445   2.607  21.651  0.00  0.00    +0.000 C 
ATOM     25  C   UNL     1       1.960   3.604  20.651  0.00  0.00    +0.000 A 
ATOM     26  C   UNL     1       1.800   4.980  20.838  0.00  0.00    +0.000 A 
ATOM     27  C   UNL     1       2.275   5.893  19.883  0.00  0.00    +0.000 A 
ATOM     28  C   UNL     1       2.914   5.451  18.712  0.00  0.00    +0.000 A 
ATOM     29  C   UNL     1       3.087   4.067  18.542  0.00  0.00    +0.000 A 
ATOM     30  C   UNL     1       2.613   3.161  19.492  0.00  0.00    +0.000 A 
ENDBRANCH  23  28
ENDBRANCH  22  23
ENDBRANCH   1  22
TORSDOF 6
ENDMDL
