MODEL 1
REMARK VINA RESULT:      -6.6      0.000      0.000
REMARK  Name = 
REMARK  13 active torsions:
REMARK  status: ('A' for Active; 'I' for Inactive)
REMARK    1  A    between atoms: C_1  and  O_2
REMARK    2  A    between atoms: O_2  and  C_3
REMARK    3  A    between atoms: C_9  and  C_10
REMARK    4  A    between atoms: C_10  and  C_11
REMARK    5  A    between atoms: C_11  and  O_13
REMARK    6  A    between atoms: O_13  and  C_14
REMARK    7  A    between atoms: C_14  and  C_15
REMARK    8  A    between atoms: C_15  and  N_16
REMARK    9  A    between atoms: N_16  and  C_17
REMARK   10  A    between atoms: N_16  and  C_18
REMARK   11  A    between atoms: N_16  and  C_19
REMARK   12  A    between atoms: C_20  and  C_21
REMARK   13  A    between atoms: C_23  and  C_25
REMARK                            x       y       z     vdW  Elec       q    Type
REMARK                         _______ _______ _______ _____ _____    ______ ____
ROOT
ATOM      1  C   UNL     1      -3.233  10.953  17.347  0.00  0.00    +0.000 A 
ATOM      2  C   UNL     1      -3.622  11.950  18.229  0.00  0.00    +0.000 A 
ATOM      3  C   UNL     1      -2.873  12.225  19.381  0.00  0.00    +0.000 A 
ATOM      4  C   UNL     1      -1.757  11.425  19.694  0.00  0.00    +0.000 A 
ATOM      5  C   UNL     1      -1.330  10.450  18.793  0.00  0.00    +0.000 A 
ATOM      6  C   UNL     1      -2.079  10.216  17.617  0.00  0.00    +0.000 A 
ATOM      7  C   UNL     1      -0.118   9.892  19.292  0.00  0.00    +0.000 A 
ATOM      8  C   UNL     1       0.133  10.484  20.521  0.00  0.00    +0.000 A 
ATOM      9  C   UNL     1       1.246  10.206  21.479  0.00  0.00    +0.000 C 
ATOM     10  N   UNL     1      -0.890  11.406  20.795  0.00  0.00    +0.000 N 
ATOM     11  C   UNL     1      -0.996  12.182  21.991  0.00  0.00    +0.000 C 
ATOM     12  O   UNL     1       0.027  12.349  22.652  0.00  0.00    +0.000 OA
ENDROOT
BRANCH  11  13
ATOM     13  C   UNL     1      -2.235  12.810  22.506  0.00  0.00    +0.000 A 
ATOM     14  C   UNL     1      -3.127  12.105  23.324  0.00  0.00    +0.000 A 
ATOM     15  C   UNL     1      -4.339  12.692  23.694  0.00  0.00    +0.000 A 
ATOM     16  C   UNL     1      -4.625  14.001  23.309  0.00  0.00    +0.000 A 
ATOM     17 CL   UNL     1      -6.130  14.711  23.739  0.00  0.00    +0.000 Cl
ATOM     18  C   UNL     1      -3.697  14.742  22.576  0.00  0.00    +0.000 A 
ATOM     19  C   UNL     1      -2.498  14.148  22.174  0.00  0.00    +0.000 A 
ENDBRANCH  11  13
BRANCH   1  21
ATOM     20  C   UNL     1      -3.012  10.477  15.036  0.00  0.00    +0.000 C 
ATOM     21  O   UNL     1      -3.863  10.619  16.177  0.00  0.00    +0.000 OA
ENDBRANCH   1  21
BRANCH   7  22
ATOM     22  C   UNL     1       0.689   8.846  18.597  0.00  0.00    +0.000 C 
BRANCH  22  23
ATOM     23  C   UNL     1       1.977   9.391  18.016  0.00  0.00    +0.000 C 
ATOM     24  O   UNL     1       2.170  10.500  17.535  0.00  0.00    +0.000 OA
BRANCH  23  25
ATOM     25  O   UNL     1       2.914   8.395  17.952  0.00  0.00    +0.000 OA
BRANCH  25  26
ATOM     26  C   UNL     1       2.564   7.220  18.699  0.00  0.00    +0.000 C 
BRANCH  26  27
ATOM     27  C   UNL     1       3.006   5.901  18.042  0.00  0.00    +0.000 C 
BRANCH  27  28
ATOM     28  N   UNL     1       2.676   4.647  18.899  0.00  0.00    +0.000 N 
ATOM     29  C   UNL     1       1.596   3.795  18.248  0.00  0.00    +0.000 C 
ATOM     30  C   UNL     1       3.933   3.810  19.136  0.00  0.00    +0.000 C 
ATOM     31  C   UNL     1       2.165   5.123  20.260  0.00  0.00    +0.000 C 
ENDBRANCH  27  28
ENDBRANCH  26  27
ENDBRANCH  25  26
ENDBRANCH  23  25
ENDBRANCH  22  23
ENDBRANCH   7  22
TORSDOF 8
ENDMDL
MODEL 2
REMARK VINA RESULT:      -6.5      1.449      1.736
REMARK  Name = 
REMARK  13 active torsions:
REMARK  status: ('A' for Active; 'I' for Inactive)
REMARK    1  A    between atoms: C_1  and  O_2
REMARK    2  A    between atoms: O_2  and  C_3
REMARK    3  A    between atoms: C_9  and  C_10
REMARK    4  A    between atoms: C_10  and  C_11
REMARK    5  A    between atoms: C_11  and  O_13
REMARK    6  A    between atoms: O_13  and  C_14
REMARK    7  A    between atoms: C_14  and  C_15
REMARK    8  A    between atoms: C_15  and  N_16
REMARK    9  A    between atoms: N_16  and  C_17
REMARK   10  A    between atoms: N_16  and  C_18
REMARK   11  A    between atoms: N_16  and  C_19
REMARK   12  A    between atoms: C_20  and  C_21
REMARK   13  A    between atoms: C_23  and  C_25
REMARK                            x       y       z     vdW  Elec       q    Type
REMARK                         _______ _______ _______ _____ _____    ______ ____
ROOT
ATOM      1  C   UNL     1      -2.883  10.247  16.806  0.00  0.00    +0.000 A 
ATOM      2  C   UNL     1      -3.654  11.214  17.435  0.00  0.00    +0.000 A 
ATOM      3  C   UNL     1      -3.122  12.003  18.463  0.00  0.00    +0.000 A 
ATOM      4  C   UNL     1      -1.814  11.758  18.924  0.00  0.00    +0.000 A 
ATOM      5  C   UNL     1      -1.015  10.820  18.270  0.00  0.00    +0.000 A 
ATOM      6  C   UNL     1      -1.560  10.063  17.208  0.00  0.00    +0.000 A 
ATOM      7  C   UNL     1       0.286  10.872  18.850  0.00  0.00    +0.000 A 
ATOM      8  C   UNL     1       0.237  11.785  19.892  0.00  0.00    +0.000 A 
ATOM      9  C   UNL     1       1.317  12.162  20.854  0.00  0.00    +0.000 C 
ATOM     10  N   UNL     1      -1.063  12.313  19.970  0.00  0.00    +0.000 N 
ATOM     11  C   UNL     1      -1.509  13.255  20.947  0.00  0.00    +0.000 C 
ATOM     12  O   UNL     1      -0.654  13.930  21.516  0.00  0.00    +0.000 OA
ENDROOT
BRANCH  11  13
ATOM     13  C   UNL     1      -2.919  13.496  21.335  0.00  0.00    +0.000 A 
ATOM     14  C   UNL     1      -3.625  12.584  22.129  0.00  0.00    +0.000 A 
ATOM     15  C   UNL     1      -4.983  12.788  22.378  0.00  0.00    +0.000 A 
ATOM     16  C   UNL     1      -5.615  13.933  21.894  0.00  0.00    +0.000 A 
ATOM     17 CL   UNL     1      -7.295  14.166  22.174  0.00  0.00    +0.000 Cl
ATOM     18  C   UNL     1      -4.893  14.893  21.184  0.00  0.00    +0.000 A 
ATOM     19  C   UNL     1      -3.542  14.677  20.904  0.00  0.00    +0.000 A 
ENDBRANCH  11  13
BRANCH   1  21
ATOM     20  C   UNL     1      -3.557  10.116  14.538  0.00  0.00    +0.000 C 
ATOM     21  O   UNL     1      -3.283   9.444  15.771  0.00  0.00    +0.000 OA
ENDBRANCH   1  21
BRANCH   7  22
ATOM     22  C   UNL     1       1.453  10.056  18.402  0.00  0.00    +0.000 C 
BRANCH  22  23
ATOM     23  C   UNL     1       1.609   8.775  19.194  0.00  0.00    +0.000 C 
ATOM     24  O   UNL     1       1.243   8.555  20.340  0.00  0.00    +0.000 OA
BRANCH  23  25
ATOM     25  O   UNL     1       2.382   7.888  18.492  0.00  0.00    +0.000 OA
BRANCH  25  26
ATOM     26  C   UNL     1       2.574   6.632  19.159  0.00  0.00    +0.000 C 
BRANCH  26  27
ATOM     27  C   UNL     1       2.636   5.421  18.212  0.00  0.00    +0.000 C 
BRANCH  27  28
ATOM     28  N   UNL     1       4.075   4.864  18.019  0.00  0.00    +0.000 N 
ATOM     29  C   UNL     1       4.702   5.376  16.731  0.00  0.00    +0.000 C 
ATOM     30  C   UNL     1       4.957   5.226  19.213  0.00  0.00    +0.000 C 
ATOM     31  C   UNL     1       3.987   3.339  17.945  0.00  0.00    +0.000 C 
ENDBRANCH  27  28
ENDBRANCH  26  27
ENDBRANCH  25  26
ENDBRANCH  23  25
ENDBRANCH  22  23
ENDBRANCH   7  22
TORSDOF 8
ENDMDL
MODEL 3
REMARK VINA RESULT:      -6.5      1.444      1.866
REMARK  Name = 
REMARK  13 active torsions:
REMARK  status: ('A' for Active; 'I' for Inactive)
REMARK    1  A    between atoms: C_1  and  O_2
REMARK    2  A    between atoms: O_2  and  C_3
REMARK    3  A    between atoms: C_9  and  C_10
REMARK    4  A    between atoms: C_10  and  C_11
REMARK    5  A    between atoms: C_11  and  O_13
REMARK    6  A    between atoms: O_13  and  C_14
REMARK    7  A    between atoms: C_14  and  C_15
REMARK    8  A    between atoms: C_15  and  N_16
REMARK    9  A    between atoms: N_16  and  C_17
REMARK   10  A    between atoms: N_16  and  C_18
REMARK   11  A    between atoms: N_16  and  C_19
REMARK   12  A    between atoms: C_20  and  C_21
REMARK   13  A    between atoms: C_23  and  C_25
REMARK                            x       y       z     vdW  Elec       q    Type
REMARK                         _______ _______ _______ _____ _____    ______ ____
ROOT
ATOM      1  C   UNL     1      -2.904  10.135  16.637  0.00  0.00    +0.000 A 
ATOM      2  C   UNL     1      -3.618  11.214  17.137  0.00  0.00    +0.000 A 
ATOM      3  C   UNL     1      -3.177  11.906  18.272  0.00  0.00    +0.000 A 
ATOM      4  C   UNL     1      -2.039  11.453  18.967  0.00  0.00    +0.000 A 
ATOM      5  C   UNL     1      -1.288  10.397  18.449  0.00  0.00    +0.000 A 
ATOM      6  C   UNL     1      -1.731   9.738  17.280  0.00  0.00    +0.000 A 
ATOM      7  C   UNL     1      -0.133  10.238  19.268  0.00  0.00    +0.000 A 
ATOM      8  C   UNL     1      -0.237  11.148  20.310  0.00  0.00    +0.000 A 
ATOM      9  C   UNL     1       0.683  11.344  21.472  0.00  0.00    +0.000 C 
ATOM     10  N   UNL     1      -1.426  11.879  20.153  0.00  0.00    +0.000 N 
ATOM     11  C   UNL     1      -1.898  12.882  21.057  0.00  0.00    +0.000 C 
ATOM     12  O   UNL     1      -1.073  13.409  21.799  0.00  0.00    +0.000 OA
ENDROOT
BRANCH  11  13
ATOM     13  C   UNL     1      -3.299  13.348  21.174  0.00  0.00    +0.000 A 
ATOM     14  C   UNL     1      -3.691  14.609  20.707  0.00  0.00    +0.000 A 
ATOM     15  C   UNL     1      -4.993  15.059  20.939  0.00  0.00    +0.000 A 
ATOM     16  C   UNL     1      -5.915  14.226  21.570  0.00  0.00    +0.000 A 
ATOM     17 CL   UNL     1      -7.508  14.794  21.883  0.00  0.00    +0.000 Cl
ATOM     18  C   UNL     1      -5.557  12.933  21.951  0.00  0.00    +0.000 A 
ATOM     19  C   UNL     1      -4.247  12.489  21.751  0.00  0.00    +0.000 A 
ENDBRANCH  11  13
BRANCH   1  21
ATOM     20  C   UNL     1      -3.293  10.149  14.300  0.00  0.00    +0.000 C 
ATOM     21  O   UNL     1      -3.218   9.407  15.520  0.00  0.00    +0.000 OA
ENDBRANCH   1  21
BRANCH   7  22
ATOM     22  C   UNL     1       0.954   9.244  19.026  0.00  0.00    +0.000 C 
BRANCH  22  23
ATOM     23  C   UNL     1       1.943   9.703  17.975  0.00  0.00    +0.000 C 
ATOM     24  O   UNL     1       2.216  10.852  17.656  0.00  0.00    +0.000 OA
BRANCH  23  25
ATOM     25  O   UNL     1       2.417   8.621  17.282  0.00  0.00    +0.000 OA
BRANCH  25  26
ATOM     26  C   UNL     1       3.019   7.618  18.113  0.00  0.00    +0.000 C 
BRANCH  26  27
ATOM     27  C   UNL     1       4.085   6.767  17.401  0.00  0.00    +0.000 C 
BRANCH  27  28
ATOM     28  N   UNL     1       4.432   5.455  18.160  0.00  0.00    +0.000 N 
ATOM     29  C   UNL     1       3.600   5.305  19.425  0.00  0.00    +0.000 C 
ATOM     30  C   UNL     1       4.235   4.240  17.253  0.00  0.00    +0.000 C 
ATOM     31  C   UNL     1       5.910   5.512  18.553  0.00  0.00    +0.000 C 
ENDBRANCH  27  28
ENDBRANCH  26  27
ENDBRANCH  25  26
ENDBRANCH  23  25
ENDBRANCH  22  23
ENDBRANCH   7  22
TORSDOF 8
ENDMDL
MODEL 4
REMARK VINA RESULT:      -6.5      1.207      1.461
REMARK  Name = 
REMARK  13 active torsions:
REMARK  status: ('A' for Active; 'I' for Inactive)
REMARK    1  A    between atoms: C_1  and  O_2
REMARK    2  A    between atoms: O_2  and  C_3
REMARK    3  A    between atoms: C_9  and  C_10
REMARK    4  A    between atoms: C_10  and  C_11
REMARK    5  A    between atoms: C_11  and  O_13
REMARK    6  A    between atoms: O_13  and  C_14
REMARK    7  A    between atoms: C_14  and  C_15
REMARK    8  A    between atoms: C_15  and  N_16
REMARK    9  A    between atoms: N_16  and  C_17
REMARK   10  A    between atoms: N_16  and  C_18
REMARK   11  A    between atoms: N_16  and  C_19
REMARK   12  A    between atoms: C_20  and  C_21
REMARK   13  A    between atoms: C_23  and  C_25
REMARK                            x       y       z     vdW  Elec       q    Type
REMARK                         _______ _______ _______ _____ _____    ______ ____
ROOT
ATOM      1  C   UNL     1      -2.913  10.316  17.250  0.00  0.00    +0.000 A 
ATOM      2  C   UNL     1      -3.600  11.221  18.045  0.00  0.00    +0.000 A 
ATOM      3  C   UNL     1      -2.932  11.985  19.011  0.00  0.00    +0.000 A 
ATOM      4  C   UNL     1      -1.558  11.773  19.239  0.00  0.00    +0.000 A 
ATOM      5  C   UNL     1      -0.848  10.898  18.417  0.00  0.00    +0.000 A 
ATOM      6  C   UNL     1      -1.536  10.167  17.422  0.00  0.00    +0.000 A 
ATOM      7  C   UNL     1       0.528  10.977  18.779  0.00  0.00    +0.000 A 
ATOM      8  C   UNL     1       0.621  11.840  19.860  0.00  0.00    +0.000 A 
ATOM      9  C   UNL     1       1.833  12.216  20.651  0.00  0.00    +0.000 C 
ATOM     10  N   UNL     1      -0.664  12.310  20.175  0.00  0.00    +0.000 N 
ATOM     11  C   UNL     1      -0.974  13.190  21.259  0.00  0.00    +0.000 C 
ATOM     12  O   UNL     1      -0.059  13.873  21.714  0.00  0.00    +0.000 OA
ENDROOT
BRANCH  11  13
ATOM     13  C   UNL     1      -2.307  13.356  21.882  0.00  0.00    +0.000 A 
ATOM     14  C   UNL     1      -2.803  12.427  22.806  0.00  0.00    +0.000 A 
ATOM     15  C   UNL     1      -4.108  12.555  23.285  0.00  0.00    +0.000 A 
ATOM     16  C   UNL     1      -4.888  13.644  22.898  0.00  0.00    +0.000 A 
ATOM     17 CL   UNL     1      -6.505  13.784  23.463  0.00  0.00    +0.000 Cl
ATOM     18  C   UNL     1      -4.365  14.624  22.054  0.00  0.00    +0.000 A 
ATOM     19  C   UNL     1      -3.071  14.483  21.546  0.00  0.00    +0.000 A 
ENDBRANCH  11  13
BRANCH   1  21
ATOM     20  C   UNL     1      -3.393  10.103  14.940  0.00  0.00    +0.000 C 
ATOM     21  O   UNL     1      -3.451   9.544  16.255  0.00  0.00    +0.000 OA
ENDBRANCH   1  21
BRANCH   7  22
ATOM     22  C   UNL     1       1.631  10.229  18.106  0.00  0.00    +0.000 C 
BRANCH  22  23
ATOM     23  C   UNL     1       1.844   8.849  18.691  0.00  0.00    +0.000 C 
ATOM     24  O   UNL     1       1.534   8.453  19.806  0.00  0.00    +0.000 OA
BRANCH  23  25
ATOM     25  O   UNL     1       2.598   8.094  17.832  0.00  0.00    +0.000 OA
BRANCH  25  26
ATOM     26  C   UNL     1       2.656   6.703  18.182  0.00  0.00    +0.000 C 
BRANCH  26  27
ATOM     27  C   UNL     1       3.898   5.971  17.644  0.00  0.00    +0.000 C 
BRANCH  27  28
ATOM     28  N   UNL     1       4.192   4.635  18.383  0.00  0.00    +0.000 N 
ATOM     29  C   UNL     1       3.449   4.554  19.708  0.00  0.00    +0.000 C 
ATOM     30  C   UNL     1       3.826   3.441  17.501  0.00  0.00    +0.000 C 
ATOM     31  C   UNL     1       5.695   4.569  18.663  0.00  0.00    +0.000 C 
ENDBRANCH  27  28
ENDBRANCH  26  27
ENDBRANCH  25  26
ENDBRANCH  23  25
ENDBRANCH  22  23
ENDBRANCH   7  22
TORSDOF 8
ENDMDL
MODEL 5
REMARK VINA RESULT:      -6.4      1.102      1.602
REMARK  Name = 
REMARK  13 active torsions:
REMARK  status: ('A' for Active; 'I' for Inactive)
REMARK    1  A    between atoms: C_1  and  O_2
REMARK    2  A    between atoms: O_2  and  C_3
REMARK    3  A    between atoms: C_9  and  C_10
REMARK    4  A    between atoms: C_10  and  C_11
REMARK    5  A    between atoms: C_11  and  O_13
REMARK    6  A    between atoms: O_13  and  C_14
REMARK    7  A    between atoms: C_14  and  C_15
REMARK    8  A    between atoms: C_15  and  N_16
REMARK    9  A    between atoms: N_16  and  C_17
REMARK   10  A    between atoms: N_16  and  C_18
REMARK   11  A    between atoms: N_16  and  C_19
REMARK   12  A    between atoms: C_20  and  C_21
REMARK   13  A    between atoms: C_23  and  C_25
REMARK                            x       y       z     vdW  Elec       q    Type
REMARK                         _______ _______ _______ _____ _____    ______ ____
ROOT
ATOM      1  C   UNL     1      -3.010  10.404  17.146  0.00  0.00    +0.000 A 
ATOM      2  C   UNL     1      -3.718  11.319  17.911  0.00  0.00    +0.000 A 
ATOM      3  C   UNL     1      -3.090  12.046  18.930  0.00  0.00    +0.000 A 
ATOM      4  C   UNL     1      -1.740  11.788  19.241  0.00  0.00    +0.000 A 
ATOM      5  C   UNL     1      -1.006  10.904  18.450  0.00  0.00    +0.000 A 
ATOM      6  C   UNL     1      -1.652  10.210  17.401  0.00  0.00    +0.000 A 
ATOM      7  C   UNL     1       0.346  10.934  18.899  0.00  0.00    +0.000 A 
ATOM      8  C   UNL     1       0.397  11.777  19.999  0.00  0.00    +0.000 A 
ATOM      9  C   UNL     1       1.567  12.104  20.870  0.00  0.00    +0.000 C 
ATOM     10  N   UNL     1      -0.892  12.283  20.240  0.00  0.00    +0.000 N 
ATOM     11  C   UNL     1      -1.242  13.155  21.317  0.00  0.00    +0.000 C 
ATOM     12  O   UNL     1      -0.338  13.802  21.840  0.00  0.00    +0.000 OA
ENDROOT
BRANCH  11  13
ATOM     13  C   UNL     1      -2.607  13.354  21.858  0.00  0.00    +0.000 A 
ATOM     14  C   UNL     1      -3.407  14.427  21.447  0.00  0.00    +0.000 A 
ATOM     15  C   UNL     1      -4.641  14.647  22.063  0.00  0.00    +0.000 A 
ATOM     16  C   UNL     1      -5.103  13.759  23.033  0.00  0.00    +0.000 A 
ATOM     17 CL   UNL     1      -6.607  14.048  23.813  0.00  0.00    +0.000 Cl
ATOM     18  C   UNL     1      -4.352  12.634  23.377  0.00  0.00    +0.000 A 
ATOM     19  C   UNL     1      -3.103  12.427  22.788  0.00  0.00    +0.000 A 
ENDBRANCH  11  13
BRANCH   1  21
ATOM     20  C   UNL     1      -3.020  10.018  14.808  0.00  0.00    +0.000 C 
ATOM     21  O   UNL     1      -3.507   9.665  16.106  0.00  0.00    +0.000 OA
ENDBRANCH   1  21
BRANCH   7  22
ATOM     22  C   UNL     1       1.466  10.162  18.284  0.00  0.00    +0.000 C 
BRANCH  22  23
ATOM     23  C   UNL     1       1.735   8.854  18.997  0.00  0.00    +0.000 C 
ATOM     24  O   UNL     1       1.372   8.524  20.118  0.00  0.00    +0.000 OA
BRANCH  23  25
ATOM     25  O   UNL     1       2.605   8.096  18.259  0.00  0.00    +0.000 OA
BRANCH  25  26
ATOM     26  C   UNL     1       2.372   6.683  18.359  0.00  0.00    +0.000 C 
BRANCH  26  27
ATOM     27  C   UNL     1       3.517   5.901  19.024  0.00  0.00    +0.000 C 
BRANCH  27  28
ATOM     28  N   UNL     1       3.462   4.373  18.745  0.00  0.00    +0.000 N 
ATOM     29  C   UNL     1       4.763   3.868  18.139  0.00  0.00    +0.000 C 
ATOM     30  C   UNL     1       3.146   3.603  20.028  0.00  0.00    +0.000 C 
ATOM     31  C   UNL     1       2.329   4.113  17.751  0.00  0.00    +0.000 C 
ENDBRANCH  27  28
ENDBRANCH  26  27
ENDBRANCH  25  26
ENDBRANCH  23  25
ENDBRANCH  22  23
ENDBRANCH   7  22
TORSDOF 8
ENDMDL
MODEL 6
REMARK VINA RESULT:      -6.4      1.264      1.599
REMARK  Name = 
REMARK  13 active torsions:
REMARK  status: ('A' for Active; 'I' for Inactive)
REMARK    1  A    between atoms: C_1  and  O_2
REMARK    2  A    between atoms: O_2  and  C_3
REMARK    3  A    between atoms: C_9  and  C_10
REMARK    4  A    between atoms: C_10  and  C_11
REMARK    5  A    between atoms: C_11  and  O_13
REMARK    6  A    between atoms: O_13  and  C_14
REMARK    7  A    between atoms: C_14  and  C_15
REMARK    8  A    between atoms: C_15  and  N_16
REMARK    9  A    between atoms: N_16  and  C_17
REMARK   10  A    between atoms: N_16  and  C_18
REMARK   11  A    between atoms: N_16  and  C_19
REMARK   12  A    between atoms: C_20  and  C_21
REMARK   13  A    between atoms: C_23  and  C_25
REMARK                            x       y       z     vdW  Elec       q    Type
REMARK                         _______ _______ _______ _____ _____    ______ ____
ROOT
ATOM      1  C   UNL     1      -3.291  10.825  17.484  0.00  0.00    +0.000 A 
ATOM      2  C   UNL     1      -3.944  11.645  18.392  0.00  0.00    +0.000 A 
ATOM      3  C   UNL     1      -3.249  12.245  19.450  0.00  0.00    +0.000 A 
ATOM      4  C   UNL     1      -1.887  11.949  19.647  0.00  0.00    +0.000 A 
ATOM      5  C   UNL     1      -1.209  11.162  18.714  0.00  0.00    +0.000 A 
ATOM      6  C   UNL     1      -1.923  10.599  17.632  0.00  0.00    +0.000 A 
ATOM      7  C   UNL     1       0.167  11.135  19.082  0.00  0.00    +0.000 A 
ATOM      8  C   UNL     1       0.292  11.843  20.268  0.00  0.00    +0.000 A 
ATOM      9  C   UNL     1       1.514  12.061  21.100  0.00  0.00    +0.000 C 
ATOM     10  N   UNL     1      -0.975  12.320  20.644  0.00  0.00    +0.000 N 
ATOM     11  C   UNL     1      -1.252  13.060  21.836  0.00  0.00    +0.000 C 
ATOM     12  O   UNL     1      -0.313  13.638  22.376  0.00  0.00    +0.000 OA
ENDROOT
BRANCH  11  13
ATOM     13  C   UNL     1      -2.581  13.196  22.477  0.00  0.00    +0.000 A 
ATOM     14  C   UNL     1      -3.043  12.256  23.407  0.00  0.00    +0.000 A 
ATOM     15  C   UNL     1      -4.345  12.356  23.904  0.00  0.00    +0.000 A 
ATOM     16  C   UNL     1      -5.153  13.428  23.528  0.00  0.00    +0.000 A 
ATOM     17 CL   UNL     1      -6.765  13.532  24.116  0.00  0.00    +0.000 Cl
ATOM     18  C   UNL     1      -4.663  14.420  22.678  0.00  0.00    +0.000 A 
ATOM     19  C   UNL     1      -3.374  14.307  22.152  0.00  0.00    +0.000 A 
ENDBRANCH  11  13
BRANCH   1  21
ATOM     20  C   UNL     1      -3.057  10.201  15.210  0.00  0.00    +0.000 C 
ATOM     21  O   UNL     1      -3.857  10.215  16.395  0.00  0.00    +0.000 OA
ENDBRANCH   1  21
BRANCH   7  22
ATOM     22  C   UNL     1       1.242  10.439  18.314  0.00  0.00    +0.000 C 
BRANCH  22  23
ATOM     23  C   UNL     1       1.460   9.014  18.776  0.00  0.00    +0.000 C 
ATOM     24  O   UNL     1       1.461   8.591  19.924  0.00  0.00    +0.000 OA
BRANCH  23  25
ATOM     25  O   UNL     1       1.823   8.233  17.711  0.00  0.00    +0.000 OA
BRANCH  25  26
ATOM     26  C   UNL     1       3.135   7.664  17.829  0.00  0.00    +0.000 C 
BRANCH  26  27
ATOM     27  C   UNL     1       3.143   6.160  18.151  0.00  0.00    +0.000 C 
BRANCH  27  28
ATOM     28  N   UNL     1       4.452   5.444  17.714  0.00  0.00    +0.000 N 
ATOM     29  C   UNL     1       5.212   6.255  16.674  0.00  0.00    +0.000 C 
ATOM     30  C   UNL     1       5.346   5.171  18.923  0.00  0.00    +0.000 C 
ATOM     31  C   UNL     1       4.072   4.097  17.097  0.00  0.00    +0.000 C 
ENDBRANCH  27  28
ENDBRANCH  26  27
ENDBRANCH  25  26
ENDBRANCH  23  25
ENDBRANCH  22  23
ENDBRANCH   7  22
TORSDOF 8
ENDMDL
MODEL 7
REMARK VINA RESULT:      -6.4      0.984      1.188
REMARK  Name = 
REMARK  13 active torsions:
REMARK  status: ('A' for Active; 'I' for Inactive)
REMARK    1  A    between atoms: C_1  and  O_2
REMARK    2  A    between atoms: O_2  and  C_3
REMARK    3  A    between atoms: C_9  and  C_10
REMARK    4  A    between atoms: C_10  and  C_11
REMARK    5  A    between atoms: C_11  and  O_13
REMARK    6  A    between atoms: O_13  and  C_14
REMARK    7  A    between atoms: C_14  and  C_15
REMARK    8  A    between atoms: C_15  and  N_16
REMARK    9  A    between atoms: N_16  and  C_17
REMARK   10  A    between atoms: N_16  and  C_18
REMARK   11  A    between atoms: N_16  and  C_19
REMARK   12  A    between atoms: C_20  and  C_21
REMARK   13  A    between atoms: C_23  and  C_25
REMARK                            x       y       z     vdW  Elec       q    Type
REMARK                         _______ _______ _______ _____ _____    ______ ____
ROOT
ATOM      1  C   UNL     1      -2.982  10.549  17.380  0.00  0.00    +0.000 A 
ATOM      2  C   UNL     1      -3.566  11.442  18.266  0.00  0.00    +0.000 A 
ATOM      3  C   UNL     1      -2.806  12.072  19.260  0.00  0.00    +0.000 A 
ATOM      4  C   UNL     1      -1.448  11.734  19.419  0.00  0.00    +0.000 A 
ATOM      5  C   UNL     1      -0.839  10.872  18.506  0.00  0.00    +0.000 A 
ATOM      6  C   UNL     1      -1.617  10.278  17.486  0.00  0.00    +0.000 A 
ATOM      7  C   UNL     1       0.549  10.813  18.819  0.00  0.00    +0.000 A 
ATOM      8  C   UNL     1       0.749  11.579  19.958  0.00  0.00    +0.000 A 
ATOM      9  C   UNL     1       2.013  11.795  20.727  0.00  0.00    +0.000 C 
ATOM     10  N   UNL     1      -0.483  12.125  20.357  0.00  0.00    +0.000 N 
ATOM     11  C   UNL     1      -0.683  12.938  21.515  0.00  0.00    +0.000 C 
ATOM     12  O   UNL     1       0.299  13.509  21.984  0.00  0.00    +0.000 OA
ENDROOT
BRANCH  11  13
ATOM     13  C   UNL     1      -1.977  13.161  22.200  0.00  0.00    +0.000 A 
ATOM     14  C   UNL     1      -2.503  12.219  23.094  0.00  0.00    +0.000 A 
ATOM     15  C   UNL     1      -3.777  12.411  23.632  0.00  0.00    +0.000 A 
ATOM     16  C   UNL     1      -4.492  13.570  23.334  0.00  0.00    +0.000 A 
ATOM     17 CL   UNL     1      -6.073  13.789  23.971  0.00  0.00    +0.000 Cl
ATOM     18  C   UNL     1      -3.933  14.556  22.521  0.00  0.00    +0.000 A 
ATOM     19  C   UNL     1      -2.672  14.355  21.953  0.00  0.00    +0.000 A 
ENDBRANCH  11  13
BRANCH   1  21
ATOM     20  C   UNL     1      -3.154  10.233  15.038  0.00  0.00    +0.000 C 
ATOM     21  O   UNL     1      -3.614   9.903  16.351  0.00  0.00    +0.000 OA
ENDBRANCH   1  21
BRANCH   7  22
ATOM     22  C   UNL     1       1.565  10.035  18.050  0.00  0.00    +0.000 C 
BRANCH  22  23
ATOM     23  C   UNL     1       1.882   8.698  18.687  0.00  0.00    +0.000 C 
ATOM     24  O   UNL     1       1.528   8.289  19.784  0.00  0.00    +0.000 OA
BRANCH  23  25
ATOM     25  O   UNL     1       2.785   8.019  17.912  0.00  0.00    +0.000 OA
BRANCH  25  26
ATOM     26  C   UNL     1       3.167   6.744  18.448  0.00  0.00    +0.000 C 
BRANCH  26  27
ATOM     27  C   UNL     1       2.325   5.565  17.930  0.00  0.00    +0.000 C 
BRANCH  27  28
ATOM     28  N   UNL     1       2.833   4.182  18.424  0.00  0.00    +0.000 N 
ATOM     29  C   UNL     1       3.762   3.533  17.409  0.00  0.00    +0.000 C 
ATOM     30  C   UNL     1       3.540   4.319  19.772  0.00  0.00    +0.000 C 
ATOM     31  C   UNL     1       1.618   3.274  18.622  0.00  0.00    +0.000 C 
ENDBRANCH  27  28
ENDBRANCH  26  27
ENDBRANCH  25  26
ENDBRANCH  23  25
ENDBRANCH  22  23
ENDBRANCH   7  22
TORSDOF 8
ENDMDL
MODEL 8
REMARK VINA RESULT:      -6.3      3.459      8.357
REMARK  Name = 
REMARK  13 active torsions:
REMARK  status: ('A' for Active; 'I' for Inactive)
REMARK    1  A    between atoms: C_1  and  O_2
REMARK    2  A    between atoms: O_2  and  C_3
REMARK    3  A    between atoms: C_9  and  C_10
REMARK    4  A    between atoms: C_10  and  C_11
REMARK    5  A    between atoms: C_11  and  O_13
REMARK    6  A    between atoms: O_13  and  C_14
REMARK    7  A    between atoms: C_14  and  C_15
REMARK    8  A    between atoms: C_15  and  N_16
REMARK    9  A    between atoms: N_16  and  C_17
REMARK   10  A    between atoms: N_16  and  C_18
REMARK   11  A    between atoms: N_16  and  C_19
REMARK   12  A    between atoms: C_20  and  C_21
REMARK   13  A    between atoms: C_23  and  C_25
REMARK                            x       y       z     vdW  Elec       q    Type
REMARK                         _______ _______ _______ _____ _____    ______ ____
ROOT
ATOM      1  C   UNL     1      -3.162  10.778  16.830  0.00  0.00    +0.000 A 
ATOM      2  C   UNL     1      -2.267   9.722  16.913  0.00  0.00    +0.000 A 
ATOM      3  C   UNL     1      -1.446   9.560  18.036  0.00  0.00    +0.000 A 
ATOM      4  C   UNL     1      -1.466  10.527  19.060  0.00  0.00    +0.000 A 
ATOM      5  C   UNL     1      -2.394  11.568  19.009  0.00  0.00    +0.000 A 
ATOM      6  C   UNL     1      -3.240  11.689  17.883  0.00  0.00    +0.000 A 
ATOM      7  C   UNL     1      -2.286  12.310  20.221  0.00  0.00    +0.000 A 
ATOM      8  C   UNL     1      -1.250  11.754  20.955  0.00  0.00    +0.000 A 
ATOM      9  C   UNL     1      -0.695  12.199  22.270  0.00  0.00    +0.000 C 
ATOM     10  N   UNL     1      -0.713  10.674  20.233  0.00  0.00    +0.000 N 
ATOM     11  C   UNL     1       0.398   9.879  20.651  0.00  0.00    +0.000 C 
ATOM     12  O   UNL     1       0.673   9.874  21.849  0.00  0.00    +0.000 OA
ENDROOT
BRANCH  11  13
ATOM     13  C   UNL     1       1.250   9.052  19.766  0.00  0.00    +0.000 A 
ATOM     14  C   UNL     1       1.650   7.761  20.133  0.00  0.00    +0.000 A 
ATOM     15  C   UNL     1       2.545   7.057  19.326  0.00  0.00    +0.000 A 
ATOM     16  C   UNL     1       2.982   7.611  18.124  0.00  0.00    +0.000 A 
ATOM     17 CL   UNL     1       4.109   6.756  17.147  0.00  0.00    +0.000 Cl
ATOM     18  C   UNL     1       2.512   8.856  17.706  0.00  0.00    +0.000 A 
ATOM     19  C   UNL     1       1.642   9.579  18.526  0.00  0.00    +0.000 A 
ENDBRANCH  11  13
BRANCH   1  21
ATOM     20  C   UNL     1      -3.738  10.350  14.572  0.00  0.00    +0.000 C 
ATOM     21  O   UNL     1      -4.035  11.017  15.802  0.00  0.00    +0.000 OA
ENDBRANCH   1  21
BRANCH   7  22
ATOM     22  C   UNL     1      -3.139  13.481  20.582  0.00  0.00    +0.000 C 
BRANCH  22  23
ATOM     23  C   UNL     1      -4.481  13.073  21.153  0.00  0.00    +0.000 C 
ATOM     24  O   UNL     1      -5.592  13.317  20.701  0.00  0.00    +0.000 OA
BRANCH  23  25
ATOM     25  O   UNL     1      -4.304  12.492  22.381  0.00  0.00    +0.000 OA
BRANCH  25  26
ATOM     26  C   UNL     1      -4.925  13.210  23.457  0.00  0.00    +0.000 C 
BRANCH  26  27
ATOM     27  C   UNL     1      -4.099  14.398  23.980  0.00  0.00    +0.000 C 
BRANCH  27  28
ATOM     28  N   UNL     1      -4.808  15.769  23.792  0.00  0.00    +0.000 N 
ATOM     29  C   UNL     1      -4.366  16.454  22.507  0.00  0.00    +0.000 C 
ATOM     30  C   UNL     1      -6.326  15.596  23.800  0.00  0.00    +0.000 C 
ATOM     31  C   UNL     1      -4.430  16.664  24.974  0.00  0.00    +0.000 C 
ENDBRANCH  27  28
ENDBRANCH  26  27
ENDBRANCH  25  26
ENDBRANCH  23  25
ENDBRANCH  22  23
ENDBRANCH   7  22
TORSDOF 8
ENDMDL
MODEL 9
REMARK VINA RESULT:      -6.3      0.965      1.423
REMARK  Name = 
REMARK  13 active torsions:
REMARK  status: ('A' for Active; 'I' for Inactive)
REMARK    1  A    between atoms: C_1  and  O_2
REMARK    2  A    between atoms: O_2  and  C_3
REMARK    3  A    between atoms: C_9  and  C_10
REMARK    4  A    between atoms: C_10  and  C_11
REMARK    5  A    between atoms: C_11  and  O_13
REMARK    6  A    between atoms: O_13  and  C_14
REMARK    7  A    between atoms: C_14  and  C_15
REMARK    8  A    between atoms: C_15  and  N_16
REMARK    9  A    between atoms: N_16  and  C_17
REMARK   10  A    between atoms: N_16  and  C_18
REMARK   11  A    between atoms: N_16  and  C_19
REMARK   12  A    between atoms: C_20  and  C_21
REMARK   13  A    between atoms: C_23  and  C_25
REMARK                            x       y       z     vdW  Elec       q    Type
REMARK                         _______ _______ _______ _____ _____    ______ ____
ROOT
ATOM      1  C   UNL     1      -2.305  10.374  16.894  0.00  0.00    +0.000 A 
ATOM      2  C   UNL     1      -2.840  11.495  17.512  0.00  0.00    +0.000 A 
ATOM      3  C   UNL     1      -2.329  11.960  18.731  0.00  0.00    +0.000 A 
ATOM      4  C   UNL     1      -1.314  11.234  19.383  0.00  0.00    +0.000 A 
ATOM      5  C   UNL     1      -0.737  10.132  18.751  0.00  0.00    +0.000 A 
ATOM      6  C   UNL     1      -1.243   9.704  17.502  0.00  0.00    +0.000 A 
ATOM      7  C   UNL     1       0.341   9.676  19.563  0.00  0.00    +0.000 A 
ATOM      8  C   UNL     1       0.356  10.459  20.707  0.00  0.00    +0.000 A 
ATOM      9  C   UNL     1       1.251  10.352  21.900  0.00  0.00    +0.000 C 
ATOM     10  N   UNL     1      -0.683  11.402  20.623  0.00  0.00    +0.000 N 
ATOM     11  C   UNL     1      -1.007  12.357  21.635  0.00  0.00    +0.000 C 
ATOM     12  O   UNL     1      -0.133  12.640  22.450  0.00  0.00    +0.000 OA
ENDROOT
BRANCH  11  13
ATOM     13  C   UNL     1      -2.311  13.046  21.786  0.00  0.00    +0.000 A 
ATOM     14  C   UNL     1      -2.538  14.310  21.228  0.00  0.00    +0.000 A 
ATOM     15  C   UNL     1      -3.738  14.976  21.488  0.00  0.00    +0.000 A 
ATOM     16  C   UNL     1      -4.731  14.353  22.242  0.00  0.00    +0.000 A 
ATOM     17 CL   UNL     1      -6.194  15.187  22.588  0.00  0.00    +0.000 Cl
ATOM     18  C   UNL     1      -4.547  13.055  22.719  0.00  0.00    +0.000 A 
ATOM     19  C   UNL     1      -3.336  12.396  22.490  0.00  0.00    +0.000 A 
ENDBRANCH  11  13
BRANCH   1  21
ATOM     20  C   UNL     1      -3.665  10.618  14.970  0.00  0.00    +0.000 C 
ATOM     21  O   UNL     1      -2.697   9.851  15.691  0.00  0.00    +0.000 OA
ENDBRANCH   1  21
BRANCH   7  22
ATOM     22  C   UNL     1       1.248   8.541  19.219  0.00  0.00    +0.000 C 
BRANCH  22  23
ATOM     23  C   UNL     1       2.255   8.903  18.147  0.00  0.00    +0.000 C 
ATOM     24  O   UNL     1       2.306   9.930  17.484  0.00  0.00    +0.000 OA
BRANCH  23  25
ATOM     25  O   UNL     1       3.062   7.827  17.888  0.00  0.00    +0.000 OA
BRANCH  25  26
ATOM     26  C   UNL     1       2.642   6.618  18.538  0.00  0.00    +0.000 C 
BRANCH  26  27
ATOM     27  C   UNL     1       3.799   5.761  19.080  0.00  0.00    +0.000 C 
BRANCH  27  28
ATOM     28  N   UNL     1       4.017   4.445  18.282  0.00  0.00    +0.000 N 
ATOM     29  C   UNL     1       2.733   3.979  17.612  0.00  0.00    +0.000 C 
ATOM     30  C   UNL     1       5.118   4.626  17.237  0.00  0.00    +0.000 C 
ATOM     31  C   UNL     1       4.474   3.365  19.264  0.00  0.00    +0.000 C 
ENDBRANCH  27  28
ENDBRANCH  26  27
ENDBRANCH  25  26
ENDBRANCH  23  25
ENDBRANCH  22  23
ENDBRANCH   7  22
TORSDOF 8
ENDMDL
