MODEL 1
REMARK VINA RESULT:      -8.3      0.000      0.000
REMARK  Name = 
REMARK  7 active torsions:
REMARK  status: ('A' for Active; 'I' for Inactive)
REMARK    1  A    between atoms: C_1  and  C_2
REMARK    2  A    between atoms: C_2  and  C_3
REMARK    3  A    between atoms: C_5  and  N_6
REMARK    4  A    between atoms: N_6  and  S_7
REMARK    5  A    between atoms: S_7  and  C_10
REMARK    6  A    between atoms: C_21  and  C_22
REMARK    7  A    between atoms: C_21  and  C_23
REMARK                            x       y       z     vdW  Elec       q    Type
REMARK                         _______ _______ _______ _____ _____    ______ ____
ROOT
ATOM      1  N   UNL     1       4.559   2.909  18.034  0.00  0.00    +0.000 NA
ATOM      2  H   UNL     1       5.067   2.602  18.860  0.00  0.00    +0.000 HD
ENDROOT
BRANCH   1   7
ATOM      3  C   UNL     1       7.241   4.644  14.245  0.00  0.00    +0.000 C 
ATOM      4  C   UNL     1       6.339   5.095  15.417  0.00  0.00    +0.000 C 
ATOM      5  C   UNL     1       5.248   5.991  14.802  0.00  0.00    +0.000 C 
ATOM      6  C   UNL     1       5.729   3.841  16.081  0.00  0.00    +0.000 C 
ATOM      7  C   UNL     1       5.080   4.165  17.432  0.00  0.00    +0.000 C 
ATOM      8  C   UNL     1       6.124   4.809  18.329  0.00  0.00    +0.000 C 
ATOM      9  C   UNL     1       6.727   6.077  17.718  0.00  0.00    +0.000 C 
ATOM     10  C   UNL     1       7.951   6.466  18.579  0.00  0.00    +0.000 C 
ATOM     11  C   UNL     1       5.735   7.253  17.809  0.00  0.00    +0.000 C 
ATOM     12  N   UNL     1       7.208   5.847  16.345  0.00  0.00    +0.000 NA
ATOM     13  H   UNL     1       8.111   5.373  16.397  0.00  0.00    +0.000 HD
ENDBRANCH   1   7
BRANCH   1  14
ATOM     14  S   UNL     1       2.872   2.766  18.231  0.00  0.00    +0.000 S 
ATOM     15  O   UNL     1       2.253   2.618  16.933  0.00  0.00    +0.000 OA
ATOM     16  O   UNL     1       2.669   1.811  19.304  0.00  0.00    +0.000 OA
BRANCH  14  17
ATOM     17  C   UNL     1       2.421   4.351  18.913  0.00  0.00    +0.000 A 
ATOM     18  C   UNL     1       2.174   4.490  20.283  0.00  0.00    +0.000 A 
ATOM     19  C   UNL     1       1.870   5.752  20.799  0.00  0.00    +0.000 A 
ATOM     20  C   UNL     1       1.833   6.883  19.964  0.00  0.00    +0.000 A 
ATOM     21  C   UNL     1       1.575   8.165  20.471  0.00  0.00    +0.000 A 
ATOM     22  C   UNL     1       1.568   9.279  19.630  0.00  0.00    +0.000 A 
ATOM     23  C   UNL     1       1.809   9.124  18.268  0.00  0.00    +0.000 A 
ATOM     24  C   UNL     1       2.063   7.857  17.744  0.00  0.00    +0.000 A 
ATOM     25  C   UNL     1       2.085   6.730  18.578  0.00  0.00    +0.000 A 
ATOM     26  C   UNL     1       2.375   5.459  18.066  0.00  0.00    +0.000 A 
ENDBRANCH  14  17
ENDBRANCH   1  14
TORSDOF 3
ENDMDL
MODEL 2
REMARK VINA RESULT:      -8.0      2.059      3.673
REMARK  Name = 
REMARK  7 active torsions:
REMARK  status: ('A' for Active; 'I' for Inactive)
REMARK    1  A    between atoms: C_1  and  C_2
REMARK    2  A    between atoms: C_2  and  C_3
REMARK    3  A    between atoms: C_5  and  N_6
REMARK    4  A    between atoms: N_6  and  S_7
REMARK    5  A    between atoms: S_7  and  C_10
REMARK    6  A    between atoms: C_21  and  C_22
REMARK    7  A    between atoms: C_21  and  C_23
REMARK                            x       y       z     vdW  Elec       q    Type
REMARK                         _______ _______ _______ _____ _____    ______ ____
ROOT
ATOM      1  N   UNL     1       3.441   6.139  17.510  0.00  0.00    +0.000 NA
ATOM      2  H   UNL     1       2.883   5.781  16.739  0.00  0.00    +0.000 HD
ENDROOT
BRANCH   1   7
ATOM      3  C   UNL     1       7.845   8.410  17.580  0.00  0.00    +0.000 C 
ATOM      4  C   UNL     1       7.187   7.011  17.539  0.00  0.00    +0.000 C 
ATOM      5  C   UNL     1       7.797   6.213  18.706  0.00  0.00    +0.000 C 
ATOM      6  C   UNL     1       5.661   7.179  17.711  0.00  0.00    +0.000 C 
ATOM      7  C   UNL     1       4.901   5.892  17.371  0.00  0.00    +0.000 C 
ATOM      8  C   UNL     1       5.252   5.481  15.951  0.00  0.00    +0.000 C 
ATOM      9  C   UNL     1       6.756   5.271  15.753  0.00  0.00    +0.000 C 
ATOM     10  C   UNL     1       7.006   5.140  14.232  0.00  0.00    +0.000 C 
ATOM     11  C   UNL     1       7.211   3.943  16.388  0.00  0.00    +0.000 C 
ATOM     12  N   UNL     1       7.538   6.425  16.230  0.00  0.00    +0.000 NA
ATOM     13  H   UNL     1       7.488   7.160  15.523  0.00  0.00    +0.000 HD
ENDBRANCH   1   7
BRANCH   1  14
ATOM     14  S   UNL     1       2.723   5.815  19.022  0.00  0.00    +0.000 S 
ATOM     15  O   UNL     1       1.656   4.857  18.845  0.00  0.00    +0.000 OA
ATOM     16  O   UNL     1       3.817   5.600  19.951  0.00  0.00    +0.000 OA
BRANCH  14  17
ATOM     17  C   UNL     1       2.022   7.393  19.469  0.00  0.00    +0.000 A 
ATOM     18  C   UNL     1       1.939   8.425  18.528  0.00  0.00    +0.000 A 
ATOM     19  C   UNL     1       1.340   9.634  18.891  0.00  0.00    +0.000 A 
ATOM     20  C   UNL     1       0.804   9.816  20.177  0.00  0.00    +0.000 A 
ATOM     21  C   UNL     1       0.158  11.006  20.545  0.00  0.00    +0.000 A 
ATOM     22  C   UNL     1      -0.391  11.158  21.819  0.00  0.00    +0.000 A 
ATOM     23  C   UNL     1      -0.294  10.125  22.747  0.00  0.00    +0.000 A 
ATOM     24  C   UNL     1       0.348   8.936  22.402  0.00  0.00    +0.000 A 
ATOM     25  C   UNL     1       0.894   8.763  21.122  0.00  0.00    +0.000 A 
ATOM     26  C   UNL     1       1.507   7.559  20.756  0.00  0.00    +0.000 A 
ENDBRANCH  14  17
ENDBRANCH   1  14
TORSDOF 3
ENDMDL
MODEL 3
REMARK VINA RESULT:      -7.6      1.894      3.230
REMARK  Name = 
REMARK  7 active torsions:
REMARK  status: ('A' for Active; 'I' for Inactive)
REMARK    1  A    between atoms: C_1  and  C_2
REMARK    2  A    between atoms: C_2  and  C_3
REMARK    3  A    between atoms: C_5  and  N_6
REMARK    4  A    between atoms: N_6  and  S_7
REMARK    5  A    between atoms: S_7  and  C_10
REMARK    6  A    between atoms: C_21  and  C_22
REMARK    7  A    between atoms: C_21  and  C_23
REMARK                            x       y       z     vdW  Elec       q    Type
REMARK                         _______ _______ _______ _____ _____    ______ ____
ROOT
ATOM      1  N   UNL     1       3.476   6.187  17.528  0.00  0.00    +0.000 NA
ATOM      2  H   UNL     1       2.934   5.956  16.699  0.00  0.00    +0.000 HD
ENDROOT
BRANCH   1   7
ATOM      3  C   UNL     1       7.892   8.437  17.578  0.00  0.00    +0.000 C 
ATOM      4  C   UNL     1       7.226   7.041  17.549  0.00  0.00    +0.000 C 
ATOM      5  C   UNL     1       7.833   6.250  18.722  0.00  0.00    +0.000 C 
ATOM      6  C   UNL     1       5.701   7.218  17.719  0.00  0.00    +0.000 C 
ATOM      7  C   UNL     1       4.935   5.932  17.391  0.00  0.00    +0.000 C 
ATOM      8  C   UNL     1       5.284   5.508  15.974  0.00  0.00    +0.000 C 
ATOM      9  C   UNL     1       6.787   5.289  15.777  0.00  0.00    +0.000 C 
ATOM     10  C   UNL     1       7.036   5.144  14.257  0.00  0.00    +0.000 C 
ATOM     11  C   UNL     1       7.236   3.964  16.423  0.00  0.00    +0.000 C 
ATOM     12  N   UNL     1       7.574   6.442  16.244  0.00  0.00    +0.000 NA
ATOM     13  H   UNL     1       7.528   7.172  15.531  0.00  0.00    +0.000 HD
ENDBRANCH   1   7
BRANCH   1  14
ATOM     14  S   UNL     1       2.712   5.663  18.958  0.00  0.00    +0.000 S 
ATOM     15  O   UNL     1       1.668   4.722  18.621  0.00  0.00    +0.000 OA
ATOM     16  O   UNL     1       3.776   5.345  19.893  0.00  0.00    +0.000 OA
BRANCH  14  17
ATOM     17  C   UNL     1       1.967   7.162  19.576  0.00  0.00    +0.000 A 
ATOM     18  C   UNL     1       1.480   7.224  20.886  0.00  0.00    +0.000 A 
ATOM     19  C   UNL     1       0.946   8.425  21.361  0.00  0.00    +0.000 A 
ATOM     20  C   UNL     1       0.914   9.571  20.547  0.00  0.00    +0.000 A 
ATOM     21  C   UNL     1       0.424  10.797  21.022  0.00  0.00    +0.000 A 
ATOM     22  C   UNL     1       0.425  11.931  20.207  0.00  0.00    +0.000 A 
ATOM     23  C   UNL     1       0.907  11.852  18.903  0.00  0.00    +0.000 A 
ATOM     24  C   UNL     1       1.394  10.640  18.412  0.00  0.00    +0.000 A 
ATOM     25  C   UNL     1       1.411   9.496  19.222  0.00  0.00    +0.000 A 
ATOM     26  C   UNL     1       1.932   8.285  18.749  0.00  0.00    +0.000 A 
ENDBRANCH  14  17
ENDBRANCH   1  14
TORSDOF 3
ENDMDL
MODEL 4
REMARK VINA RESULT:      -7.5      0.845      1.667
REMARK  Name = 
REMARK  7 active torsions:
REMARK  status: ('A' for Active; 'I' for Inactive)
REMARK    1  A    between atoms: C_1  and  C_2
REMARK    2  A    between atoms: C_2  and  C_3
REMARK    3  A    between atoms: C_5  and  N_6
REMARK    4  A    between atoms: N_6  and  S_7
REMARK    5  A    between atoms: S_7  and  C_10
REMARK    6  A    between atoms: C_21  and  C_22
REMARK    7  A    between atoms: C_21  and  C_23
REMARK                            x       y       z     vdW  Elec       q    Type
REMARK                         _______ _______ _______ _____ _____    ______ ____
ROOT
ATOM      1  N   UNL     1       4.694   3.441  18.709  0.00  0.00    +0.000 NA
ATOM      2  H   UNL     1       5.306   3.174  19.475  0.00  0.00    +0.000 HD
ENDROOT
BRANCH   1   7
ATOM      3  C   UNL     1       7.164   4.510  14.547  0.00  0.00    +0.000 C 
ATOM      4  C   UNL     1       6.348   5.158  15.690  0.00  0.00    +0.000 C 
ATOM      5  C   UNL     1       5.239   5.983  15.014  0.00  0.00    +0.000 C 
ATOM      6  C   UNL     1       5.756   4.035  16.571  0.00  0.00    +0.000 C 
ATOM      7  C   UNL     1       5.201   4.577  17.894  0.00  0.00    +0.000 C 
ATOM      8  C   UNL     1       6.314   5.316  18.619  0.00  0.00    +0.000 C 
ATOM      9  C   UNL     1       6.902   6.460  17.788  0.00  0.00    +0.000 C 
ATOM     10  C   UNL     1       8.186   6.937  18.506  0.00  0.00    +0.000 C 
ATOM     11  C   UNL     1       5.942   7.665  17.760  0.00  0.00    +0.000 C 
ATOM     12  N   UNL     1       7.290   6.014  16.440  0.00  0.00    +0.000 NA
ATOM     13  H   UNL     1       8.185   5.526  16.509  0.00  0.00    +0.000 HD
ENDBRANCH   1   7
BRANCH   1  14
ATOM     14  S   UNL     1       3.057   3.475  19.180  0.00  0.00    +0.000 S 
ATOM     15  O   UNL     1       2.271   2.733  18.221  0.00  0.00    +0.000 OA
ATOM     16  O   UNL     1       3.038   3.175  20.600  0.00  0.00    +0.000 OA
BRANCH  14  17
ATOM     17  C   UNL     1       2.647   5.206  19.054  0.00  0.00    +0.000 A 
ATOM     18  C   UNL     1       2.707   5.861  17.820  0.00  0.00    +0.000 A 
ATOM     19  C   UNL     1       2.334   7.205  17.740  0.00  0.00    +0.000 A 
ATOM     20  C   UNL     1       1.881   7.896  18.877  0.00  0.00    +0.000 A 
ATOM     21  C   UNL     1       1.459   9.233  18.807  0.00  0.00    +0.000 A 
ATOM     22  C   UNL     1       0.988   9.895  19.943  0.00  0.00    +0.000 A 
ATOM     23  C   UNL     1       0.941   9.231  21.166  0.00  0.00    +0.000 A 
ATOM     24  C   UNL     1       1.361   7.904  21.256  0.00  0.00    +0.000 A 
ATOM     25  C   UNL     1       1.825   7.223  20.123  0.00  0.00    +0.000 A 
ATOM     26  C   UNL     1       2.213   5.879  20.197  0.00  0.00    +0.000 A 
ENDBRANCH  14  17
ENDBRANCH   1  14
TORSDOF 3
ENDMDL
MODEL 5
REMARK VINA RESULT:      -7.3      3.152      4.505
REMARK  Name = 
REMARK  7 active torsions:
REMARK  status: ('A' for Active; 'I' for Inactive)
REMARK    1  A    between atoms: C_1  and  C_2
REMARK    2  A    between atoms: C_2  and  C_3
REMARK    3  A    between atoms: C_5  and  N_6
REMARK    4  A    between atoms: N_6  and  S_7
REMARK    5  A    between atoms: S_7  and  C_10
REMARK    6  A    between atoms: C_21  and  C_22
REMARK    7  A    between atoms: C_21  and  C_23
REMARK                            x       y       z     vdW  Elec       q    Type
REMARK                         _______ _______ _______ _____ _____    ______ ____
ROOT
ATOM      1  N   UNL     1       3.418   7.281  18.863  0.00  0.00    +0.000 NA
ATOM      2  H   UNL     1       4.215   7.852  19.133  0.00  0.00    +0.000 HD
ENDROOT
BRANCH   1   7
ATOM      3  C   UNL     1       3.794   2.386  19.540  0.00  0.00    +0.000 C 
ATOM      4  C   UNL     1       3.854   3.481  18.451  0.00  0.00    +0.000 C 
ATOM      5  C   UNL     1       2.856   3.057  17.358  0.00  0.00    +0.000 C 
ATOM      6  C   UNL     1       3.453   4.831  19.085  0.00  0.00    +0.000 C 
ATOM      7  C   UNL     1       3.784   6.016  18.171  0.00  0.00    +0.000 C 
ATOM      8  C   UNL     1       5.269   5.980  17.848  0.00  0.00    +0.000 C 
ATOM      9  C   UNL     1       5.697   4.668  17.184  0.00  0.00    +0.000 C 
ATOM     10  C   UNL     1       7.243   4.643  17.170  0.00  0.00    +0.000 C 
ATOM     11  C   UNL     1       5.243   4.627  15.712  0.00  0.00    +0.000 C 
ATOM     12  N   UNL     1       5.244   3.494  17.950  0.00  0.00    +0.000 NA
ATOM     13  H   UNL     1       5.874   3.366  18.743  0.00  0.00    +0.000 HD
ENDBRANCH   1   7
BRANCH   1  14
ATOM     14  S   UNL     1       2.159   8.214  18.193  0.00  0.00    +0.000 S 
ATOM     15  O   UNL     1       2.726   9.354  17.509  0.00  0.00    +0.000 OA
ATOM     16  O   UNL     1       1.266   7.277  17.537  0.00  0.00    +0.000 OA
BRANCH  14  17
ATOM     17  C   UNL     1       1.279   8.779  19.637  0.00  0.00    +0.000 A 
ATOM     18  C   UNL     1       1.467   8.153  20.874  0.00  0.00    +0.000 A 
ATOM     19  C   UNL     1       0.803   8.647  21.999  0.00  0.00    +0.000 A 
ATOM     20  C   UNL     1      -0.032   9.774  21.906  0.00  0.00    +0.000 A 
ATOM     21  C   UNL     1      -0.671  10.312  23.033  0.00  0.00    +0.000 A 
ATOM     22  C   UNL     1      -1.475  11.448  22.926  0.00  0.00    +0.000 A 
ATOM     23  C   UNL     1      -1.659  12.056  21.687  0.00  0.00    +0.000 A 
ATOM     24  C   UNL     1      -1.036  11.534  20.554  0.00  0.00    +0.000 A 
ATOM     25  C   UNL     1      -0.215  10.401  20.648  0.00  0.00    +0.000 A 
ATOM     26  C   UNL     1       0.443   9.891  19.523  0.00  0.00    +0.000 A 
ENDBRANCH  14  17
ENDBRANCH   1  14
TORSDOF 3
ENDMDL
MODEL 6
REMARK VINA RESULT:      -7.3      4.628      7.614
REMARK  Name = 
REMARK  7 active torsions:
REMARK  status: ('A' for Active; 'I' for Inactive)
REMARK    1  A    between atoms: C_1  and  C_2
REMARK    2  A    between atoms: C_2  and  C_3
REMARK    3  A    between atoms: C_5  and  N_6
REMARK    4  A    between atoms: N_6  and  S_7
REMARK    5  A    between atoms: S_7  and  C_10
REMARK    6  A    between atoms: C_21  and  C_22
REMARK    7  A    between atoms: C_21  and  C_23
REMARK                            x       y       z     vdW  Elec       q    Type
REMARK                         _______ _______ _______ _____ _____    ______ ____
ROOT
ATOM      1  N   UNL     1       1.037   9.559  19.497  0.00  0.00    +0.000 NA
ATOM      2  H   UNL     1       1.939  10.016  19.387  0.00  0.00    +0.000 HD
ENDROOT
BRANCH   1   7
ATOM      3  C   UNL     1      -2.357  10.710  16.074  0.00  0.00    +0.000 C 
ATOM      4  C   UNL     1      -1.969  10.961  17.550  0.00  0.00    +0.000 C 
ATOM      5  C   UNL     1      -3.214  10.613  18.387  0.00  0.00    +0.000 C 
ATOM      6  C   UNL     1      -0.777  10.047  17.909  0.00  0.00    +0.000 C 
ATOM      7  C   UNL     1      -0.128  10.447  19.239  0.00  0.00    +0.000 C 
ATOM      8  C   UNL     1       0.302  11.902  19.151  0.00  0.00    +0.000 C 
ATOM      9  C   UNL     1      -0.864  12.843  18.831  0.00  0.00    +0.000 C 
ATOM     10  C   UNL     1      -0.258  14.225  18.492  0.00  0.00    +0.000 C 
ATOM     11  C   UNL     1      -1.758  13.046  20.069  0.00  0.00    +0.000 C 
ATOM     12  N   UNL     1      -1.622  12.393  17.651  0.00  0.00    +0.000 NA
ATOM     13  H   UNL     1      -1.101  12.659  16.814  0.00  0.00    +0.000 HD
ENDBRANCH   1   7
BRANCH   1  14
ATOM     14  S   UNL     1       0.987   8.569  20.883  0.00  0.00    +0.000 S 
ATOM     15  O   UNL     1       1.823   9.147  21.910  0.00  0.00    +0.000 OA
ATOM     16  O   UNL     1      -0.411   8.252  21.104  0.00  0.00    +0.000 OA
BRANCH  14  17
ATOM     17  C   UNL     1       1.734   7.054  20.309  0.00  0.00    +0.000 A 
ATOM     18  C   UNL     1       1.464   5.842  20.953  0.00  0.00    +0.000 A 
ATOM     19  C   UNL     1       2.023   4.663  20.453  0.00  0.00    +0.000 A 
ATOM     20  C   UNL     1       2.832   4.679  19.303  0.00  0.00    +0.000 A 
ATOM     21  C   UNL     1       3.364   3.500  18.761  0.00  0.00    +0.000 A 
ATOM     22  C   UNL     1       4.144   3.533  17.603  0.00  0.00    +0.000 A 
ATOM     23  C   UNL     1       4.410   4.749  16.978  0.00  0.00    +0.000 A 
ATOM     24  C   UNL     1       3.893   5.932  17.505  0.00  0.00    +0.000 A 
ATOM     25  C   UNL     1       3.098   5.913  18.660  0.00  0.00    +0.000 A 
ATOM     26  C   UNL     1       2.546   7.092  19.175  0.00  0.00    +0.000 A 
ENDBRANCH  14  17
ENDBRANCH   1  14
TORSDOF 3
ENDMDL
MODEL 7
REMARK VINA RESULT:      -7.2      2.976      4.689
REMARK  Name = 
REMARK  7 active torsions:
REMARK  status: ('A' for Active; 'I' for Inactive)
REMARK    1  A    between atoms: C_1  and  C_2
REMARK    2  A    between atoms: C_2  and  C_3
REMARK    3  A    between atoms: C_5  and  N_6
REMARK    4  A    between atoms: N_6  and  S_7
REMARK    5  A    between atoms: S_7  and  C_10
REMARK    6  A    between atoms: C_21  and  C_22
REMARK    7  A    between atoms: C_21  and  C_23
REMARK                            x       y       z     vdW  Elec       q    Type
REMARK                         _______ _______ _______ _____ _____    ______ ____
ROOT
ATOM      1  N   UNL     1       3.109   6.936  19.106  0.00  0.00    +0.000 NA
ATOM      2  H   UNL     1       3.722   7.474  19.713  0.00  0.00    +0.000 HD
ENDROOT
BRANCH   1   7
ATOM      3  C   UNL     1       4.281   2.300  20.409  0.00  0.00    +0.000 C 
ATOM      4  C   UNL     1       4.202   3.249  19.191  0.00  0.00    +0.000 C 
ATOM      5  C   UNL     1       3.339   2.528  18.139  0.00  0.00    +0.000 C 
ATOM      6  C   UNL     1       3.550   4.576  19.640  0.00  0.00    +0.000 C 
ATOM      7  C   UNL     1       3.714   5.680  18.589  0.00  0.00    +0.000 C 
ATOM      8  C   UNL     1       5.196   5.863  18.307  0.00  0.00    +0.000 C 
ATOM      9  C   UNL     1       5.869   4.575  17.825  0.00  0.00    +0.000 C 
ATOM     10  C   UNL     1       7.396   4.818  17.848  0.00  0.00    +0.000 C 
ATOM     11  C   UNL     1       5.494   4.277  16.360  0.00  0.00    +0.000 C 
ATOM     12  N   UNL     1       5.590   3.442  18.723  0.00  0.00    +0.000 NA
ATOM     13  H   UNL     1       6.197   3.523  19.540  0.00  0.00    +0.000 HD
ENDBRANCH   1   7
BRANCH   1  14
ATOM     14  S   UNL     1       2.276   7.927  17.998  0.00  0.00    +0.000 S 
ATOM     15  O   UNL     1       3.234   8.635  17.181  0.00  0.00    +0.000 OA
ATOM     16  O   UNL     1       1.224   7.105  17.430  0.00  0.00    +0.000 OA
BRANCH  14  17
ATOM     17  C   UNL     1       1.445   9.093  19.063  0.00  0.00    +0.000 A 
ATOM     18  C   UNL     1       1.084  10.357  18.585  0.00  0.00    +0.000 A 
ATOM     19  C   UNL     1       0.391  11.233  19.425  0.00  0.00    +0.000 A 
ATOM     20  C   UNL     1       0.036  10.850  20.730  0.00  0.00    +0.000 A 
ATOM     21  C   UNL     1      -0.700  11.699  21.572  0.00  0.00    +0.000 A 
ATOM     22  C   UNL     1      -1.065  11.291  22.856  0.00  0.00    +0.000 A 
ATOM     23  C   UNL     1      -0.692  10.032  23.320  0.00  0.00    +0.000 A 
ATOM     24  C   UNL     1       0.043   9.177  22.500  0.00  0.00    +0.000 A 
ATOM     25  C   UNL     1       0.407   9.567  21.203  0.00  0.00    +0.000 A 
ATOM     26  C   UNL     1       1.114   8.701  20.360  0.00  0.00    +0.000 A 
ENDBRANCH  14  17
ENDBRANCH   1  14
TORSDOF 3
ENDMDL
MODEL 8
REMARK VINA RESULT:      -7.2      2.637      6.597
REMARK  Name = 
REMARK  7 active torsions:
REMARK  status: ('A' for Active; 'I' for Inactive)
REMARK    1  A    between atoms: C_1  and  C_2
REMARK    2  A    between atoms: C_2  and  C_3
REMARK    3  A    between atoms: C_5  and  N_6
REMARK    4  A    between atoms: N_6  and  S_7
REMARK    5  A    between atoms: S_7  and  C_10
REMARK    6  A    between atoms: C_21  and  C_22
REMARK    7  A    between atoms: C_21  and  C_23
REMARK                            x       y       z     vdW  Elec       q    Type
REMARK                         _______ _______ _______ _____ _____    ______ ____
ROOT
ATOM      1  N   UNL     1       5.805   4.199  19.223  0.00  0.00    +0.000 NA
ATOM      2  H   UNL     1       6.085   3.221  19.244  0.00  0.00    +0.000 HD
ENDROOT
BRANCH   1   7
ATOM      3  C   UNL     1       2.087   7.297  20.291  0.00  0.00    +0.000 C 
ATOM      4  C   UNL     1       2.443   6.056  19.440  0.00  0.00    +0.000 C 
ATOM      5  C   UNL     1       2.058   6.403  17.990  0.00  0.00    +0.000 C 
ATOM      6  C   UNL     1       3.959   5.788  19.570  0.00  0.00    +0.000 C 
ATOM      7  C   UNL     1       4.346   4.409  19.022  0.00  0.00    +0.000 C 
ATOM      8  C   UNL     1       3.536   3.352  19.753  0.00  0.00    +0.000 C 
ATOM      9  C   UNL     1       2.026   3.566  19.616  0.00  0.00    +0.000 C 
ATOM     10  C   UNL     1       1.333   2.614  20.619  0.00  0.00    +0.000 C 
ATOM     11  C   UNL     1       1.540   3.155  18.213  0.00  0.00    +0.000 C 
ATOM     12  N   UNL     1       1.634   4.941  19.971  0.00  0.00    +0.000 NA
ATOM     13  H   UNL     1       1.611   5.015  20.989  0.00  0.00    +0.000 HD
ENDBRANCH   1   7
BRANCH   1  14
ATOM     14  S   UNL     1       6.877   5.151  18.302  0.00  0.00    +0.000 S 
ATOM     15  O   UNL     1       6.487   6.539  18.405  0.00  0.00    +0.000 OA
ATOM     16  O   UNL     1       8.213   4.691  18.632  0.00  0.00    +0.000 OA
BRANCH  14  17
ATOM     17  C   UNL     1       6.575   4.583  16.639  0.00  0.00    +0.000 A 
ATOM     18  C   UNL     1       5.536   3.684  16.373  0.00  0.00    +0.000 A 
ATOM     19  C   UNL     1       5.290   3.293  15.054  0.00  0.00    +0.000 A 
ATOM     20  C   UNL     1       6.057   3.808  13.995  0.00  0.00    +0.000 A 
ATOM     21  C   UNL     1       5.795   3.463  12.661  0.00  0.00    +0.000 A 
ATOM     22  C   UNL     1       6.552   4.004  11.620  0.00  0.00    +0.000 A 
ATOM     23  C   UNL     1       7.587   4.892  11.900  0.00  0.00    +0.000 A 
ATOM     24  C   UNL     1       7.865   5.244  13.221  0.00  0.00    +0.000 A 
ATOM     25  C   UNL     1       7.107   4.718  14.276  0.00  0.00    +0.000 A 
ATOM     26  C   UNL     1       7.356   5.094  15.601  0.00  0.00    +0.000 A 
ENDBRANCH  14  17
ENDBRANCH   1  14
TORSDOF 3
ENDMDL
MODEL 9
REMARK VINA RESULT:      -7.1      4.798      7.951
REMARK  Name = 
REMARK  7 active torsions:
REMARK  status: ('A' for Active; 'I' for Inactive)
REMARK    1  A    between atoms: C_1  and  C_2
REMARK    2  A    between atoms: C_2  and  C_3
REMARK    3  A    between atoms: C_5  and  N_6
REMARK    4  A    between atoms: N_6  and  S_7
REMARK    5  A    between atoms: S_7  and  C_10
REMARK    6  A    between atoms: C_21  and  C_22
REMARK    7  A    between atoms: C_21  and  C_23
REMARK                            x       y       z     vdW  Elec       q    Type
REMARK                         _______ _______ _______ _____ _____    ______ ____
ROOT
ATOM      1  N   UNL     1       1.163  10.041  19.896  0.00  0.00    +0.000 NA
ATOM      2  H   UNL     1       2.045  10.540  19.987  0.00  0.00    +0.000 HD
ENDROOT
BRANCH   1   7
ATOM      3  C   UNL     1      -2.215  10.908  16.376  0.00  0.00    +0.000 C 
ATOM      4  C   UNL     1      -1.829  11.286  17.825  0.00  0.00    +0.000 C 
ATOM      5  C   UNL     1      -3.077  11.024  18.686  0.00  0.00    +0.000 C 
ATOM      6  C   UNL     1      -0.644  10.399  18.267  0.00  0.00    +0.000 C 
ATOM      7  C   UNL     1       0.005  10.910  19.558  0.00  0.00    +0.000 C 
ATOM      8  C   UNL     1       0.446  12.349  19.342  0.00  0.00    +0.000 C 
ATOM      9  C   UNL     1      -0.711  13.266  18.936  0.00  0.00    +0.000 C 
ATOM     10  C   UNL     1      -0.094  14.608  18.477  0.00  0.00    +0.000 C 
ATOM     11  C   UNL     1      -1.606  13.586  20.149  0.00  0.00    +0.000 C 
ATOM     12  N   UNL     1      -1.470  12.719  17.799  0.00  0.00    +0.000 NA
ATOM     13  H   UNL     1      -0.946  12.905  16.943  0.00  0.00    +0.000 HD
ENDBRANCH   1   7
BRANCH   1  14
ATOM     14  S   UNL     1       0.953   8.887  21.132  0.00  0.00    +0.000 S 
ATOM     15  O   UNL     1       1.776   9.248  22.264  0.00  0.00    +0.000 OA
ATOM     16  O   UNL     1      -0.478   8.673  21.247  0.00  0.00    +0.000 OA
BRANCH  14  17
ATOM     17  C   UNL     1       1.599   7.398  20.393  0.00  0.00    +0.000 A 
ATOM     18  C   UNL     1       2.367   7.461  19.225  0.00  0.00    +0.000 A 
ATOM     19  C   UNL     1       2.902   6.285  18.695  0.00  0.00    +0.000 A 
ATOM     20  C   UNL     1       2.697   5.048  19.330  0.00  0.00    +0.000 A 
ATOM     21  C   UNL     1       3.264   3.863  18.838  0.00  0.00    +0.000 A 
ATOM     22  C   UNL     1       3.070   2.648  19.498  0.00  0.00    +0.000 A 
ATOM     23  C   UNL     1       2.297   2.600  20.655  0.00  0.00    +0.000 A 
ATOM     24  C   UNL     1       1.721   3.767  21.157  0.00  0.00    +0.000 A 
ATOM     25  C   UNL     1       1.917   4.996  20.513  0.00  0.00    +0.000 A 
ATOM     26  C   UNL     1       1.372   6.178  21.031  0.00  0.00    +0.000 A 
ENDBRANCH  14  17
ENDBRANCH   1  14
TORSDOF 3
ENDMDL
