MODEL 1
REMARK VINA RESULT:      -8.4      0.000      0.000
REMARK  Name = 
REMARK  9 active torsions:
REMARK  status: ('A' for Active; 'I' for Inactive)
REMARK    1  A    between atoms: C_2  and  C_17
REMARK    2  A    between atoms: N_3  and  C_4
REMARK    3  A    between atoms: C_4  and  N_6
REMARK    4  A    between atoms: N_6  and  C_7
REMARK    5  A    between atoms: C_12  and  C_13
REMARK    6  A    between atoms: C_13  and  O_15
REMARK    7  A    between atoms: C_20  and  O_21
REMARK    8  A    between atoms: O_21  and  C_22
REMARK    9  A    between atoms: C_22  and  C_23
REMARK                            x       y       z     vdW  Elec       q    Type
REMARK                         _______ _______ _______ _____ _____    ______ ____
ROOT
ATOM      1  O   UNL     1       4.174   6.414  16.690  0.00  0.00    +0.000 OA
ATOM      2  C   UNL     1       4.098   6.610  17.895  0.00  0.00    +0.000 C 
ATOM      3  N   UNL     1       4.994   6.148  18.848  0.00  0.00    +0.000 N 
ATOM      4  H   UNL     1       4.871   6.510  19.784  0.00  0.00    +0.000 HD
ENDROOT
BRANCH   2   5
ATOM      5  C   UNL     1       3.046   7.527  18.418  0.00  0.00    +0.000 A 
ATOM      6  C   UNL     1       2.440   7.327  19.663  0.00  0.00    +0.000 A 
ATOM      7  C   UNL     1       1.463   8.221  20.115  0.00  0.00    +0.000 A 
ATOM      8  C   UNL     1       1.104   9.329  19.341  0.00  0.00    +0.000 A 
ATOM      9  C   UNL     1       1.687   9.506  18.085  0.00  0.00    +0.000 A 
ATOM     10  C   UNL     1       2.656   8.612  17.624  0.00  0.00    +0.000 A 
BRANCH   8  11
ATOM     11  O   UNL     1       0.195  10.284  19.710  0.00  0.00    +0.000 OA
BRANCH  11  12
ATOM     12  C   UNL     1      -0.135  11.236  18.699  0.00  0.00    +0.000 C 
BRANCH  12  13
ATOM     13  C   UNL     1      -1.561  11.025  18.262  0.00  0.00    +0.000 A 
ATOM     14  C   UNL     1      -1.886  10.051  17.308  0.00  0.00    +0.000 A 
ATOM     15  C   UNL     1      -3.213   9.860  16.920  0.00  0.00    +0.000 A 
ATOM     16  C   UNL     1      -4.223  10.645  17.474  0.00  0.00    +0.000 A 
ATOM     17  C   UNL     1      -3.910  11.621  18.417  0.00  0.00    +0.000 A 
ATOM     18  C   UNL     1      -2.585  11.814  18.805  0.00  0.00    +0.000 A 
ENDBRANCH  12  13
ENDBRANCH  11  12
ENDBRANCH   8  11
ENDBRANCH   2   5
BRANCH   3  19
ATOM     19  C   UNL     1       6.114   5.342  18.703  0.00  0.00    +0.000 C 
ATOM     20  S   UNL     1       7.705   5.831  18.625  0.00  0.00    +0.000 S 
BRANCH  19  21
ATOM     21  N   UNL     1       5.828   4.000  18.523  0.00  0.00    +0.000 N 
ATOM     22  H   UNL     1       6.640   3.394  18.441  0.00  0.00    +0.000 HD
BRANCH  21  23
ATOM     23  C   UNL     1       4.563   3.387  18.611  0.00  0.00    +0.000 A 
ATOM     24  C   UNL     1       3.955   2.931  17.447  0.00  0.00    +0.000 A 
ATOM     25  C   UNL     1       2.653   2.424  17.500  0.00  0.00    +0.000 A 
ATOM     26  C   UNL     1       1.972   2.324  18.723  0.00  0.00    +0.000 A 
ATOM     27 CL   UNL     1       0.342   1.760  18.669  0.00  0.00    +0.000 Cl
ATOM     28  C   UNL     1       2.610   2.696  19.909  0.00  0.00    +0.000 A 
ATOM     29  C   UNL     1       3.908   3.225  19.838  0.00  0.00    +0.000 A 
BRANCH  28  30
ATOM     30  C   UNL     1       2.016   2.634  21.269  0.00  0.00    +0.000 C 
ATOM     31  O   UNL     1       2.668   2.263  22.231  0.00  0.00    +0.000 OA
BRANCH  30  32
ATOM     32  O   UNL     1       0.705   2.925  21.350  0.00  0.00    +0.000 OA
ATOM     33  H   UNL     1       0.332   3.425  20.598  0.00  0.00    +0.000 HD
ENDBRANCH  30  32
ENDBRANCH  28  30
ENDBRANCH  21  23
ENDBRANCH  19  21
ENDBRANCH   3  19
TORSDOF 9
ENDMDL
MODEL 2
REMARK VINA RESULT:      -8.3      3.297      4.649
REMARK  Name = 
REMARK  9 active torsions:
REMARK  status: ('A' for Active; 'I' for Inactive)
REMARK    1  A    between atoms: C_2  and  C_17
REMARK    2  A    between atoms: N_3  and  C_4
REMARK    3  A    between atoms: C_4  and  N_6
REMARK    4  A    between atoms: N_6  and  C_7
REMARK    5  A    between atoms: C_12  and  C_13
REMARK    6  A    between atoms: C_13  and  O_15
REMARK    7  A    between atoms: C_20  and  O_21
REMARK    8  A    between atoms: O_21  and  C_22
REMARK    9  A    between atoms: C_22  and  C_23
REMARK                            x       y       z     vdW  Elec       q    Type
REMARK                         _______ _______ _______ _____ _____    ______ ____
ROOT
ATOM      1  O   UNL     1       2.269   7.499  19.058  0.00  0.00    +0.000 OA
ATOM      2  C   UNL     1       1.707   7.392  20.139  0.00  0.00    +0.000 C 
ATOM      3  N   UNL     1       1.644   6.239  20.909  0.00  0.00    +0.000 N 
ATOM      4  H   UNL     1       1.265   6.347  21.839  0.00  0.00    +0.000 HD
ENDROOT
BRANCH   2   5
ATOM      5  C   UNL     1       1.143   8.609  20.789  0.00  0.00    +0.000 A 
ATOM      6  C   UNL     1       0.996   9.817  20.100  0.00  0.00    +0.000 A 
ATOM      7  C   UNL     1       0.452  10.930  20.752  0.00  0.00    +0.000 A 
ATOM      8  C   UNL     1       0.032  10.836  22.082  0.00  0.00    +0.000 A 
ATOM      9  C   UNL     1       0.212   9.639  22.776  0.00  0.00    +0.000 A 
ATOM     10  C   UNL     1       0.762   8.527  22.134  0.00  0.00    +0.000 A 
BRANCH   8  11
ATOM     11  O   UNL     1      -0.551  11.849  22.795  0.00  0.00    +0.000 OA
BRANCH  11  12
ATOM     12  C   UNL     1      -0.955  12.983  22.027  0.00  0.00    +0.000 C 
BRANCH  12  13
ATOM     13  C   UNL     1      -2.428  12.884  21.728  0.00  0.00    +0.000 A 
ATOM     14  C   UNL     1      -3.375  12.880  22.761  0.00  0.00    +0.000 A 
ATOM     15  C   UNL     1      -4.737  12.798  22.469  0.00  0.00    +0.000 A 
ATOM     16  C   UNL     1      -5.164  12.712  21.144  0.00  0.00    +0.000 A 
ATOM     17  C   UNL     1      -4.230  12.707  20.110  0.00  0.00    +0.000 A 
ATOM     18  C   UNL     1      -2.869  12.787  20.400  0.00  0.00    +0.000 A 
ENDBRANCH  12  13
ENDBRANCH  11  12
ENDBRANCH   8  11
ENDBRANCH   2   5
BRANCH   3  19
ATOM     19  C   UNL     1       2.123   4.964  20.644  0.00  0.00    +0.000 C 
ATOM     20  S   UNL     1       1.278   3.531  20.733  0.00  0.00    +0.000 S 
BRANCH  19  21
ATOM     21  N   UNL     1       3.476   4.913  20.359  0.00  0.00    +0.000 N 
ATOM     22  H   UNL     1       4.086   4.887  21.172  0.00  0.00    +0.000 HD
BRANCH  21  23
ATOM     23  C   UNL     1       4.068   4.729  19.094  0.00  0.00    +0.000 A 
ATOM     24  C   UNL     1       3.290   4.232  18.055  0.00  0.00    +0.000 A 
ATOM     25  C   UNL     1       3.886   3.935  16.826  0.00  0.00    +0.000 A 
ATOM     26  C   UNL     1       5.252   4.181  16.613  0.00  0.00    +0.000 A 
ATOM     27 CL   UNL     1       5.906   3.706  15.090  0.00  0.00    +0.000 Cl
ATOM     28  C   UNL     1       6.020   4.764  17.624  0.00  0.00    +0.000 A 
ATOM     29  C   UNL     1       5.414   5.035  18.860  0.00  0.00    +0.000 A 
BRANCH  28  30
ATOM     30  C   UNL     1       7.468   5.088  17.535  0.00  0.00    +0.000 C 
ATOM     31  O   UNL     1       7.852   6.209  17.245  0.00  0.00    +0.000 OA
BRANCH  30  32
ATOM     32  O   UNL     1       8.311   4.053  17.706  0.00  0.00    +0.000 OA
ATOM     33  H   UNL     1       8.199   3.542  18.531  0.00  0.00    +0.000 HD
ENDBRANCH  30  32
ENDBRANCH  28  30
ENDBRANCH  21  23
ENDBRANCH  19  21
ENDBRANCH   3  19
TORSDOF 9
ENDMDL
MODEL 3
REMARK VINA RESULT:      -8.3      3.405      4.949
REMARK  Name = 
REMARK  9 active torsions:
REMARK  status: ('A' for Active; 'I' for Inactive)
REMARK    1  A    between atoms: C_2  and  C_17
REMARK    2  A    between atoms: N_3  and  C_4
REMARK    3  A    between atoms: C_4  and  N_6
REMARK    4  A    between atoms: N_6  and  C_7
REMARK    5  A    between atoms: C_12  and  C_13
REMARK    6  A    between atoms: C_13  and  O_15
REMARK    7  A    between atoms: C_20  and  O_21
REMARK    8  A    between atoms: O_21  and  C_22
REMARK    9  A    between atoms: C_22  and  C_23
REMARK                            x       y       z     vdW  Elec       q    Type
REMARK                         _______ _______ _______ _____ _____    ______ ____
ROOT
ATOM      1  O   UNL     1       3.390   4.965  20.271  0.00  0.00    +0.000 OA
ATOM      2  C   UNL     1       3.090   5.521  19.224  0.00  0.00    +0.000 C 
ATOM      3  N   UNL     1       3.178   4.963  17.957  0.00  0.00    +0.000 N 
ATOM      4  H   UNL     1       2.762   5.499  17.207  0.00  0.00    +0.000 HD
ENDROOT
BRANCH   2   5
ATOM      5  C   UNL     1       2.445   6.864  19.273  0.00  0.00    +0.000 A 
ATOM      6  C   UNL     1       2.406   7.708  18.158  0.00  0.00    +0.000 A 
ATOM      7  C   UNL     1       1.781   8.956  18.251  0.00  0.00    +0.000 A 
ATOM      8  C   UNL     1       1.174   9.358  19.446  0.00  0.00    +0.000 A 
ATOM      9  C   UNL     1       1.246   8.527  20.565  0.00  0.00    +0.000 A 
ATOM     10  C   UNL     1       1.876   7.283  20.481  0.00  0.00    +0.000 A 
BRANCH   8  11
ATOM     11  O   UNL     1       0.501  10.536  19.627  0.00  0.00    +0.000 OA
BRANCH  11  12
ATOM     12  C   UNL     1       0.117  11.212  18.430  0.00  0.00    +0.000 C 
BRANCH  12  13
ATOM     13  C   UNL     1      -1.360  11.023  18.202  0.00  0.00    +0.000 A 
ATOM     14  C   UNL     1      -2.298  11.858  18.824  0.00  0.00    +0.000 A 
ATOM     15  C   UNL     1      -3.663  11.677  18.596  0.00  0.00    +0.000 A 
ATOM     16  C   UNL     1      -4.102  10.658  17.751  0.00  0.00    +0.000 A 
ATOM     17  C   UNL     1      -3.178   9.817  17.134  0.00  0.00    +0.000 A 
ATOM     18  C   UNL     1      -1.814   9.995  17.362  0.00  0.00    +0.000 A 
ENDBRANCH  12  13
ENDBRANCH  11  12
ENDBRANCH   8  11
ENDBRANCH   2   5
BRANCH   3  19
ATOM     19  C   UNL     1       3.655   3.722  17.560  0.00  0.00    +0.000 C 
ATOM     20  S   UNL     1       2.773   2.327  17.337  0.00  0.00    +0.000 S 
BRANCH  19  21
ATOM     21  N   UNL     1       5.031   3.661  17.425  0.00  0.00    +0.000 N 
ATOM     22  H   UNL     1       5.517   3.193  18.186  0.00  0.00    +0.000 HD
BRANCH  21  23
ATOM     23  C   UNL     1       5.787   4.019  16.292  0.00  0.00    +0.000 A 
ATOM     24  C   UNL     1       6.837   4.918  16.441  0.00  0.00    +0.000 A 
ATOM     25  C   UNL     1       7.523   5.373  15.311  0.00  0.00    +0.000 A 
ATOM     26  C   UNL     1       7.197   4.893  14.033  0.00  0.00    +0.000 A 
ATOM     27 CL   UNL     1       8.050   5.577  12.698  0.00  0.00    +0.000 Cl
ATOM     28  C   UNL     1       6.203   3.922  13.884  0.00  0.00    +0.000 A 
ATOM     29  C   UNL     1       5.507   3.493  15.025  0.00  0.00    +0.000 A 
BRANCH  28  30
ATOM     30  C   UNL     1       5.763   3.321  12.599  0.00  0.00    +0.000 C 
ATOM     31  O   UNL     1       6.499   2.593  11.954  0.00  0.00    +0.000 OA
BRANCH  30  32
ATOM     32  O   UNL     1       4.550   3.701  12.160  0.00  0.00    +0.000 OA
ATOM     33  H   UNL     1       4.459   3.804  11.193  0.00  0.00    +0.000 HD
ENDBRANCH  30  32
ENDBRANCH  28  30
ENDBRANCH  21  23
ENDBRANCH  19  21
ENDBRANCH   3  19
TORSDOF 9
ENDMDL
MODEL 4
REMARK VINA RESULT:      -8.2      4.216      9.470
REMARK  Name = 
REMARK  9 active torsions:
REMARK  status: ('A' for Active; 'I' for Inactive)
REMARK    1  A    between atoms: C_2  and  C_17
REMARK    2  A    between atoms: N_3  and  C_4
REMARK    3  A    between atoms: C_4  and  N_6
REMARK    4  A    between atoms: N_6  and  C_7
REMARK    5  A    between atoms: C_12  and  C_13
REMARK    6  A    between atoms: C_13  and  O_15
REMARK    7  A    between atoms: C_20  and  O_21
REMARK    8  A    between atoms: O_21  and  C_22
REMARK    9  A    between atoms: C_22  and  C_23
REMARK                            x       y       z     vdW  Elec       q    Type
REMARK                         _______ _______ _______ _____ _____    ______ ____
ROOT
ATOM      1  O   UNL     1       1.187  11.412  19.275  0.00  0.00    +0.000 OA
ATOM      2  C   UNL     1       0.858  10.458  19.965  0.00  0.00    +0.000 C 
ATOM      3  N   UNL     1      -0.098  10.477  20.970  0.00  0.00    +0.000 N 
ATOM      4  H   UNL     1      -0.357   9.579  21.353  0.00  0.00    +0.000 HD
ENDROOT
BRANCH   2   5
ATOM      5  C   UNL     1       1.404   9.108  19.648  0.00  0.00    +0.000 A 
ATOM      6  C   UNL     1       1.505   8.103  20.616  0.00  0.00    +0.000 A 
ATOM      7  C   UNL     1       2.016   6.848  20.267  0.00  0.00    +0.000 A 
ATOM      8  C   UNL     1       2.406   6.583  18.951  0.00  0.00    +0.000 A 
ATOM      9  C   UNL     1       2.336   7.598  17.996  0.00  0.00    +0.000 A 
ATOM     10  C   UNL     1       1.835   8.856  18.340  0.00  0.00    +0.000 A 
BRANCH   8  11
ATOM     11  O   UNL     1       2.877   5.379  18.498  0.00  0.00    +0.000 OA
BRANCH  11  12
ATOM     12  C   UNL     1       4.101   4.941  19.088  0.00  0.00    +0.000 C 
BRANCH  12  13
ATOM     13  C   UNL     1       5.134   4.749  18.008  0.00  0.00    +0.000 A 
ATOM     14  C   UNL     1       6.500   4.891  18.284  0.00  0.00    +0.000 A 
ATOM     15  C   UNL     1       7.447   4.700  17.276  0.00  0.00    +0.000 A 
ATOM     16  C   UNL     1       7.036   4.372  15.985  0.00  0.00    +0.000 A 
ATOM     17  C   UNL     1       5.680   4.236  15.698  0.00  0.00    +0.000 A 
ATOM     18  C   UNL     1       4.732   4.428  16.703  0.00  0.00    +0.000 A 
ENDBRANCH  12  13
ENDBRANCH  11  12
ENDBRANCH   8  11
ENDBRANCH   2   5
BRANCH   3  19
ATOM     19  C   UNL     1      -0.847  11.534  21.469  0.00  0.00    +0.000 C 
ATOM     20  S   UNL     1      -1.313  11.782  23.049  0.00  0.00    +0.000 S 
BRANCH  19  21
ATOM     21  N   UNL     1      -1.305  12.411  20.501  0.00  0.00    +0.000 N 
ATOM     22  H   UNL     1      -0.662  13.161  20.261  0.00  0.00    +0.000 HD
BRANCH  21  23
ATOM     23  C   UNL     1      -2.467  12.273  19.718  0.00  0.00    +0.000 A 
ATOM     24  C   UNL     1      -3.681  12.714  20.233  0.00  0.00    +0.000 A 
ATOM     25  C   UNL     1      -4.860  12.481  19.519  0.00  0.00    +0.000 A 
ATOM     26  C   UNL     1      -4.826  11.853  18.264  0.00  0.00    +0.000 A 
ATOM     27 CL   UNL     1      -6.342  11.542  17.501  0.00  0.00    +0.000 Cl
ATOM     28  C   UNL     1      -3.601  11.489  17.699  0.00  0.00    +0.000 A 
ATOM     29  C   UNL     1      -2.428  11.707  18.438  0.00  0.00    +0.000 A 
BRANCH  28  30
ATOM     30  C   UNL     1      -3.416  10.829  16.381  0.00  0.00    +0.000 C 
ATOM     31  O   UNL     1      -3.287   9.619  16.288  0.00  0.00    +0.000 OA
BRANCH  30  32
ATOM     32  O   UNL     1      -3.312  11.653  15.323  0.00  0.00    +0.000 OA
ATOM     33  H   UNL     1      -2.538  11.511  14.745  0.00  0.00    +0.000 HD
ENDBRANCH  30  32
ENDBRANCH  28  30
ENDBRANCH  21  23
ENDBRANCH  19  21
ENDBRANCH   3  19
TORSDOF 9
ENDMDL
MODEL 5
REMARK VINA RESULT:      -8.2      3.110      5.005
REMARK  Name = 
REMARK  9 active torsions:
REMARK  status: ('A' for Active; 'I' for Inactive)
REMARK    1  A    between atoms: C_2  and  C_17
REMARK    2  A    between atoms: N_3  and  C_4
REMARK    3  A    between atoms: C_4  and  N_6
REMARK    4  A    between atoms: N_6  and  C_7
REMARK    5  A    between atoms: C_12  and  C_13
REMARK    6  A    between atoms: C_13  and  O_15
REMARK    7  A    between atoms: C_20  and  O_21
REMARK    8  A    between atoms: O_21  and  C_22
REMARK    9  A    between atoms: C_22  and  C_23
REMARK                            x       y       z     vdW  Elec       q    Type
REMARK                         _______ _______ _______ _____ _____    ______ ____
ROOT
ATOM      1  O   UNL     1       0.916  10.528  18.446  0.00  0.00    +0.000 OA
ATOM      2  C   UNL     1      -0.126  10.120  18.940  0.00  0.00    +0.000 C 
ATOM      3  N   UNL     1      -0.239   9.436  20.143  0.00  0.00    +0.000 N 
ATOM      4  H   UNL     1      -1.179   9.290  20.482  0.00  0.00    +0.000 HD
ENDROOT
BRANCH   2   5
ATOM      5  C   UNL     1      -1.424  10.480  18.302  0.00  0.00    +0.000 A 
ATOM      6  C   UNL     1      -1.941   9.762  17.218  0.00  0.00    +0.000 A 
ATOM      7  C   UNL     1      -3.168  10.133  16.658  0.00  0.00    +0.000 A 
ATOM      8  C   UNL     1      -3.895  11.203  17.189  0.00  0.00    +0.000 A 
ATOM      9  C   UNL     1      -3.359  11.938  18.248  0.00  0.00    +0.000 A 
ATOM     10  C   UNL     1      -2.130  11.578  18.806  0.00  0.00    +0.000 A 
BRANCH   8  11
ATOM     11  O   UNL     1      -5.121  11.618  16.744  0.00  0.00    +0.000 OA
BRANCH  11  12
ATOM     12  C   UNL     1      -5.859  12.431  17.656  0.00  0.00    +0.000 C 
BRANCH  12  13
ATOM     13  C   UNL     1      -6.456  11.561  18.731  0.00  0.00    +0.000 A 
ATOM     14  C   UNL     1      -6.656  10.190  18.520  0.00  0.00    +0.000 A 
ATOM     15  C   UNL     1      -7.201   9.393  19.528  0.00  0.00    +0.000 A 
ATOM     16  C   UNL     1      -7.556   9.961  20.752  0.00  0.00    +0.000 A 
ATOM     17  C   UNL     1      -7.369  11.324  20.969  0.00  0.00    +0.000 A 
ATOM     18  C   UNL     1      -6.825  12.121  19.963  0.00  0.00    +0.000 A 
ENDBRANCH  12  13
ENDBRANCH  11  12
ENDBRANCH   8  11
ENDBRANCH   2   5
BRANCH   3  19
ATOM     19  C   UNL     1       0.747   9.009  21.021  0.00  0.00    +0.000 C 
ATOM     20  S   UNL     1       0.747   9.147  22.681  0.00  0.00    +0.000 S 
BRANCH  19  21
ATOM     21  N   UNL     1       1.872   8.491  20.403  0.00  0.00    +0.000 N 
ATOM     22  H   UNL     1       2.694   9.088  20.436  0.00  0.00    +0.000 HD
BRANCH  21  23
ATOM     23  C   UNL     1       2.033   7.186  19.898  0.00  0.00    +0.000 A 
ATOM     24  C   UNL     1       2.427   7.022  18.575  0.00  0.00    +0.000 A 
ATOM     25  C   UNL     1       2.481   5.738  18.024  0.00  0.00    +0.000 A 
ATOM     26  C   UNL     1       2.193   4.609  18.807  0.00  0.00    +0.000 A 
ATOM     27 CL   UNL     1       2.211   3.078  18.012  0.00  0.00    +0.000 Cl
ATOM     28  C   UNL     1       1.884   4.760  20.161  0.00  0.00    +0.000 A 
ATOM     29  C   UNL     1       1.810   6.056  20.695  0.00  0.00    +0.000 A 
BRANCH  28  30
ATOM     30  C   UNL     1       1.569   3.659  21.107  0.00  0.00    +0.000 C 
ATOM     31  O   UNL     1       2.282   3.422  22.068  0.00  0.00    +0.000 OA
BRANCH  30  32
ATOM     32  O   UNL     1       0.508   2.896  20.785  0.00  0.00    +0.000 OA
ATOM     33  H   UNL     1      -0.272   3.374  20.441  0.00  0.00    +0.000 HD
ENDBRANCH  30  32
ENDBRANCH  28  30
ENDBRANCH  21  23
ENDBRANCH  19  21
ENDBRANCH   3  19
TORSDOF 9
ENDMDL
MODEL 6
REMARK VINA RESULT:      -8.2      3.646      4.981
REMARK  Name = 
REMARK  9 active torsions:
REMARK  status: ('A' for Active; 'I' for Inactive)
REMARK    1  A    between atoms: C_2  and  C_17
REMARK    2  A    between atoms: N_3  and  C_4
REMARK    3  A    between atoms: C_4  and  N_6
REMARK    4  A    between atoms: N_6  and  C_7
REMARK    5  A    between atoms: C_12  and  C_13
REMARK    6  A    between atoms: C_13  and  O_15
REMARK    7  A    between atoms: C_20  and  O_21
REMARK    8  A    between atoms: O_21  and  C_22
REMARK    9  A    between atoms: C_22  and  C_23
REMARK                            x       y       z     vdW  Elec       q    Type
REMARK                         _______ _______ _______ _____ _____    ______ ____
ROOT
ATOM      1  O   UNL     1       2.424   7.915  19.147  0.00  0.00    +0.000 OA
ATOM      2  C   UNL     1       1.678   7.762  20.104  0.00  0.00    +0.000 C 
ATOM      3  N   UNL     1       1.487   6.576  20.799  0.00  0.00    +0.000 N 
ATOM      4  H   UNL     1       0.946   6.644  21.650  0.00  0.00    +0.000 HD
ENDROOT
BRANCH   2   5
ATOM      5  C   UNL     1       0.997   8.949  20.693  0.00  0.00    +0.000 A 
ATOM      6  C   UNL     1       0.699  10.086  19.934  0.00  0.00    +0.000 A 
ATOM      7  C   UNL     1       0.050  11.173  20.531  0.00  0.00    +0.000 A 
ATOM      8  C   UNL     1      -0.325  11.121  21.877  0.00  0.00    +0.000 A 
ATOM      9  C   UNL     1       0.004   9.999  22.639  0.00  0.00    +0.000 A 
ATOM     10  C   UNL     1       0.660   8.915  22.051  0.00  0.00    +0.000 A 
BRANCH   8  11
ATOM     11  O   UNL     1      -1.001  12.109  22.542  0.00  0.00    +0.000 OA
BRANCH  11  12
ATOM     12  C   UNL     1      -2.025  11.659  23.428  0.00  0.00    +0.000 C 
BRANCH  12  13
ATOM     13  C   UNL     1      -3.314  12.368  23.103  0.00  0.00    +0.000 A 
ATOM     14  C   UNL     1      -4.249  12.661  24.105  0.00  0.00    +0.000 A 
ATOM     15  C   UNL     1      -5.434  13.327  23.790  0.00  0.00    +0.000 A 
ATOM     16  C   UNL     1      -5.698  13.700  22.473  0.00  0.00    +0.000 A 
ATOM     17  C   UNL     1      -4.779  13.406  21.468  0.00  0.00    +0.000 A 
ATOM     18  C   UNL     1      -3.595  12.740  21.780  0.00  0.00    +0.000 A 
ENDBRANCH  12  13
ENDBRANCH  11  12
ENDBRANCH   8  11
ENDBRANCH   2   5
BRANCH   3  19
ATOM     19  C   UNL     1       2.015   5.314  20.571  0.00  0.00    +0.000 C 
ATOM     20  S   UNL     1       1.205   3.859  20.619  0.00  0.00    +0.000 S 
BRANCH  19  21
ATOM     21  N   UNL     1       3.383   5.299  20.367  0.00  0.00    +0.000 N 
ATOM     22  H   UNL     1       3.945   5.375  21.211  0.00  0.00    +0.000 HD
BRANCH  21  23
ATOM     23  C   UNL     1       4.055   5.027  19.159  0.00  0.00    +0.000 A 
ATOM     24  C   UNL     1       3.306   4.727  18.027  0.00  0.00    +0.000 A 
ATOM     25  C   UNL     1       3.956   4.343  16.850  0.00  0.00    +0.000 A 
ATOM     26  C   UNL     1       5.358   4.305  16.784  0.00  0.00    +0.000 A 
ATOM     27 CL   UNL     1       6.059   3.742  15.313  0.00  0.00    +0.000 Cl
ATOM     28  C   UNL     1       6.118   4.693  17.891  0.00  0.00    +0.000 A 
ATOM     29  C   UNL     1       5.452   5.053  19.072  0.00  0.00    +0.000 A 
BRANCH  28  30
ATOM     30  C   UNL     1       7.602   4.712  17.959  0.00  0.00    +0.000 C 
ATOM     31  O   UNL     1       8.284   4.117  17.142  0.00  0.00    +0.000 OA
BRANCH  30  32
ATOM     32  O   UNL     1       8.131   5.347  19.021  0.00  0.00    +0.000 OA
ATOM     33  H   UNL     1       7.490   5.747  19.642  0.00  0.00    +0.000 HD
ENDBRANCH  30  32
ENDBRANCH  28  30
ENDBRANCH  21  23
ENDBRANCH  19  21
ENDBRANCH   3  19
TORSDOF 9
ENDMDL
MODEL 7
REMARK VINA RESULT:      -8.1      2.696      4.356
REMARK  Name = 
REMARK  9 active torsions:
REMARK  status: ('A' for Active; 'I' for Inactive)
REMARK    1  A    between atoms: C_2  and  C_17
REMARK    2  A    between atoms: N_3  and  C_4
REMARK    3  A    between atoms: C_4  and  N_6
REMARK    4  A    between atoms: N_6  and  C_7
REMARK    5  A    between atoms: C_12  and  C_13
REMARK    6  A    between atoms: C_13  and  O_15
REMARK    7  A    between atoms: C_20  and  O_21
REMARK    8  A    between atoms: O_21  and  C_22
REMARK    9  A    between atoms: C_22  and  C_23
REMARK                            x       y       z     vdW  Elec       q    Type
REMARK                         _______ _______ _______ _____ _____    ______ ____
ROOT
ATOM      1  O   UNL     1       2.320   5.065  21.410  0.00  0.00    +0.000 OA
ATOM      2  C   UNL     1       2.169   5.475  20.267  0.00  0.00    +0.000 C 
ATOM      3  N   UNL     1       2.213   4.700  19.117  0.00  0.00    +0.000 N 
ATOM      4  H   UNL     1       1.931   5.159  18.262  0.00  0.00    +0.000 HD
ENDROOT
BRANCH   2   5
ATOM      5  C   UNL     1       1.769   6.894  20.050  0.00  0.00    +0.000 A 
ATOM      6  C   UNL     1       1.104   7.636  21.032  0.00  0.00    +0.000 A 
ATOM      7  C   UNL     1       0.757   8.968  20.784  0.00  0.00    +0.000 A 
ATOM      8  C   UNL     1       1.092   9.573  19.568  0.00  0.00    +0.000 A 
ATOM      9  C   UNL     1       1.724   8.819  18.578  0.00  0.00    +0.000 A 
ATOM     10  C   UNL     1       2.065   7.485  18.816  0.00  0.00    +0.000 A 
BRANCH   8  11
ATOM     11  O   UNL     1       0.838  10.879  19.243  0.00  0.00    +0.000 OA
BRANCH  11  12
ATOM     12  C   UNL     1      -0.396  11.401  19.735  0.00  0.00    +0.000 C 
BRANCH  12  13
ATOM     13  C   UNL     1      -1.491  11.117  18.740  0.00  0.00    +0.000 A 
ATOM     14  C   UNL     1      -1.297  10.200  17.698  0.00  0.00    +0.000 A 
ATOM     15  C   UNL     1      -2.323   9.939  16.788  0.00  0.00    +0.000 A 
ATOM     16  C   UNL     1      -3.548  10.596  16.909  0.00  0.00    +0.000 A 
ATOM     17  C   UNL     1      -3.748  11.515  17.936  0.00  0.00    +0.000 A 
ATOM     18  C   UNL     1      -2.723  11.778  18.845  0.00  0.00    +0.000 A 
ENDBRANCH  12  13
ENDBRANCH  11  12
ENDBRANCH   8  11
ENDBRANCH   2   5
BRANCH   3  19
ATOM     19  C   UNL     1       2.482   3.347  18.963  0.00  0.00    +0.000 C 
ATOM     20  S   UNL     1       1.454   2.073  19.273  0.00  0.00    +0.000 S 
BRANCH  19  21
ATOM     21  N   UNL     1       3.784   3.067  18.588  0.00  0.00    +0.000 N 
ATOM     22  H   UNL     1       3.979   2.085  18.411  0.00  0.00    +0.000 HD
BRANCH  21  23
ATOM     23  C   UNL     1       4.791   3.999  18.271  0.00  0.00    +0.000 A 
ATOM     24  C   UNL     1       5.618   4.465  19.286  0.00  0.00    +0.000 A 
ATOM     25  C   UNL     1       6.547   5.474  19.013  0.00  0.00    +0.000 A 
ATOM     26  C   UNL     1       6.689   5.985  17.713  0.00  0.00    +0.000 A 
ATOM     27 CL   UNL     1       7.806   7.282  17.498  0.00  0.00    +0.000 Cl
ATOM     28  C   UNL     1       5.924   5.458  16.669  0.00  0.00    +0.000 A 
ATOM     29  C   UNL     1       4.979   4.462  16.963  0.00  0.00    +0.000 A 
BRANCH  28  30
ATOM     30  C   UNL     1       5.976   5.894  15.250  0.00  0.00    +0.000 C 
ATOM     31  O   UNL     1       6.777   5.412  14.467  0.00  0.00    +0.000 OA
BRANCH  30  32
ATOM     32  O   UNL     1       5.153   6.905  14.917  0.00  0.00    +0.000 OA
ATOM     33  H   UNL     1       4.904   6.960  13.974  0.00  0.00    +0.000 HD
ENDBRANCH  30  32
ENDBRANCH  28  30
ENDBRANCH  21  23
ENDBRANCH  19  21
ENDBRANCH   3  19
TORSDOF 9
ENDMDL
MODEL 8
REMARK VINA RESULT:      -8.1      3.653      4.960
REMARK  Name = 
REMARK  9 active torsions:
REMARK  status: ('A' for Active; 'I' for Inactive)
REMARK    1  A    between atoms: C_2  and  C_17
REMARK    2  A    between atoms: N_3  and  C_4
REMARK    3  A    between atoms: C_4  and  N_6
REMARK    4  A    between atoms: N_6  and  C_7
REMARK    5  A    between atoms: C_12  and  C_13
REMARK    6  A    between atoms: C_13  and  O_15
REMARK    7  A    between atoms: C_20  and  O_21
REMARK    8  A    between atoms: O_21  and  C_22
REMARK    9  A    between atoms: C_22  and  C_23
REMARK                            x       y       z     vdW  Elec       q    Type
REMARK                         _______ _______ _______ _____ _____    ______ ____
ROOT
ATOM      1  O   UNL     1       2.219   7.478  18.926  0.00  0.00    +0.000 OA
ATOM      2  C   UNL     1       1.712   7.429  20.038  0.00  0.00    +0.000 C 
ATOM      3  N   UNL     1       1.685   6.316  20.867  0.00  0.00    +0.000 N 
ATOM      4  H   UNL     1       1.352   6.473  21.808  0.00  0.00    +0.000 HD
ENDROOT
BRANCH   2   5
ATOM      5  C   UNL     1       1.183   8.679  20.653  0.00  0.00    +0.000 A 
ATOM      6  C   UNL     1       0.769   8.732  21.988  0.00  0.00    +0.000 A 
ATOM      7  C   UNL     1       0.288   9.932  22.522  0.00  0.00    +0.000 A 
ATOM      8  C   UNL     1       0.240  11.088  21.737  0.00  0.00    +0.000 A 
ATOM      9  C   UNL     1       0.622  11.023  20.396  0.00  0.00    +0.000 A 
ATOM     10  C   UNL     1       1.095   9.825  19.854  0.00  0.00    +0.000 A 
BRANCH   8  11
ATOM     11  O   UNL     1      -0.171  12.319  22.175  0.00  0.00    +0.000 OA
BRANCH  11  12
ATOM     12  C   UNL     1      -1.325  12.845  21.520  0.00  0.00    +0.000 C 
BRANCH  12  13
ATOM     13  C   UNL     1      -2.384  13.152  22.547  0.00  0.00    +0.000 A 
ATOM     14  C   UNL     1      -2.815  14.468  22.767  0.00  0.00    +0.000 A 
ATOM     15  C   UNL     1      -3.804  14.736  23.714  0.00  0.00    +0.000 A 
ATOM     16  C   UNL     1      -4.365  13.695  24.453  0.00  0.00    +0.000 A 
ATOM     17  C   UNL     1      -3.939  12.385  24.248  0.00  0.00    +0.000 A 
ATOM     18  C   UNL     1      -2.949  12.115  23.302  0.00  0.00    +0.000 A 
ENDBRANCH  12  13
ENDBRANCH  11  12
ENDBRANCH   8  11
ENDBRANCH   2   5
BRANCH   3  19
ATOM     19  C   UNL     1       2.147   5.027  20.644  0.00  0.00    +0.000 C 
ATOM     20  S   UNL     1       1.283   3.609  20.780  0.00  0.00    +0.000 S 
BRANCH  19  21
ATOM     21  N   UNL     1       3.499   4.950  20.361  0.00  0.00    +0.000 N 
ATOM     22  H   UNL     1       4.108   4.932  21.174  0.00  0.00    +0.000 HD
BRANCH  21  23
ATOM     23  C   UNL     1       4.087   4.729  19.100  0.00  0.00    +0.000 A 
ATOM     24  C   UNL     1       3.302   4.222  18.072  0.00  0.00    +0.000 A 
ATOM     25  C   UNL     1       3.893   3.889  16.850  0.00  0.00    +0.000 A 
ATOM     26  C   UNL     1       5.263   4.109  16.632  0.00  0.00    +0.000 A 
ATOM     27 CL   UNL     1       5.910   3.591  15.119  0.00  0.00    +0.000 Cl
ATOM     28  C   UNL     1       6.040   4.702  17.630  0.00  0.00    +0.000 A 
ATOM     29  C   UNL     1       5.438   5.009  18.860  0.00  0.00    +0.000 A 
BRANCH  28  30
ATOM     30  C   UNL     1       7.493   5.002  17.535  0.00  0.00    +0.000 C 
ATOM     31  O   UNL     1       8.334   4.152  17.776  0.00  0.00    +0.000 OA
BRANCH  30  32
ATOM     32  O   UNL     1       7.810   6.279  17.256  0.00  0.00    +0.000 OA
ATOM     33  H   UNL     1       8.687   6.423  16.851  0.00  0.00    +0.000 HD
ENDBRANCH  30  32
ENDBRANCH  28  30
ENDBRANCH  21  23
ENDBRANCH  19  21
ENDBRANCH   3  19
TORSDOF 9
ENDMDL
MODEL 9
REMARK VINA RESULT:      -8.0      3.563      5.008
REMARK  Name = 
REMARK  9 active torsions:
REMARK  status: ('A' for Active; 'I' for Inactive)
REMARK    1  A    between atoms: C_2  and  C_17
REMARK    2  A    between atoms: N_3  and  C_4
REMARK    3  A    between atoms: C_4  and  N_6
REMARK    4  A    between atoms: N_6  and  C_7
REMARK    5  A    between atoms: C_12  and  C_13
REMARK    6  A    between atoms: C_13  and  O_15
REMARK    7  A    between atoms: C_20  and  O_21
REMARK    8  A    between atoms: O_21  and  C_22
REMARK    9  A    between atoms: C_22  and  C_23
REMARK                            x       y       z     vdW  Elec       q    Type
REMARK                         _______ _______ _______ _____ _____    ______ ____
ROOT
ATOM      1  O   UNL     1       2.367   7.802  19.138  0.00  0.00    +0.000 OA
ATOM      2  C   UNL     1       1.685   7.608  20.135  0.00  0.00    +0.000 C 
ATOM      3  N   UNL     1       1.610   6.419  20.846  0.00  0.00    +0.000 N 
ATOM      4  H   UNL     1       1.112   6.459  21.725  0.00  0.00    +0.000 HD
ENDROOT
BRANCH   2   5
ATOM      5  C   UNL     1       0.959   8.754  20.753  0.00  0.00    +0.000 A 
ATOM      6  C   UNL     1       0.551   8.737  22.091  0.00  0.00    +0.000 A 
ATOM      7  C   UNL     1      -0.120   9.841  22.629  0.00  0.00    +0.000 A 
ATOM      8  C   UNL     1      -0.367  10.972  21.844  0.00  0.00    +0.000 A 
ATOM      9  C   UNL     1       0.011  10.970  20.501  0.00  0.00    +0.000 A 
ATOM     10  C   UNL     1       0.674   9.868  19.955  0.00  0.00    +0.000 A 
BRANCH   8  11
ATOM     11  O   UNL     1      -0.975  12.117  22.285  0.00  0.00    +0.000 OA
BRANCH  11  12
ATOM     12  C   UNL     1      -2.107  12.539  21.524  0.00  0.00    +0.000 C 
BRANCH  12  13
ATOM     13  C   UNL     1      -3.317  12.596  22.420  0.00  0.00    +0.000 A 
ATOM     14  C   UNL     1      -3.210  12.336  23.792  0.00  0.00    +0.000 A 
ATOM     15  C   UNL     1      -4.338  12.402  24.612  0.00  0.00    +0.000 A 
ATOM     16  C   UNL     1      -5.581  12.723  24.066  0.00  0.00    +0.000 A 
ATOM     17  C   UNL     1      -5.699  12.975  22.701  0.00  0.00    +0.000 A 
ATOM     18  C   UNL     1      -4.573  12.908  21.881  0.00  0.00    +0.000 A 
ENDBRANCH  12  13
ENDBRANCH  11  12
ENDBRANCH   8  11
ENDBRANCH   2   5
BRANCH   3  19
ATOM     19  C   UNL     1       2.208   5.192  20.597  0.00  0.00    +0.000 C 
ATOM     20  S   UNL     1       1.531   3.682  20.793  0.00  0.00    +0.000 S 
BRANCH  19  21
ATOM     21  N   UNL     1       3.539   5.274  20.227  0.00  0.00    +0.000 N 
ATOM     22  H   UNL     1       4.193   5.394  20.996  0.00  0.00    +0.000 HD
BRANCH  21  23
ATOM     23  C   UNL     1       4.075   5.044  18.945  0.00  0.00    +0.000 A 
ATOM     24  C   UNL     1       3.388   4.213  18.068  0.00  0.00    +0.000 A 
ATOM     25  C   UNL     1       3.960   3.882  16.837  0.00  0.00    +0.000 A 
ATOM     26  C   UNL     1       5.199   4.421  16.454  0.00  0.00    +0.000 A 
ATOM     27 CL   UNL     1       5.855   3.888  14.950  0.00  0.00    +0.000 Cl
ATOM     28  C   UNL     1       5.853   5.328  17.291  0.00  0.00    +0.000 A 
ATOM     29  C   UNL     1       5.278   5.632  18.535  0.00  0.00    +0.000 A 
BRANCH  28  30
ATOM     30  C   UNL     1       7.158   5.981  17.012  0.00  0.00    +0.000 C 
ATOM     31  O   UNL     1       7.730   6.647  17.859  0.00  0.00    +0.000 OA
BRANCH  30  32
ATOM     32  O   UNL     1       7.614   5.863  15.751  0.00  0.00    +0.000 OA
ATOM     33  H   UNL     1       8.517   5.503  15.655  0.00  0.00    +0.000 HD
ENDBRANCH  30  32
ENDBRANCH  28  30
ENDBRANCH  21  23
ENDBRANCH  19  21
ENDBRANCH   3  19
TORSDOF 9
ENDMDL
