MODEL 1
REMARK VINA RESULT:      -6.5      0.000      0.000
REMARK  Name = 
REMARK  5 active torsions:
REMARK  status: ('A' for Active; 'I' for Inactive)
REMARK    1  A    between atoms: C_2  and  C_3
REMARK    2  A    between atoms: C_3  and  C_4
REMARK    3  A    between atoms: N_9  and  C_10
REMARK    4  A    between atoms: N_17  and  C_18
REMARK    5  A    between atoms: N_24  and  C_25
REMARK                            x       y       z     vdW  Elec       q    Type
REMARK                         _______ _______ _______ _____ _____    ______ ____
ROOT
ATOM      1  C   UNL     1       7.497  16.063  22.910  0.00  0.00    +0.000 C 
ATOM      2  C   UNL     1       7.429  14.796  22.395  0.00  0.00    +0.000 C 
ATOM      3  S   UNL     1       6.213  13.681  23.004  0.00  0.00    +0.000 S 
ATOM      4  C   UNL     1       7.389  12.399  23.068  0.00  0.00    +0.000 C 
ATOM      5  N   UNL     1       7.645  11.541  24.002  0.00  0.00    +0.000 NA
ATOM      6  C   UNL     1       8.274  12.678  21.814  0.00  0.00    +0.000 C 
ATOM      7  N   UNL     1       8.878  11.625  21.345  0.00  0.00    +0.000 NA
ATOM      8  N   UNL     1       8.279  14.070  21.500  0.00  0.00    +0.000 N 
ENDROOT
BRANCH   5   9
ATOM      9  C   UNL     1       6.882  11.468  25.184  0.00  0.00    +0.000 A 
ATOM     10  C   UNL     1       7.376  12.087  26.337  0.00  0.00    +0.000 A 
ATOM     11  C   UNL     1       6.651  12.070  27.536  0.00  0.00    +0.000 A 
ATOM     12  C   UNL     1       5.425  11.409  27.605  0.00  0.00    +0.000 A 
ATOM     13  C   UNL     1       4.901  10.816  26.466  0.00  0.00    +0.000 A 
ATOM     14  C   UNL     1       5.606  10.888  25.261  0.00  0.00    +0.000 A 
ENDBRANCH   5   9
BRANCH   7  15
ATOM     15  C   UNL     1       9.816  11.622  20.296  0.00  0.00    +0.000 A 
ATOM     16  C   UNL     1      11.190  11.791  20.489  0.00  0.00    +0.000 A 
ATOM     17  C   UNL     1      12.059  11.955  19.403  0.00  0.00    +0.000 A 
ATOM     18  C   UNL     1      11.588  11.796  18.106  0.00  0.00    +0.000 A 
ATOM     19  C   UNL     1      10.252  11.463  17.899  0.00  0.00    +0.000 A 
ATOM     20  C   UNL     1       9.372  11.391  18.989  0.00  0.00    +0.000 A 
ENDBRANCH   7  15
BRANCH   8  21
ATOM     21  C   UNL     1       8.719  14.562  20.226  0.00  0.00    +0.000 A 
ATOM     22  C   UNL     1      10.030  14.983  19.956  0.00  0.00    +0.000 A 
ATOM     23  C   UNL     1      10.384  15.522  18.703  0.00  0.00    +0.000 A 
ATOM     24  C   UNL     1       9.462  15.565  17.660  0.00  0.00    +0.000 A 
ATOM     25  C   UNL     1       8.163  15.187  17.915  0.00  0.00    +0.000 A 
ATOM     26  C   UNL     1       7.791  14.801  19.203  0.00  0.00    +0.000 A 
ENDBRANCH   8  21
BRANCH   1  28
ATOM     27  N   UNL     1       5.880  17.045  24.949  0.00  0.00    +0.000 NA
ATOM     28  C   UNL     1       6.613  16.600  24.024  0.00  0.00    +0.000 C 
ENDBRANCH   1  28
BRANCH   1  29
ATOM     29  C   UNL     1       8.498  16.978  22.226  0.00  0.00    +0.000 C 
ATOM     30  N   UNL     1       9.330  17.739  21.659  0.00  0.00    +0.000 NA
ENDBRANCH   1  29
TORSDOF 5
ENDMDL
MODEL 2
REMARK VINA RESULT:      -6.3      0.159      1.240
REMARK  Name = 
REMARK  5 active torsions:
REMARK  status: ('A' for Active; 'I' for Inactive)
REMARK    1  A    between atoms: C_2  and  C_3
REMARK    2  A    between atoms: C_3  and  C_4
REMARK    3  A    between atoms: N_9  and  C_10
REMARK    4  A    between atoms: N_17  and  C_18
REMARK    5  A    between atoms: N_24  and  C_25
REMARK                            x       y       z     vdW  Elec       q    Type
REMARK                         _______ _______ _______ _____ _____    ______ ____
ROOT
ATOM      1  C   UNL     1       7.385  16.067  22.932  0.00  0.00    +0.000 C 
ATOM      2  C   UNL     1       7.330  14.790  22.442  0.00  0.00    +0.000 C 
ATOM      3  S   UNL     1       6.131  13.672  23.082  0.00  0.00    +0.000 S 
ATOM      4  C   UNL     1       7.324  12.406  23.163  0.00  0.00    +0.000 C 
ATOM      5  N   UNL     1       7.597  11.570  24.111  0.00  0.00    +0.000 NA
ATOM      6  C   UNL     1       8.197  12.672  21.897  0.00  0.00    +0.000 C 
ATOM      7  N   UNL     1       8.811  11.617  21.445  0.00  0.00    +0.000 NA
ATOM      8  N   UNL     1       8.182  14.057  21.556  0.00  0.00    +0.000 N 
ENDROOT
BRANCH   5   9
ATOM      9  C   UNL     1       6.843  11.511  25.301  0.00  0.00    +0.000 A 
ATOM     10  C   UNL     1       5.608  10.855  25.277  0.00  0.00    +0.000 A 
ATOM     11  C   UNL     1       4.825  10.743  26.434  0.00  0.00    +0.000 A 
ATOM     12  C   UNL     1       5.258  11.309  27.632  0.00  0.00    +0.000 A 
ATOM     13  C   UNL     1       6.494  11.937  27.686  0.00  0.00    +0.000 A 
ATOM     14  C   UNL     1       7.293  11.994  26.540  0.00  0.00    +0.000 A 
ENDBRANCH   5   9
BRANCH   7  15
ATOM     15  C   UNL     1       9.742  11.604  20.390  0.00  0.00    +0.000 A 
ATOM     16  C   UNL     1      11.109  11.839  20.564  0.00  0.00    +0.000 A 
ATOM     17  C   UNL     1      11.963  11.989  19.465  0.00  0.00    +0.000 A 
ATOM     18  C   UNL     1      11.491  11.751  18.180  0.00  0.00    +0.000 A 
ATOM     19  C   UNL     1      10.170  11.352  18.000  0.00  0.00    +0.000 A 
ATOM     20  C   UNL     1       9.300  11.294  19.099  0.00  0.00    +0.000 A 
ENDBRANCH   7  15
BRANCH   8  21
ATOM     21  C   UNL     1       8.608  14.529  20.270  0.00  0.00    +0.000 A 
ATOM     22  C   UNL     1       7.800  14.522  19.122  0.00  0.00    +0.000 A 
ATOM     23  C   UNL     1       8.300  14.935  17.871  0.00  0.00    +0.000 A 
ATOM     24  C   UNL     1       9.587  15.453  17.753  0.00  0.00    +0.000 A 
ATOM     25  C   UNL     1      10.406  15.438  18.861  0.00  0.00    +0.000 A 
ATOM     26  C   UNL     1       9.948  14.883  20.056  0.00  0.00    +0.000 A 
ENDBRANCH   8  21
BRANCH   1  28
ATOM     27  N   UNL     1       5.770  17.070  24.962  0.00  0.00    +0.000 NA
ATOM     28  C   UNL     1       6.503  16.615  24.041  0.00  0.00    +0.000 C 
ENDBRANCH   1  28
BRANCH   1  29
ATOM     29  C   UNL     1       8.371  16.981  22.223  0.00  0.00    +0.000 C 
ATOM     30  N   UNL     1       9.189  17.740  21.634  0.00  0.00    +0.000 NA
ENDBRANCH   1  29
TORSDOF 5
ENDMDL
MODEL 3
REMARK VINA RESULT:      -6.1      0.504      1.005
REMARK  Name = 
REMARK  5 active torsions:
REMARK  status: ('A' for Active; 'I' for Inactive)
REMARK    1  A    between atoms: C_2  and  C_3
REMARK    2  A    between atoms: C_3  and  C_4
REMARK    3  A    between atoms: N_9  and  C_10
REMARK    4  A    between atoms: N_17  and  C_18
REMARK    5  A    between atoms: N_24  and  C_25
REMARK                            x       y       z     vdW  Elec       q    Type
REMARK                         _______ _______ _______ _____ _____    ______ ____
ROOT
ATOM      1  C   UNL     1       8.137  16.309  23.143  0.00  0.00    +0.000 C 
ATOM      2  C   UNL     1       7.905  15.100  22.544  0.00  0.00    +0.000 C 
ATOM      3  S   UNL     1       6.585  14.090  23.122  0.00  0.00    +0.000 S 
ATOM      4  C   UNL     1       7.605  12.680  23.051  0.00  0.00    +0.000 C 
ATOM      5  N   UNL     1       7.787  11.732  23.912  0.00  0.00    +0.000 NA
ATOM      6  C   UNL     1       8.477  12.947  21.785  0.00  0.00    +0.000 C 
ATOM      7  N   UNL     1       8.939  11.869  21.222  0.00  0.00    +0.000 NA
ATOM      8  N   UNL     1       8.636  14.349  21.569  0.00  0.00    +0.000 N 
ENDROOT
BRANCH   5   9
ATOM      9  C   UNL     1       7.057  11.661  25.116  0.00  0.00    +0.000 A 
ATOM     10  C   UNL     1       7.577  12.291  26.251  0.00  0.00    +0.000 A 
ATOM     11  C   UNL     1       6.885  12.276  27.469  0.00  0.00    +0.000 A 
ATOM     12  C   UNL     1       5.667  11.606  27.576  0.00  0.00    +0.000 A 
ATOM     13  C   UNL     1       5.116  11.001  26.455  0.00  0.00    +0.000 A 
ATOM     14  C   UNL     1       5.788  11.071  25.230  0.00  0.00    +0.000 A 
ENDBRANCH   5   9
BRANCH   7  15
ATOM     15  C   UNL     1       9.838  11.835  20.140  0.00  0.00    +0.000 A 
ATOM     16  C   UNL     1       9.435  11.817  18.802  0.00  0.00    +0.000 A 
ATOM     17  C   UNL     1      10.358  11.607  17.770  0.00  0.00    +0.000 A 
ATOM     18  C   UNL     1      11.718  11.568  18.052  0.00  0.00    +0.000 A 
ATOM     19  C   UNL     1      12.151  11.750  19.362  0.00  0.00    +0.000 A 
ATOM     20  C   UNL     1      11.213  11.869  20.399  0.00  0.00    +0.000 A 
ENDBRANCH   7  15
BRANCH   8  21
ATOM     21  C   UNL     1       9.092  14.878  20.316  0.00  0.00    +0.000 A 
ATOM     22  C   UNL     1      10.435  15.165  20.025  0.00  0.00    +0.000 A 
ATOM     23  C   UNL     1      10.811  15.750  18.800  0.00  0.00    +0.000 A 
ATOM     24  C   UNL     1       9.869  15.975  17.798  0.00  0.00    +0.000 A 
ATOM     25  C   UNL     1       8.543  15.730  18.076  0.00  0.00    +0.000 A 
ATOM     26  C   UNL     1       8.168  15.296  19.348  0.00  0.00    +0.000 A 
ENDBRANCH   8  21
BRANCH   1  28
ATOM     27  N   UNL     1       6.710  17.318  25.306  0.00  0.00    +0.000 NA
ATOM     28  C   UNL     1       7.357  16.861  24.325  0.00  0.00    +0.000 C 
ENDBRANCH   1  28
BRANCH   1  29
ATOM     29  C   UNL     1       9.218  17.151  22.486  0.00  0.00    +0.000 C 
ATOM     30  N   UNL     1      10.115  17.850  21.941  0.00  0.00    +0.000 NA
ENDBRANCH   1  29
TORSDOF 5
ENDMDL
MODEL 4
REMARK VINA RESULT:      -6.0      0.313      1.275
REMARK  Name = 
REMARK  5 active torsions:
REMARK  status: ('A' for Active; 'I' for Inactive)
REMARK    1  A    between atoms: C_2  and  C_3
REMARK    2  A    between atoms: C_3  and  C_4
REMARK    3  A    between atoms: N_9  and  C_10
REMARK    4  A    between atoms: N_17  and  C_18
REMARK    5  A    between atoms: N_24  and  C_25
REMARK                            x       y       z     vdW  Elec       q    Type
REMARK                         _______ _______ _______ _____ _____    ______ ____
ROOT
ATOM      1  C   UNL     1       7.119  16.144  22.915  0.00  0.00    +0.000 C 
ATOM      2  C   UNL     1       7.128  14.860  22.442  0.00  0.00    +0.000 C 
ATOM      3  S   UNL     1       5.994  13.689  23.105  0.00  0.00    +0.000 S 
ATOM      4  C   UNL     1       7.253  12.489  23.192  0.00  0.00    +0.000 C 
ATOM      5  N   UNL     1       7.577  11.680  24.149  0.00  0.00    +0.000 NA
ATOM      6  C   UNL     1       8.101  12.783  21.916  0.00  0.00    +0.000 C 
ATOM      7  N   UNL     1       8.766  11.757  21.473  0.00  0.00    +0.000 NA
ATOM      8  N   UNL     1       8.011  14.161  21.558  0.00  0.00    +0.000 N 
ENDROOT
BRANCH   5   9
ATOM      9  C   UNL     1       6.835  11.598  25.345  0.00  0.00    +0.000 A 
ATOM     10  C   UNL     1       5.623  10.900  25.333  0.00  0.00    +0.000 A 
ATOM     11  C   UNL     1       4.855  10.763  26.497  0.00  0.00    +0.000 A 
ATOM     12  C   UNL     1       5.279  11.345  27.691  0.00  0.00    +0.000 A 
ATOM     13  C   UNL     1       6.494  12.014  27.733  0.00  0.00    +0.000 A 
ATOM     14  C   UNL     1       7.280  12.096  26.580  0.00  0.00    +0.000 A 
ENDBRANCH   5   9
BRANCH   7  15
ATOM     15  C   UNL     1       9.689  11.779  20.411  0.00  0.00    +0.000 A 
ATOM     16  C   UNL     1       9.332  11.580  19.074  0.00  0.00    +0.000 A 
ATOM     17  C   UNL     1      10.306  11.438  18.078  0.00  0.00    +0.000 A 
ATOM     18  C   UNL     1      11.646  11.650  18.381  0.00  0.00    +0.000 A 
ATOM     19  C   UNL     1      12.005  12.013  19.676  0.00  0.00    +0.000 A 
ATOM     20  C   UNL     1      11.032  12.064  20.684  0.00  0.00    +0.000 A 
ENDBRANCH   7  15
BRANCH   8  21
ATOM     21  C   UNL     1       8.402  14.638  20.263  0.00  0.00    +0.000 A 
ATOM     22  C   UNL     1       9.688  15.103  19.950  0.00  0.00    +0.000 A 
ATOM     23  C   UNL     1       9.992  15.624  18.677  0.00  0.00    +0.000 A 
ATOM     24  C   UNL     1       9.044  15.605  17.655  0.00  0.00    +0.000 A 
ATOM     25  C   UNL     1       7.767  15.183  17.951  0.00  0.00    +0.000 A 
ATOM     26  C   UNL     1       7.441  14.815  19.256  0.00  0.00    +0.000 A 
ENDBRANCH   8  21
BRANCH   1  28
ATOM     27  N   UNL     1       5.469  17.087  24.945  0.00  0.00    +0.000 NA
ATOM     28  C   UNL     1       6.217  16.660  24.025  0.00  0.00    +0.000 C 
ENDBRANCH   1  28
BRANCH   1  29
ATOM     29  C   UNL     1       8.050  17.100  22.187  0.00  0.00    +0.000 C 
ATOM     30  N   UNL     1       8.823  17.893  21.583  0.00  0.00    +0.000 NA
ENDBRANCH   1  29
TORSDOF 5
ENDMDL
MODEL 5
REMARK VINA RESULT:      -6.0      9.901     12.467
REMARK  Name = 
REMARK  5 active torsions:
REMARK  status: ('A' for Active; 'I' for Inactive)
REMARK    1  A    between atoms: C_2  and  C_3
REMARK    2  A    between atoms: C_3  and  C_4
REMARK    3  A    between atoms: N_9  and  C_10
REMARK    4  A    between atoms: N_17  and  C_18
REMARK    5  A    between atoms: N_24  and  C_25
REMARK                            x       y       z     vdW  Elec       q    Type
REMARK                         _______ _______ _______ _____ _____    ______ ____
ROOT
ATOM      1  C   UNL     1      -3.248  11.310  17.879  0.00  0.00    +0.000 C 
ATOM      2  C   UNL     1      -2.373  11.761  18.831  0.00  0.00    +0.000 C 
ATOM      3  S   UNL     1      -0.643  11.590  18.562  0.00  0.00    +0.000 S 
ATOM      4  C   UNL     1      -0.420  11.049  20.201  0.00  0.00    +0.000 C 
ATOM      5  N   UNL     1       0.257  10.051  20.671  0.00  0.00    +0.000 NA
ATOM      6  C   UNL     1      -1.456  11.906  20.993  0.00  0.00    +0.000 C 
ATOM      7  N   UNL     1      -1.155  12.078  22.247  0.00  0.00    +0.000 NA
ATOM      8  N   UNL     1      -2.562  12.254  20.161  0.00  0.00    +0.000 N 
ENDROOT
BRANCH   5   9
ATOM      9  C   UNL     1       1.047   9.226  19.847  0.00  0.00    +0.000 A 
ATOM     10  C   UNL     1       1.561   8.041  20.384  0.00  0.00    +0.000 A 
ATOM     11  C   UNL     1       2.333   7.167  19.605  0.00  0.00    +0.000 A 
ATOM     12  C   UNL     1       2.623   7.481  18.278  0.00  0.00    +0.000 A 
ATOM     13  C   UNL     1       2.097   8.635  17.715  0.00  0.00    +0.000 A 
ATOM     14  C   UNL     1       1.281   9.471  18.484  0.00  0.00    +0.000 A 
ENDBRANCH   5   9
BRANCH   7  15
ATOM     15  C   UNL     1      -1.971  12.712  23.202  0.00  0.00    +0.000 A 
ATOM     16  C   UNL     1      -3.068  12.096  23.811  0.00  0.00    +0.000 A 
ATOM     17  C   UNL     1      -3.949  12.823  24.620  0.00  0.00    +0.000 A 
ATOM     18  C   UNL     1      -3.658  14.139  24.958  0.00  0.00    +0.000 A 
ATOM     19  C   UNL     1      -2.481  14.720  24.495  0.00  0.00    +0.000 A 
ATOM     20  C   UNL     1      -1.652  14.012  23.612  0.00  0.00    +0.000 A 
ENDBRANCH   7  15
BRANCH   8  21
ATOM     21  C   UNL     1      -3.480  13.299  20.513  0.00  0.00    +0.000 A 
ATOM     22  C   UNL     1      -3.168  14.667  20.471  0.00  0.00    +0.000 A 
ATOM     23  C   UNL     1      -4.091  15.643  20.895  0.00  0.00    +0.000 A 
ATOM     24  C   UNL     1      -5.380  15.284  21.283  0.00  0.00    +0.000 A 
ATOM     25  C   UNL     1      -5.694  13.946  21.362  0.00  0.00    +0.000 A 
ATOM     26  C   UNL     1      -4.721  12.986  21.086  0.00  0.00    +0.000 A 
ENDBRANCH   8  21
BRANCH   1  28
ATOM     27  N   UNL     1      -2.519  10.042  15.513  0.00  0.00    +0.000 NA
ATOM     28  C   UNL     1      -2.849  10.617  16.586  0.00  0.00    +0.000 C 
ENDBRANCH   1  28
BRANCH   1  29
ATOM     29  C   UNL     1      -4.709  11.619  18.157  0.00  0.00    +0.000 C 
ATOM     30  N   UNL     1      -5.923  11.876  18.388  0.00  0.00    +0.000 NA
ENDBRANCH   1  29
TORSDOF 5
ENDMDL
MODEL 6
REMARK VINA RESULT:      -6.0      1.257      1.621
REMARK  Name = 
REMARK  5 active torsions:
REMARK  status: ('A' for Active; 'I' for Inactive)
REMARK    1  A    between atoms: C_2  and  C_3
REMARK    2  A    between atoms: C_3  and  C_4
REMARK    3  A    between atoms: N_9  and  C_10
REMARK    4  A    between atoms: N_17  and  C_18
REMARK    5  A    between atoms: N_24  and  C_25
REMARK                            x       y       z     vdW  Elec       q    Type
REMARK                         _______ _______ _______ _____ _____    ______ ____
ROOT
ATOM      1  C   UNL     1       9.412  16.256  23.690  0.00  0.00    +0.000 C 
ATOM      2  C   UNL     1       8.879  15.231  22.956  0.00  0.00    +0.000 C 
ATOM      3  S   UNL     1       7.346  14.523  23.450  0.00  0.00    +0.000 S 
ATOM      4  C   UNL     1       7.971  12.923  23.173  0.00  0.00    +0.000 C 
ATOM      5  N   UNL     1       7.907  11.858  23.904  0.00  0.00    +0.000 NA
ATOM      6  C   UNL     1       8.881  13.119  21.920  0.00  0.00    +0.000 C 
ATOM      7  N   UNL     1       9.051  12.039  21.213  0.00  0.00    +0.000 NA
ATOM      8  N   UNL     1       9.392  14.450  21.872  0.00  0.00    +0.000 N 
ENDROOT
BRANCH   5   9
ATOM      9  C   UNL     1       7.185  11.821  25.115  0.00  0.00    +0.000 A 
ATOM     10  C   UNL     1       5.938  11.188  25.130  0.00  0.00    +0.000 A 
ATOM     11  C   UNL     1       5.186  11.098  26.309  0.00  0.00    +0.000 A 
ATOM     12  C   UNL     1       5.662  11.665  27.490  0.00  0.00    +0.000 A 
ATOM     13  C   UNL     1       6.911  12.269  27.506  0.00  0.00    +0.000 A 
ATOM     14  C   UNL     1       7.679  12.303  26.337  0.00  0.00    +0.000 A 
ENDBRANCH   5   9
BRANCH   7  15
ATOM     15  C   UNL     1       9.910  11.917  20.105  0.00  0.00    +0.000 A 
ATOM     16  C   UNL     1      11.263  11.583  20.211  0.00  0.00    +0.000 A 
ATOM     17  C   UNL     1      12.112  11.645  19.099  0.00  0.00    +0.000 A 
ATOM     18  C   UNL     1      11.588  11.890  17.836  0.00  0.00    +0.000 A 
ATOM     19  C   UNL     1      10.214  12.061  17.687  0.00  0.00    +0.000 A 
ATOM     20  C   UNL     1       9.385  12.087  18.819  0.00  0.00    +0.000 A 
ENDBRANCH   7  15
BRANCH   8  21
ATOM     21  C   UNL     1       9.966  15.002  20.678  0.00  0.00    +0.000 A 
ATOM     22  C   UNL     1      11.339  14.990  20.387  0.00  0.00    +0.000 A 
ATOM     23  C   UNL     1      11.849  15.611  19.229  0.00  0.00    +0.000 A 
ATOM     24  C   UNL     1      10.992  16.175  18.287  0.00  0.00    +0.000 A 
ATOM     25  C   UNL     1       9.645  16.226  18.570  0.00  0.00    +0.000 A 
ATOM     26  C   UNL     1       9.173  15.744  19.792  0.00  0.00    +0.000 A 
ENDBRANCH   8  21
BRANCH   1  28
ATOM     27  N   UNL     1       8.294  17.311  26.008  0.00  0.00    +0.000 NA
ATOM     28  C   UNL     1       8.801  16.833  24.957  0.00  0.00    +0.000 C 
ENDBRANCH   1  28
BRANCH   1  29
ATOM     29  C   UNL     1      10.671  16.874  23.104  0.00  0.00    +0.000 C 
ATOM     30  N   UNL     1      11.716  17.387  22.618  0.00  0.00    +0.000 NA
ENDBRANCH   1  29
TORSDOF 5
ENDMDL
MODEL 7
REMARK VINA RESULT:      -5.8      4.134      6.497
REMARK  Name = 
REMARK  5 active torsions:
REMARK  status: ('A' for Active; 'I' for Inactive)
REMARK    1  A    between atoms: C_2  and  C_3
REMARK    2  A    between atoms: C_3  and  C_4
REMARK    3  A    between atoms: N_9  and  C_10
REMARK    4  A    between atoms: N_17  and  C_18
REMARK    5  A    between atoms: N_24  and  C_25
REMARK                            x       y       z     vdW  Elec       q    Type
REMARK                         _______ _______ _______ _____ _____    ______ ____
ROOT
ATOM      1  C   UNL     1       4.535  15.515  22.388  0.00  0.00    +0.000 C 
ATOM      2  C   UNL     1       5.084  15.936  21.207  0.00  0.00    +0.000 C 
ATOM      3  S   UNL     1       4.298  17.223  20.301  0.00  0.00    +0.000 S 
ATOM      4  C   UNL     1       4.527  16.345  18.815  0.00  0.00    +0.000 C 
ATOM      5  N   UNL     1       3.703  16.104  17.847  0.00  0.00    +0.000 NA
ATOM      6  C   UNL     1       5.917  15.668  19.023  0.00  0.00    +0.000 C 
ATOM      7  N   UNL     1       6.544  15.391  17.917  0.00  0.00    +0.000 NA
ATOM      8  N   UNL     1       6.161  15.434  20.409  0.00  0.00    +0.000 N 
ENDROOT
BRANCH   5   9
ATOM      9  C   UNL     1       2.398  16.634  17.823  0.00  0.00    +0.000 A 
ATOM     10  C   UNL     1       2.122  17.690  16.948  0.00  0.00    +0.000 A 
ATOM     11  C   UNL     1       0.836  18.242  16.862  0.00  0.00    +0.000 A 
ATOM     12  C   UNL     1      -0.191  17.759  17.671  0.00  0.00    +0.000 A 
ATOM     13  C   UNL     1       0.053  16.691  18.523  0.00  0.00    +0.000 A 
ATOM     14  C   UNL     1       1.324  16.110  18.560  0.00  0.00    +0.000 A 
ENDBRANCH   5   9
BRANCH   7  15
ATOM     15  C   UNL     1       7.757  14.683  17.821  0.00  0.00    +0.000 A 
ATOM     16  C   UNL     1       7.830  13.304  17.606  0.00  0.00    +0.000 A 
ATOM     17  C   UNL     1       9.050  12.622  17.693  0.00  0.00    +0.000 A 
ATOM     18  C   UNL     1      10.235  13.332  17.843  0.00  0.00    +0.000 A 
ATOM     19  C   UNL     1      10.197  14.723  17.893  0.00  0.00    +0.000 A 
ATOM     20  C   UNL     1       8.963  15.390  17.895  0.00  0.00    +0.000 A 
ENDBRANCH   7  15
BRANCH   8  21
ATOM     21  C   UNL     1       7.473  15.144  20.913  0.00  0.00    +0.000 A 
ATOM     22  C   UNL     1       7.979  13.847  21.089  0.00  0.00    +0.000 A 
ATOM     23  C   UNL     1       9.251  13.626  21.653  0.00  0.00    +0.000 A 
ATOM     24  C   UNL     1      10.087  14.695  21.968  0.00  0.00    +0.000 A 
ATOM     25  C   UNL     1       9.596  15.975  21.834  0.00  0.00    +0.000 A 
ATOM     26  C   UNL     1       8.279  16.174  21.418  0.00  0.00    +0.000 A 
ENDBRANCH   8  21
BRANCH   1  28
ATOM     27  N   UNL     1       2.174  16.490  23.488  0.00  0.00    +0.000 NA
ATOM     28  C   UNL     1       3.244  16.048  22.989  0.00  0.00    +0.000 C 
ENDBRANCH   1  28
BRANCH   1  29
ATOM     29  C   UNL     1       5.360  14.489  23.147  0.00  0.00    +0.000 C 
ATOM     30  N   UNL     1       6.045  13.637  23.777  0.00  0.00    +0.000 NA
ENDBRANCH   1  29
TORSDOF 5
ENDMDL
MODEL 8
REMARK VINA RESULT:      -5.6      8.481     11.178
REMARK  Name = 
REMARK  5 active torsions:
REMARK  status: ('A' for Active; 'I' for Inactive)
REMARK    1  A    between atoms: C_2  and  C_3
REMARK    2  A    between atoms: C_3  and  C_4
REMARK    3  A    between atoms: N_9  and  C_10
REMARK    4  A    between atoms: N_17  and  C_18
REMARK    5  A    between atoms: N_24  and  C_25
REMARK                            x       y       z     vdW  Elec       q    Type
REMARK                         _______ _______ _______ _____ _____    ______ ____
ROOT
ATOM      1  C   UNL     1       0.943  14.650  19.287  0.00  0.00    +0.000 C 
ATOM      2  C   UNL     1       0.461  13.841  20.281  0.00  0.00    +0.000 C 
ATOM      3  S   UNL     1       1.364  12.401  20.734  0.00  0.00    +0.000 S 
ATOM      4  C   UNL     1      -0.105  11.469  20.784  0.00  0.00    +0.000 C 
ATOM      5  N   UNL     1      -0.376  10.302  20.295  0.00  0.00    +0.000 NA
ATOM      6  C   UNL     1      -1.144  12.489  21.345  0.00  0.00    +0.000 C 
ATOM      7  N   UNL     1      -2.156  11.938  21.950  0.00  0.00    +0.000 NA
ATOM      8  N   UNL     1      -0.778  13.824  20.997  0.00  0.00    +0.000 N 
ENDROOT
BRANCH   5   9
ATOM      9  C   UNL     1       0.600   9.511  19.656  0.00  0.00    +0.000 A 
ATOM     10  C   UNL     1       1.192   8.468  20.376  0.00  0.00    +0.000 A 
ATOM     11  C   UNL     1       2.150   7.633  19.786  0.00  0.00    +0.000 A 
ATOM     12  C   UNL     1       2.549   7.845  18.467  0.00  0.00    +0.000 A 
ATOM     13  C   UNL     1       1.953   8.854  17.724  0.00  0.00    +0.000 A 
ATOM     14  C   UNL     1       0.957   9.645  18.304  0.00  0.00    +0.000 A 
ENDBRANCH   5   9
BRANCH   7  15
ATOM     15  C   UNL     1      -3.281  12.622  22.446  0.00  0.00    +0.000 A 
ATOM     16  C   UNL     1      -4.452  12.818  21.708  0.00  0.00    +0.000 A 
ATOM     17  C   UNL     1      -5.473  13.653  22.178  0.00  0.00    +0.000 A 
ATOM     18  C   UNL     1      -5.405  14.178  23.463  0.00  0.00    +0.000 A 
ATOM     19  C   UNL     1      -4.322  13.858  24.276  0.00  0.00    +0.000 A 
ATOM     20  C   UNL     1      -3.262  13.096  23.763  0.00  0.00    +0.000 A 
ENDBRANCH   7  15
BRANCH   8  21
ATOM     21  C   UNL     1      -1.348  14.965  21.654  0.00  0.00    +0.000 A 
ATOM     22  C   UNL     1      -2.475  15.659  21.187  0.00  0.00    +0.000 A 
ATOM     23  C   UNL     1      -2.946  16.816  21.840  0.00  0.00    +0.000 A 
ATOM     24  C   UNL     1      -2.362  17.253  23.027  0.00  0.00    +0.000 A 
ATOM     25  C   UNL     1      -1.235  16.605  23.482  0.00  0.00    +0.000 A 
ATOM     26  C   UNL     1      -0.690  15.555  22.742  0.00  0.00    +0.000 A 
ENDBRANCH   8  21
BRANCH   1  28
ATOM     27  N   UNL     1       3.258  14.174  17.822  0.00  0.00    +0.000 NA
ATOM     28  C   UNL     1       2.208  14.390  18.486  0.00  0.00    +0.000 C 
ENDBRANCH   1  28
BRANCH   1  29
ATOM     29  C   UNL     1       0.151  15.928  19.063  0.00  0.00    +0.000 C 
ATOM     30  N   UNL     1      -0.506  16.989  18.877  0.00  0.00    +0.000 NA
ENDBRANCH   1  29
TORSDOF 5
ENDMDL
MODEL 9
REMARK VINA RESULT:      -5.6      1.703      6.930
REMARK  Name = 
REMARK  5 active torsions:
REMARK  status: ('A' for Active; 'I' for Inactive)
REMARK    1  A    between atoms: C_2  and  C_3
REMARK    2  A    between atoms: C_3  and  C_4
REMARK    3  A    between atoms: N_9  and  C_10
REMARK    4  A    between atoms: N_17  and  C_18
REMARK    5  A    between atoms: N_24  and  C_25
REMARK                            x       y       z     vdW  Elec       q    Type
REMARK                         _______ _______ _______ _____ _____    ______ ____
ROOT
ATOM      1  C   UNL     1       7.411  16.050  21.600  0.00  0.00    +0.000 C 
ATOM      2  C   UNL     1       8.018  15.089  22.363  0.00  0.00    +0.000 C 
ATOM      3  S   UNL     1       9.599  14.481  21.887  0.00  0.00    +0.000 S 
ATOM      4  C   UNL     1       9.092  12.847  22.212  0.00  0.00    +0.000 C 
ATOM      5  N   UNL     1       9.235  11.769  21.512  0.00  0.00    +0.000 NA
ATOM      6  C   UNL     1       8.170  13.013  23.460  0.00  0.00    +0.000 C 
ATOM      7  N   UNL     1       8.079  11.945  24.198  0.00  0.00    +0.000 NA
ATOM      8  N   UNL     1       7.563  14.304  23.470  0.00  0.00    +0.000 N 
ENDROOT
BRANCH   5   9
ATOM      9  C   UNL     1       9.958  11.750  20.302  0.00  0.00    +0.000 A 
ATOM     10  C   UNL     1      11.354  11.821  20.357  0.00  0.00    +0.000 A 
ATOM     11  C   UNL     1      12.127  11.781  19.189  0.00  0.00    +0.000 A 
ATOM     12  C   UNL     1      11.511  11.693  17.942  0.00  0.00    +0.000 A 
ATOM     13  C   UNL     1      10.129  11.590  17.865  0.00  0.00    +0.000 A 
ATOM     14  C   UNL     1       9.370  11.573  19.039  0.00  0.00    +0.000 A 
ENDBRANCH   5   9
BRANCH   7  15
ATOM     15  C   UNL     1       7.231  11.793  25.311  0.00  0.00    +0.000 A 
ATOM     16  C   UNL     1       5.975  11.184  25.246  0.00  0.00    +0.000 A 
ATOM     17  C   UNL     1       5.099  11.213  26.339  0.00  0.00    +0.000 A 
ATOM     18  C   UNL     1       5.529  11.714  27.561  0.00  0.00    +0.000 A 
ATOM     19  C   UNL     1       6.836  12.175  27.690  0.00  0.00    +0.000 A 
ATOM     20  C   UNL     1       7.675  12.224  26.567  0.00  0.00    +0.000 A 
ENDBRANCH   7  15
BRANCH   8  21
ATOM     21  C   UNL     1       6.949  14.847  24.648  0.00  0.00    +0.000 A 
ATOM     22  C   UNL     1       5.592  14.693  24.971  0.00  0.00    +0.000 A 
ATOM     23  C   UNL     1       5.034  15.309  26.108  0.00  0.00    +0.000 A 
ATOM     24  C   UNL     1       5.835  16.017  27.001  0.00  0.00    +0.000 A 
ATOM     25  C   UNL     1       7.162  16.208  26.685  0.00  0.00    +0.000 A 
ATOM     26  C   UNL     1       7.666  15.721  25.478  0.00  0.00    +0.000 A 
ENDBRANCH   8  21
BRANCH   1  28
ATOM     27  N   UNL     1       8.450  17.115  19.251  0.00  0.00    +0.000 NA
ATOM     28  C   UNL     1       7.979  16.632  20.316  0.00  0.00    +0.000 C 
ENDBRANCH   1  28
BRANCH   1  29
ATOM     29  C   UNL     1       6.110  16.591  22.169  0.00  0.00    +0.000 C 
ATOM     30  N   UNL     1       5.030  17.040  22.643  0.00  0.00    +0.000 NA
ENDBRANCH   1  29
TORSDOF 5
ENDMDL
