MODEL 1
REMARK VINA RESULT:      -8.4      0.000      0.000
REMARK  Name = 
REMARK  6 active torsions:
REMARK  status: ('A' for Active; 'I' for Inactive)
REMARK    1  A    between atoms: C_1  and  C_2
REMARK    2  A    between atoms: N_4  and  C_5
REMARK    3  A    between atoms: N_8  and  C_9
REMARK    4  A    between atoms: C_9  and  C_10
REMARK    5  A    between atoms: C_14  and  O_15
REMARK    6  A    between atoms: O_15  and  C_16
REMARK                            x       y       z     vdW  Elec       q    Type
REMARK                         _______ _______ _______ _____ _____    ______ ____
ROOT
ATOM      1  C   UNL     1       4.639   6.290  17.948  0.00  0.00    +0.000 C 
ATOM      2  C   UNL     1       3.857   5.037  18.361  0.00  0.00    +0.000 C 
ATOM      3  C   UNL     1       2.415   5.405  18.050  0.00  0.00    +0.000 C 
ATOM      4  N   UNL     1       2.313   6.839  18.381  0.00  0.00    +0.000 NA
ATOM      5  C   UNL     1       3.573   7.402  17.833  0.00  0.00    +0.000 C 
ENDROOT
BRANCH   1   9
ATOM      6  C   UNL     1       5.390   3.873  13.635  0.00  0.00    +0.000 C 
ATOM      7  C   UNL     1       5.808   4.798  14.736  0.00  0.00    +0.000 A 
ATOM      8  C   UNL     1       5.016   5.247  15.715  0.00  0.00    +0.000 A 
ATOM      9  N   UNL     1       5.474   6.035  16.754  0.00  0.00    +0.000 N 
ATOM     10  C   UNL     1       6.810   6.438  16.813  0.00  0.00    +0.000 A 
ATOM     11  O   UNL     1       7.302   7.111  17.715  0.00  0.00    +0.000 OA
ATOM     12  N   UNL     1       7.606   6.007  15.791  0.00  0.00    +0.000 N 
ATOM     13  C   UNL     1       7.235   5.191  14.762  0.00  0.00    +0.000 A 
ATOM     14  O   UNL     1       8.037   4.796  13.928  0.00  0.00    +0.000 OA
ATOM     15  H   UNL     1       8.579   6.253  15.847  0.00  0.00    +0.000 HD
ENDBRANCH   1   9
BRANCH   4  16
ATOM     16  C   UNL     1       2.216   7.026  19.845  0.00  0.00    +0.000 C 
BRANCH  16  17
ATOM     17  C   UNL     1       1.516   8.301  20.271  0.00  0.00    +0.000 A 
ATOM     18  C   UNL     1       1.173   8.518  21.612  0.00  0.00    +0.000 A 
ATOM     19  C   UNL     1       0.401   9.623  21.978  0.00  0.00    +0.000 A 
ATOM     20  C   UNL     1      -0.069  10.503  21.005  0.00  0.00    +0.000 A 
ATOM     21  C   UNL     1       0.269  10.304  19.667  0.00  0.00    +0.000 A 
ATOM     22  C   UNL     1       1.114   9.242  19.316  0.00  0.00    +0.000 A 
BRANCH  21  23
ATOM     23  O   UNL     1      -0.272  11.200  18.765  0.00  0.00    +0.000 OA
BRANCH  23  24
ATOM     24  C   UNL     1      -1.513  10.940  18.228  0.00  0.00    +0.000 A 
ATOM     25  C   UNL     1      -1.744   9.964  17.252  0.00  0.00    +0.000 A 
ATOM     26  C   UNL     1      -2.988   9.872  16.635  0.00  0.00    +0.000 A 
ATOM     27  C   UNL     1      -4.036  10.681  17.067  0.00  0.00    +0.000 A 
ATOM     28  C   UNL     1      -3.842  11.568  18.126  0.00  0.00    +0.000 A 
ATOM     29  C   UNL     1      -2.578  11.702  18.706  0.00  0.00    +0.000 A 
ENDBRANCH  23  24
ENDBRANCH  21  23
ENDBRANCH  16  17
ENDBRANCH   4  16
TORSDOF 5
ENDMDL
MODEL 2
REMARK VINA RESULT:      -8.3      2.868      8.825
REMARK  Name = 
REMARK  6 active torsions:
REMARK  status: ('A' for Active; 'I' for Inactive)
REMARK    1  A    between atoms: C_1  and  C_2
REMARK    2  A    between atoms: N_4  and  C_5
REMARK    3  A    between atoms: N_8  and  C_9
REMARK    4  A    between atoms: C_9  and  C_10
REMARK    5  A    between atoms: C_14  and  O_15
REMARK    6  A    between atoms: O_15  and  C_16
REMARK                            x       y       z     vdW  Elec       q    Type
REMARK                         _______ _______ _______ _____ _____    ______ ____
ROOT
ATOM      1  C   UNL     1       1.671   9.635  19.784  0.00  0.00    +0.000 C 
ATOM      2  C   UNL     1       1.609  10.154  18.343  0.00  0.00    +0.000 C 
ATOM      3  C   UNL     1       1.317   8.902  17.532  0.00  0.00    +0.000 C 
ATOM      4  N   UNL     1       2.073   7.831  18.209  0.00  0.00    +0.000 NA
ATOM      5  C   UNL     1       1.828   8.103  19.647  0.00  0.00    +0.000 C 
ENDROOT
BRANCH   1   9
ATOM      6  C   UNL     1      -2.455  12.434  20.163  0.00  0.00    +0.000 C 
ATOM      7  C   UNL     1      -1.399  11.533  20.723  0.00  0.00    +0.000 A 
ATOM      8  C   UNL     1      -0.479  10.878  20.008  0.00  0.00    +0.000 A 
ATOM      9  N   UNL     1       0.526  10.122  20.584  0.00  0.00    +0.000 N 
ATOM     10  C   UNL     1       0.609   9.977  21.970  0.00  0.00    +0.000 A 
ATOM     11  O   UNL     1       1.484   9.349  22.560  0.00  0.00    +0.000 OA
ATOM     12  N   UNL     1      -0.356  10.618  22.693  0.00  0.00    +0.000 N 
ATOM     13  C   UNL     1      -1.345  11.416  22.198  0.00  0.00    +0.000 A 
ATOM     14  O   UNL     1      -2.124  12.011  22.929  0.00  0.00    +0.000 OA
ATOM     15  H   UNL     1      -0.279  10.557  23.694  0.00  0.00    +0.000 HD
ENDBRANCH   1   9
BRANCH   4  16
ATOM     16  C   UNL     1       3.509   7.914  17.867  0.00  0.00    +0.000 C 
BRANCH  16  17
ATOM     17  C   UNL     1       4.111   6.621  17.358  0.00  0.00    +0.000 A 
ATOM     18  C   UNL     1       4.931   6.609  16.222  0.00  0.00    +0.000 A 
ATOM     19  C   UNL     1       5.364   5.401  15.670  0.00  0.00    +0.000 A 
ATOM     20  C   UNL     1       4.954   4.190  16.225  0.00  0.00    +0.000 A 
ATOM     21  C   UNL     1       4.142   4.186  17.359  0.00  0.00    +0.000 A 
ATOM     22  C   UNL     1       3.781   5.401  17.958  0.00  0.00    +0.000 A 
BRANCH  21  23
ATOM     23  O   UNL     1       3.750   2.943  17.819  0.00  0.00    +0.000 OA
BRANCH  23  24
ATOM     24  C   UNL     1       2.887   2.869  18.889  0.00  0.00    +0.000 A 
ATOM     25  C   UNL     1       1.497   2.979  18.771  0.00  0.00    +0.000 A 
ATOM     26  C   UNL     1       0.702   3.065  19.909  0.00  0.00    +0.000 A 
ATOM     27  C   UNL     1       1.280   2.932  21.169  0.00  0.00    +0.000 A 
ATOM     28  C   UNL     1       2.651   2.697  21.286  0.00  0.00    +0.000 A 
ATOM     29  C   UNL     1       3.457   2.670  20.145  0.00  0.00    +0.000 A 
ENDBRANCH  23  24
ENDBRANCH  21  23
ENDBRANCH  16  17
ENDBRANCH   4  16
TORSDOF 5
ENDMDL
MODEL 3
REMARK VINA RESULT:      -8.0      2.988      8.754
REMARK  Name = 
REMARK  6 active torsions:
REMARK  status: ('A' for Active; 'I' for Inactive)
REMARK    1  A    between atoms: C_1  and  C_2
REMARK    2  A    between atoms: N_4  and  C_5
REMARK    3  A    between atoms: N_8  and  C_9
REMARK    4  A    between atoms: C_9  and  C_10
REMARK    5  A    between atoms: C_14  and  O_15
REMARK    6  A    between atoms: O_15  and  C_16
REMARK                            x       y       z     vdW  Elec       q    Type
REMARK                         _______ _______ _______ _____ _____    ______ ____
ROOT
ATOM      1  C   UNL     1       0.140   9.712  19.669  0.00  0.00    +0.000 C 
ATOM      2  C   UNL     1       0.018   9.650  21.196  0.00  0.00    +0.000 C 
ATOM      3  C   UNL     1       1.387   9.158  21.637  0.00  0.00    +0.000 C 
ATOM      4  N   UNL     1       1.793   8.194  20.596  0.00  0.00    +0.000 NA
ATOM      5  C   UNL     1       1.393   8.870  19.337  0.00  0.00    +0.000 C 
ENDROOT
BRANCH   1   9
ATOM      6  C   UNL     1       2.318  14.203  19.347  0.00  0.00    +0.000 C 
ATOM      7  C   UNL     1       1.184  13.251  19.123  0.00  0.00    +0.000 A 
ATOM      8  C   UNL     1       1.226  11.931  19.328  0.00  0.00    +0.000 A 
ATOM      9  N   UNL     1       0.124  11.110  19.182  0.00  0.00    +0.000 N 
ATOM     10  C   UNL     1      -1.107  11.627  18.773  0.00  0.00    +0.000 A 
ATOM     11  O   UNL     1      -2.139  10.972  18.648  0.00  0.00    +0.000 OA
ATOM     12  N   UNL     1      -1.135  12.971  18.530  0.00  0.00    +0.000 N 
ATOM     13  C   UNL     1      -0.104  13.847  18.697  0.00  0.00    +0.000 A 
ATOM     14  O   UNL     1      -0.241  15.049  18.524  0.00  0.00    +0.000 OA
ATOM     15  H   UNL     1      -2.027  13.361  18.278  0.00  0.00    +0.000 HD
ENDBRANCH   1   9
BRANCH   4  16
ATOM     16  C   UNL     1       1.091   6.907  20.780  0.00  0.00    +0.000 C 
BRANCH  16  17
ATOM     17  C   UNL     1       1.864   5.694  20.302  0.00  0.00    +0.000 A 
ATOM     18  C   UNL     1       1.835   4.494  21.025  0.00  0.00    +0.000 A 
ATOM     19  C   UNL     1       2.662   3.427  20.664  0.00  0.00    +0.000 A 
ATOM     20  C   UNL     1       3.552   3.560  19.600  0.00  0.00    +0.000 A 
ATOM     21  C   UNL     1       3.588   4.745  18.868  0.00  0.00    +0.000 A 
ATOM     22  C   UNL     1       2.697   5.781  19.182  0.00  0.00    +0.000 A 
BRANCH  21  23
ATOM     23  O   UNL     1       4.528   4.805  17.856  0.00  0.00    +0.000 OA
BRANCH  23  24
ATOM     24  C   UNL     1       5.620   5.630  18.008  0.00  0.00    +0.000 A 
ATOM     25  C   UNL     1       5.823   6.791  17.253  0.00  0.00    +0.000 A 
ATOM     26  C   UNL     1       7.027   7.482  17.342  0.00  0.00    +0.000 A 
ATOM     27  C   UNL     1       7.990   7.079  18.264  0.00  0.00    +0.000 A 
ATOM     28  C   UNL     1       7.738   5.996  19.108  0.00  0.00    +0.000 A 
ATOM     29  C   UNL     1       6.554   5.267  18.977  0.00  0.00    +0.000 A 
ENDBRANCH  23  24
ENDBRANCH  21  23
ENDBRANCH  16  17
ENDBRANCH   4  16
TORSDOF 5
ENDMDL
MODEL 4
REMARK VINA RESULT:      -7.9      2.886      8.823
REMARK  Name = 
REMARK  6 active torsions:
REMARK  status: ('A' for Active; 'I' for Inactive)
REMARK    1  A    between atoms: C_1  and  C_2
REMARK    2  A    between atoms: N_4  and  C_5
REMARK    3  A    between atoms: N_8  and  C_9
REMARK    4  A    between atoms: C_9  and  C_10
REMARK    5  A    between atoms: C_14  and  O_15
REMARK    6  A    between atoms: O_15  and  C_16
REMARK                            x       y       z     vdW  Elec       q    Type
REMARK                         _______ _______ _______ _____ _____    ______ ____
ROOT
ATOM      1  C   UNL     1       0.110   9.694  19.707  0.00  0.00    +0.000 C 
ATOM      2  C   UNL     1       0.003   9.644  21.236  0.00  0.00    +0.000 C 
ATOM      3  C   UNL     1       1.365   9.124  21.666  0.00  0.00    +0.000 C 
ATOM      4  N   UNL     1       1.739   8.146  20.627  0.00  0.00    +0.000 NA
ATOM      5  C   UNL     1       1.341   8.823  19.368  0.00  0.00    +0.000 C 
ENDROOT
BRANCH   1   9
ATOM      6  C   UNL     1       2.397  14.124  19.309  0.00  0.00    +0.000 C 
ATOM      7  C   UNL     1       1.233  13.201  19.117  0.00  0.00    +0.000 A 
ATOM      8  C   UNL     1       1.246  11.882  19.328  0.00  0.00    +0.000 A 
ATOM      9  N   UNL     1       0.119  11.089  19.213  0.00  0.00    +0.000 N 
ATOM     10  C   UNL     1      -1.107  11.636  18.828  0.00  0.00    +0.000 A 
ATOM     11  O   UNL     1      -2.158  11.007  18.731  0.00  0.00    +0.000 OA
ATOM     12  N   UNL     1      -1.105  12.978  18.577  0.00  0.00    +0.000 N 
ATOM     13  C   UNL     1      -0.047  13.828  18.716  0.00  0.00    +0.000 A 
ATOM     14  O   UNL     1      -0.157  15.033  18.539  0.00  0.00    +0.000 OA
ATOM     15  H   UNL     1      -1.992  13.390  18.344  0.00  0.00    +0.000 HD
ENDBRANCH   1   9
BRANCH   4  16
ATOM     16  C   UNL     1       1.011   6.875  20.825  0.00  0.00    +0.000 C 
BRANCH  16  17
ATOM     17  C   UNL     1       1.771   5.639  20.388  0.00  0.00    +0.000 A 
ATOM     18  C   UNL     1       1.216   4.362  20.543  0.00  0.00    +0.000 A 
ATOM     19  C   UNL     1       1.974   3.220  20.275  0.00  0.00    +0.000 A 
ATOM     20  C   UNL     1       3.307   3.339  19.885  0.00  0.00    +0.000 A 
ATOM     21  C   UNL     1       3.872   4.603  19.721  0.00  0.00    +0.000 A 
ATOM     22  C   UNL     1       3.081   5.745  19.909  0.00  0.00    +0.000 A 
BRANCH  21  23
ATOM     23  O   UNL     1       5.209   4.629  19.372  0.00  0.00    +0.000 OA
BRANCH  23  24
ATOM     24  C   UNL     1       5.550   4.605  18.038  0.00  0.00    +0.000 A 
ATOM     25  C   UNL     1       4.623   4.424  17.006  0.00  0.00    +0.000 A 
ATOM     26  C   UNL     1       5.060   4.243  15.697  0.00  0.00    +0.000 A 
ATOM     27  C   UNL     1       6.416   4.350  15.399  0.00  0.00    +0.000 A 
ATOM     28  C   UNL     1       7.331   4.655  16.408  0.00  0.00    +0.000 A 
ATOM     29  C   UNL     1       6.898   4.779  17.731  0.00  0.00    +0.000 A 
ENDBRANCH  23  24
ENDBRANCH  21  23
ENDBRANCH  16  17
ENDBRANCH   4  16
TORSDOF 5
ENDMDL
MODEL 5
REMARK VINA RESULT:      -7.8      1.234      1.573
REMARK  Name = 
REMARK  6 active torsions:
REMARK  status: ('A' for Active; 'I' for Inactive)
REMARK    1  A    between atoms: C_1  and  C_2
REMARK    2  A    between atoms: N_4  and  C_5
REMARK    3  A    between atoms: N_8  and  C_9
REMARK    4  A    between atoms: C_9  and  C_10
REMARK    5  A    between atoms: C_14  and  O_15
REMARK    6  A    between atoms: O_15  and  C_16
REMARK                            x       y       z     vdW  Elec       q    Type
REMARK                         _______ _______ _______ _____ _____    ______ ____
ROOT
ATOM      1  C   UNL     1       4.243   6.090  19.332  0.00  0.00    +0.000 C 
ATOM      2  C   UNL     1       3.492   4.843  19.815  0.00  0.00    +0.000 C 
ATOM      3  C   UNL     1       2.081   5.059  19.291  0.00  0.00    +0.000 C 
ATOM      4  N   UNL     1       1.852   6.511  19.413  0.00  0.00    +0.000 NA
ATOM      5  C   UNL     1       3.134   7.095  18.945  0.00  0.00    +0.000 C 
ENDROOT
BRANCH   1   9
ATOM      6  C   UNL     1       5.286   4.841  14.603  0.00  0.00    +0.000 C 
ATOM      7  C   UNL     1       5.662   5.091  16.031  0.00  0.00    +0.000 A 
ATOM      8  C   UNL     1       4.863   5.619  16.963  0.00  0.00    +0.000 A 
ATOM      9  N   UNL     1       5.235   5.752  18.288  0.00  0.00    +0.000 N 
ATOM     10  C   UNL     1       6.505   5.363  18.719  0.00  0.00    +0.000 A 
ATOM     11  O   UNL     1       6.902   5.420  19.880  0.00  0.00    +0.000 OA
ATOM     12  N   UNL     1       7.330   4.858  17.755  0.00  0.00    +0.000 N 
ATOM     13  C   UNL     1       7.016   4.654  16.443  0.00  0.00    +0.000 A 
ATOM     14  O   UNL     1       7.797   4.127  15.665  0.00  0.00    +0.000 OA
ATOM     15  H   UNL     1       8.231   4.533  18.062  0.00  0.00    +0.000 HD
ENDBRANCH   1   9
BRANCH   4  16
ATOM     16  C   UNL     1       1.561   6.872  20.817  0.00  0.00    +0.000 C 
BRANCH  16  17
ATOM     17  C   UNL     1       1.024   8.277  21.006  0.00  0.00    +0.000 A 
ATOM     18  C   UNL     1       0.602   8.720  22.267  0.00  0.00    +0.000 A 
ATOM     19  C   UNL     1      -0.025   9.960  22.410  0.00  0.00    +0.000 A 
ATOM     20  C   UNL     1      -0.272  10.754  21.292  0.00  0.00    +0.000 A 
ATOM     21  C   UNL     1       0.147  10.329  20.032  0.00  0.00    +0.000 A 
ATOM     22  C   UNL     1       0.852   9.124  19.906  0.00  0.00    +0.000 A 
BRANCH  21  23
ATOM     23  O   UNL     1      -0.174  11.159  18.975  0.00  0.00    +0.000 OA
BRANCH  23  24
ATOM     24  C   UNL     1      -1.412  11.040  18.384  0.00  0.00    +0.000 A 
ATOM     25  C   UNL     1      -2.497  11.869  18.689  0.00  0.00    +0.000 A 
ATOM     26  C   UNL     1      -3.760  11.584  18.180  0.00  0.00    +0.000 A 
ATOM     27  C   UNL     1      -3.923  10.534  17.279  0.00  0.00    +0.000 A 
ATOM     28  C   UNL     1      -2.818   9.783  16.876  0.00  0.00    +0.000 A 
ATOM     29  C   UNL     1      -1.561  10.033  17.432  0.00  0.00    +0.000 A 
ENDBRANCH  23  24
ENDBRANCH  21  23
ENDBRANCH  16  17
ENDBRANCH   4  16
TORSDOF 5
ENDMDL
MODEL 6
REMARK VINA RESULT:      -7.8      2.639      8.561
REMARK  Name = 
REMARK  6 active torsions:
REMARK  status: ('A' for Active; 'I' for Inactive)
REMARK    1  A    between atoms: C_1  and  C_2
REMARK    2  A    between atoms: N_4  and  C_5
REMARK    3  A    between atoms: N_8  and  C_9
REMARK    4  A    between atoms: C_9  and  C_10
REMARK    5  A    between atoms: C_14  and  O_15
REMARK    6  A    between atoms: O_15  and  C_16
REMARK                            x       y       z     vdW  Elec       q    Type
REMARK                         _______ _______ _______ _____ _____    ______ ____
ROOT
ATOM      1  C   UNL     1       2.808   6.592  18.731  0.00  0.00    +0.000 C 
ATOM      2  C   UNL     1       1.813   5.586  18.141  0.00  0.00    +0.000 C 
ATOM      3  C   UNL     1       1.848   4.435  19.132  0.00  0.00    +0.000 C 
ATOM      4  N   UNL     1       3.255   4.357  19.568  0.00  0.00    +0.000 NA
ATOM      5  C   UNL     1       3.628   5.780  19.759  0.00  0.00    +0.000 C 
ENDROOT
BRANCH   1   9
ATOM      6  C   UNL     1      -0.024   8.843  22.183  0.00  0.00    +0.000 C 
ATOM      7  C   UNL     1       0.708   8.803  20.878  0.00  0.00    +0.000 A 
ATOM      8  C   UNL     1       1.533   7.831  20.481  0.00  0.00    +0.000 A 
ATOM      9  N   UNL     1       2.120   7.804  19.229  0.00  0.00    +0.000 N 
ATOM     10  C   UNL     1       1.900   8.833  18.311  0.00  0.00    +0.000 A 
ATOM     11  O   UNL     1       2.358   8.870  17.172  0.00  0.00    +0.000 OA
ATOM     12  N   UNL     1       1.084   9.843  18.736  0.00  0.00    +0.000 N 
ATOM     13  C   UNL     1       0.436   9.912  19.934  0.00  0.00    +0.000 A 
ATOM     14  O   UNL     1      -0.335  10.822  20.201  0.00  0.00    +0.000 OA
ATOM     15  H   UNL     1       0.883  10.566  18.067  0.00  0.00    +0.000 HD
ENDBRANCH   1   9
BRANCH   4  16
ATOM     16  C   UNL     1       4.083   3.703  18.532  0.00  0.00    +0.000 C 
BRANCH  16  17
ATOM     17  C   UNL     1       5.397   4.400  18.244  0.00  0.00    +0.000 A 
ATOM     18  C   UNL     1       6.196   4.885  19.287  0.00  0.00    +0.000 A 
ATOM     19  C   UNL     1       7.330   5.653  19.015  0.00  0.00    +0.000 A 
ATOM     20  C   UNL     1       7.660   5.976  17.700  0.00  0.00    +0.000 A 
ATOM     21  C   UNL     1       6.878   5.495  16.651  0.00  0.00    +0.000 A 
ATOM     22  C   UNL     1       5.790   4.655  16.926  0.00  0.00    +0.000 A 
BRANCH  21  23
ATOM     23  O   UNL     1       7.253   5.896  15.382  0.00  0.00    +0.000 OA
BRANCH  23  24
ATOM     24  C   UNL     1       6.978   5.072  14.314  0.00  0.00    +0.000 A 
ATOM     25  C   UNL     1       7.772   5.006  13.164  0.00  0.00    +0.000 A 
ATOM     26  C   UNL     1       7.343   4.279  12.058  0.00  0.00    +0.000 A 
ATOM     27  C   UNL     1       6.173   3.528  12.135  0.00  0.00    +0.000 A 
ATOM     28  C   UNL     1       5.444   3.491  13.324  0.00  0.00    +0.000 A 
ATOM     29  C   UNL     1       5.844   4.268  14.415  0.00  0.00    +0.000 A 
ENDBRANCH  23  24
ENDBRANCH  21  23
ENDBRANCH  16  17
ENDBRANCH   4  16
TORSDOF 5
ENDMDL
MODEL 7
REMARK VINA RESULT:      -7.7      1.752      2.425
REMARK  Name = 
REMARK  6 active torsions:
REMARK  status: ('A' for Active; 'I' for Inactive)
REMARK    1  A    between atoms: C_1  and  C_2
REMARK    2  A    between atoms: N_4  and  C_5
REMARK    3  A    between atoms: N_8  and  C_9
REMARK    4  A    between atoms: C_9  and  C_10
REMARK    5  A    between atoms: C_14  and  O_15
REMARK    6  A    between atoms: O_15  and  C_16
REMARK                            x       y       z     vdW  Elec       q    Type
REMARK                         _______ _______ _______ _____ _____    ______ ____
ROOT
ATOM      1  C   UNL     1       4.633   6.326  18.012  0.00  0.00    +0.000 C 
ATOM      2  C   UNL     1       3.878   5.065  18.450  0.00  0.00    +0.000 C 
ATOM      3  C   UNL     1       2.427   5.402  18.144  0.00  0.00    +0.000 C 
ATOM      4  N   UNL     1       2.301   6.839  18.454  0.00  0.00    +0.000 NA
ATOM      5  C   UNL     1       3.545   7.416  17.888  0.00  0.00    +0.000 C 
ENDROOT
BRANCH   1   9
ATOM      6  C   UNL     1       5.371   3.896  13.704  0.00  0.00    +0.000 C 
ATOM      7  C   UNL     1       5.791   4.826  14.800  0.00  0.00    +0.000 A 
ATOM      8  C   UNL     1       5.002   5.276  15.780  0.00  0.00    +0.000 A 
ATOM      9  N   UNL     1       5.464   6.069  16.815  0.00  0.00    +0.000 N 
ATOM     10  C   UNL     1       6.799   6.473  16.868  0.00  0.00    +0.000 A 
ATOM     11  O   UNL     1       7.294   7.151  17.766  0.00  0.00    +0.000 OA
ATOM     12  N   UNL     1       7.592   6.041  15.844  0.00  0.00    +0.000 N 
ATOM     13  C   UNL     1       7.218   5.221  14.820  0.00  0.00    +0.000 A 
ATOM     14  O   UNL     1       8.017   4.824  13.984  0.00  0.00    +0.000 OA
ATOM     15  H   UNL     1       8.565   6.289  15.896  0.00  0.00    +0.000 HD
ENDBRANCH   1   9
BRANCH   4  16
ATOM     16  C   UNL     1       2.210   7.047  19.915  0.00  0.00    +0.000 C 
BRANCH  16  17
ATOM     17  C   UNL     1       1.485   8.311  20.327  0.00  0.00    +0.000 A 
ATOM     18  C   UNL     1       1.058   8.497  21.649  0.00  0.00    +0.000 A 
ATOM     19  C   UNL     1       0.264   9.593  21.992  0.00  0.00    +0.000 A 
ATOM     20  C   UNL     1      -0.143  10.498  21.013  0.00  0.00    +0.000 A 
ATOM     21  C   UNL     1       0.279  10.330  19.695  0.00  0.00    +0.000 A 
ATOM     22  C   UNL     1       1.144   9.276  19.373  0.00  0.00    +0.000 A 
BRANCH  21  23
ATOM     23  O   UNL     1      -0.204  11.250  18.783  0.00  0.00    +0.000 OA
BRANCH  23  24
ATOM     24  C   UNL     1       0.410  12.478  18.685  0.00  0.00    +0.000 A 
ATOM     25  C   UNL     1       1.779  12.642  18.449  0.00  0.00    +0.000 A 
ATOM     26  C   UNL     1       2.358  13.904  18.531  0.00  0.00    +0.000 A 
ATOM     27  C   UNL     1       1.554  15.021  18.742  0.00  0.00    +0.000 A 
ATOM     28  C   UNL     1       0.170  14.875  18.852  0.00  0.00    +0.000 A 
ATOM     29  C   UNL     1      -0.403  13.601  18.829  0.00  0.00    +0.000 A 
ENDBRANCH  23  24
ENDBRANCH  21  23
ENDBRANCH  16  17
ENDBRANCH   4  16
TORSDOF 5
ENDMDL
MODEL 8
REMARK VINA RESULT:      -7.6      2.940      9.293
REMARK  Name = 
REMARK  6 active torsions:
REMARK  status: ('A' for Active; 'I' for Inactive)
REMARK    1  A    between atoms: C_1  and  C_2
REMARK    2  A    between atoms: N_4  and  C_5
REMARK    3  A    between atoms: N_8  and  C_9
REMARK    4  A    between atoms: C_9  and  C_10
REMARK    5  A    between atoms: C_14  and  O_15
REMARK    6  A    between atoms: O_15  and  C_16
REMARK                            x       y       z     vdW  Elec       q    Type
REMARK                         _______ _______ _______ _____ _____    ______ ____
ROOT
ATOM      1  C   UNL     1      -0.366   9.962  20.648  0.00  0.00    +0.000 C 
ATOM      2  C   UNL     1      -0.216   9.567  22.122  0.00  0.00    +0.000 C 
ATOM      3  C   UNL     1       1.234   9.119  22.218  0.00  0.00    +0.000 C 
ATOM      4  N   UNL     1       1.504   8.440  20.937  0.00  0.00    +0.000 NA
ATOM      5  C   UNL     1       0.853   9.328  19.942  0.00  0.00    +0.000 C 
ENDROOT
BRANCH   1   9
ATOM      6  C   UNL     1      -0.352  14.547  22.645  0.00  0.00    +0.000 C 
ATOM      7  C   UNL     1      -0.587  13.580  21.526  0.00  0.00    +0.000 A 
ATOM      8  C   UNL     1      -0.228  12.293  21.525  0.00  0.00    +0.000 A 
ATOM      9  N   UNL     1      -0.544  11.423  20.497  0.00  0.00    +0.000 N 
ATOM     10  C   UNL     1      -1.238  11.867  19.370  0.00  0.00    +0.000 A 
ATOM     11  O   UNL     1      -1.581  11.155  18.430  0.00  0.00    +0.000 OA
ATOM     12  N   UNL     1      -1.569  13.192  19.360  0.00  0.00    +0.000 N 
ATOM     13  C   UNL     1      -1.334  14.094  20.356  0.00  0.00    +0.000 A 
ATOM     14  O   UNL     1      -1.733  15.248  20.291  0.00  0.00    +0.000 OA
ATOM     15  H   UNL     1      -2.109  13.512  18.574  0.00  0.00    +0.000 HD
ENDBRANCH   1   9
BRANCH   4  16
ATOM     16  C   UNL     1       0.916   7.084  20.935  0.00  0.00    +0.000 C 
BRANCH  16  17
ATOM     17  C   UNL     1       1.820   6.006  20.373  0.00  0.00    +0.000 A 
ATOM     18  C   UNL     1       1.472   4.653  20.471  0.00  0.00    +0.000 A 
ATOM     19  C   UNL     1       2.372   3.657  20.084  0.00  0.00    +0.000 A 
ATOM     20  C   UNL     1       3.644   4.001  19.628  0.00  0.00    +0.000 A 
ATOM     21  C   UNL     1       4.003   5.344  19.519  0.00  0.00    +0.000 A 
ATOM     22  C   UNL     1       3.065   6.339  19.828  0.00  0.00    +0.000 A 
BRANCH  21  23
ATOM     23  O   UNL     1       5.295   5.594  19.096  0.00  0.00    +0.000 OA
BRANCH  23  24
ATOM     24  C   UNL     1       5.623   5.360  17.780  0.00  0.00    +0.000 A 
ATOM     25  C   UNL     1       6.637   4.483  17.379  0.00  0.00    +0.000 A 
ATOM     26  C   UNL     1       7.026   4.425  16.045  0.00  0.00    +0.000 A 
ATOM     27  C   UNL     1       6.331   5.161  15.089  0.00  0.00    +0.000 A 
ATOM     28  C   UNL     1       5.237   5.941  15.468  0.00  0.00    +0.000 A 
ATOM     29  C   UNL     1       4.885   6.045  16.816  0.00  0.00    +0.000 A 
ENDBRANCH  23  24
ENDBRANCH  21  23
ENDBRANCH  16  17
ENDBRANCH   4  16
TORSDOF 5
ENDMDL
MODEL 9
REMARK VINA RESULT:      -7.6      2.790      9.045
REMARK  Name = 
REMARK  6 active torsions:
REMARK  status: ('A' for Active; 'I' for Inactive)
REMARK    1  A    between atoms: C_1  and  C_2
REMARK    2  A    between atoms: N_4  and  C_5
REMARK    3  A    between atoms: N_8  and  C_9
REMARK    4  A    between atoms: C_9  and  C_10
REMARK    5  A    between atoms: C_14  and  O_15
REMARK    6  A    between atoms: O_15  and  C_16
REMARK                            x       y       z     vdW  Elec       q    Type
REMARK                         _______ _______ _______ _____ _____    ______ ____
ROOT
ATOM      1  C   UNL     1       2.609   6.508  18.304  0.00  0.00    +0.000 C 
ATOM      2  C   UNL     1       1.566   5.390  18.422  0.00  0.00    +0.000 C 
ATOM      3  C   UNL     1       2.235   4.381  19.341  0.00  0.00    +0.000 C 
ATOM      4  N   UNL     1       3.662   4.423  18.969  0.00  0.00    +0.000 NA
ATOM      5  C   UNL     1       3.926   5.874  18.808  0.00  0.00    +0.000 C 
ENDROOT
BRANCH   1   9
ATOM      6  C   UNL     1       0.528   8.751  22.259  0.00  0.00    +0.000 C 
ATOM      7  C   UNL     1       1.094   8.747  20.873  0.00  0.00    +0.000 A 
ATOM      8  C   UNL     1       1.726   7.720  20.296  0.00  0.00    +0.000 A 
ATOM      9  N   UNL     1       2.157   7.742  18.983  0.00  0.00    +0.000 N 
ATOM     10  C   UNL     1       1.978   8.877  18.188  0.00  0.00    +0.000 A 
ATOM     11  O   UNL     1       2.304   8.967  17.007  0.00  0.00    +0.000 OA
ATOM     12  N   UNL     1       1.364   9.935  18.794  0.00  0.00    +0.000 N 
ATOM     13  C   UNL     1       0.872   9.968  20.066  0.00  0.00    +0.000 A 
ATOM     14  O   UNL     1       0.270  10.939  20.502  0.00  0.00    +0.000 OA
ATOM     15  H   UNL     1       1.190  10.741  18.218  0.00  0.00    +0.000 HD
ENDBRANCH   1   9
BRANCH   4  16
ATOM     16  C   UNL     1       3.892   3.676  17.714  0.00  0.00    +0.000 C 
BRANCH  16  17
ATOM     17  C   UNL     1       5.199   4.002  17.019  0.00  0.00    +0.000 A 
ATOM     18  C   UNL     1       6.361   4.259  17.758  0.00  0.00    +0.000 A 
ATOM     19  C   UNL     1       7.524   4.700  17.123  0.00  0.00    +0.000 A 
ATOM     20  C   UNL     1       7.530   4.924  15.748  0.00  0.00    +0.000 A 
ATOM     21  C   UNL     1       6.383   4.667  14.998  0.00  0.00    +0.000 A 
ATOM     22  C   UNL     1       5.246   4.143  15.628  0.00  0.00    +0.000 A 
BRANCH  21  23
ATOM     23  O   UNL     1       6.464   4.954  13.648  0.00  0.00    +0.000 OA
BRANCH  23  24
ATOM     24  C   UNL     1       6.196   3.957  12.737  0.00  0.00    +0.000 A 
ATOM     25  C   UNL     1       4.906   3.638  12.297  0.00  0.00    +0.000 A 
ATOM     26  C   UNL     1       4.694   2.512  11.507  0.00  0.00    +0.000 A 
ATOM     27  C   UNL     1       5.782   1.764  11.064  0.00  0.00    +0.000 A 
ATOM     28  C   UNL     1       7.080   2.153  11.397  0.00  0.00    +0.000 A 
ATOM     29  C   UNL     1       7.288   3.249  12.239  0.00  0.00    +0.000 A 
ENDBRANCH  23  24
ENDBRANCH  21  23
ENDBRANCH  16  17
ENDBRANCH   4  16
TORSDOF 5
ENDMDL
