MODEL 1
REMARK VINA RESULT:      -6.8      0.000      0.000
REMARK  Name = 
REMARK  5 active torsions:
REMARK  status: ('A' for Active; 'I' for Inactive)
REMARK    1  A    between atoms: C_1  and  N_2
REMARK    2  A    between atoms: C_6  and  C_7
REMARK    3  A    between atoms: C_7  and  N_8
REMARK    4  A    between atoms: C_9  and  C_11
REMARK    5  A    between atoms: C_11  and  C_12
REMARK                            x       y       z     vdW  Elec       q    Type
REMARK                         _______ _______ _______ _____ _____    ______ ____
ROOT
ATOM      1  N   UNL     1       4.452   5.999  17.989  0.00  0.00    +0.000 N 
ATOM      2  C   UNL     1       3.625   7.081  17.628  0.00  0.00    +0.000 C 
ATOM      3  O   UNL     1       3.903   7.903  16.753  0.00  0.00    +0.000 OA
ATOM      4  C   UNL     1       5.312   5.574  16.964  0.00  0.00    +0.000 A 
ATOM      5  N   UNL     1       5.086   5.689  15.677  0.00  0.00    +0.000 NA
ATOM      6  C   UNL     1       6.115   5.120  14.957  0.00  0.00    +0.000 A 
ATOM      7  C   UNL     1       7.139   4.591  15.708  0.00  0.00    +0.000 A 
ATOM      8  S   UNL     1       6.786   4.789  17.371  0.00  0.00    +0.000 S 
ENDROOT
BRANCH   1   9
ATOM      9  C   UNL     1       4.380   5.302  19.297  0.00  0.00    +0.000 C 
BRANCH   9  15
ATOM     10  C   UNL     1       1.309   2.815  21.349  0.00  0.00    +0.000 C 
ATOM     11  N   UNL     1       2.321   2.224  20.474  0.00  0.00    +0.000 NA
ATOM     12  C   UNL     1       1.763   1.886  19.147  0.00  0.00    +0.000 C 
ATOM     13  C   UNL     1       1.561   3.096  18.217  0.00  0.00    +0.000 C 
ATOM     14  O   UNL     1       2.746   3.897  18.121  0.00  0.00    +0.000 OA
ATOM     15  C   UNL     1       3.159   4.362  19.418  0.00  0.00    +0.000 C 
ATOM     16  C   UNL     1       3.483   3.124  20.290  0.00  0.00    +0.000 C 
ENDBRANCH   9  15
ENDBRANCH   1   9
BRANCH   2  17
ATOM     17  C   UNL     1       2.339   7.255  18.431  0.00  0.00    +0.000 C 
BRANCH  17  18
ATOM     18  C   UNL     1       2.008   8.709  18.812  0.00  0.00    +0.000 C 
ATOM     19  C   UNL     1       1.028   9.439  17.891  0.00  0.00    +0.000 C 
ATOM     20  C   UNL     1       0.543  10.607  18.742  0.00  0.00    +0.000 C 
ATOM     21  C   UNL     1       0.506  10.081  20.172  0.00  0.00    +0.000 C 
ATOM     22  C   UNL     1       1.296   8.775  20.168  0.00  0.00    +0.000 C 
ENDBRANCH  17  18
ENDBRANCH   2  17
TORSDOF 4
ENDMDL
MODEL 2
REMARK VINA RESULT:      -6.8      1.340      1.720
REMARK  Name = 
REMARK  5 active torsions:
REMARK  status: ('A' for Active; 'I' for Inactive)
REMARK    1  A    between atoms: C_1  and  N_2
REMARK    2  A    between atoms: C_6  and  C_7
REMARK    3  A    between atoms: C_7  and  N_8
REMARK    4  A    between atoms: C_9  and  C_11
REMARK    5  A    between atoms: C_11  and  C_12
REMARK                            x       y       z     vdW  Elec       q    Type
REMARK                         _______ _______ _______ _____ _____    ______ ____
ROOT
ATOM      1  N   UNL     1       3.700   6.521  18.496  0.00  0.00    +0.000 N 
ATOM      2  C   UNL     1       3.148   7.583  17.754  0.00  0.00    +0.000 C 
ATOM      3  O   UNL     1       3.792   8.298  16.983  0.00  0.00    +0.000 OA
ATOM      4  C   UNL     1       4.849   5.960  17.917  0.00  0.00    +0.000 A 
ATOM      5  N   UNL     1       5.132   5.943  16.637  0.00  0.00    +0.000 NA
ATOM      6  C   UNL     1       6.314   5.267  16.416  0.00  0.00    +0.000 A 
ATOM      7  C   UNL     1       6.940   4.789  17.544  0.00  0.00    +0.000 A 
ATOM      8  S   UNL     1       6.002   5.176  18.922  0.00  0.00    +0.000 S 
ENDROOT
BRANCH   1   9
ATOM      9  C   UNL     1       3.091   5.971  19.732  0.00  0.00    +0.000 C 
BRANCH   9  15
ATOM     10  C   UNL     1       2.547   2.025  17.742  0.00  0.00    +0.000 C 
ATOM     11  N   UNL     1       1.416   2.908  18.027  0.00  0.00    +0.000 NA
ATOM     12  C   UNL     1       0.659   2.456  19.215  0.00  0.00    +0.000 C 
ATOM     13  C   UNL     1       1.338   2.774  20.559  0.00  0.00    +0.000 C 
ATOM     14  O   UNL     1       1.721   4.152  20.649  0.00  0.00    +0.000 OA
ATOM     15  C   UNL     1       2.608   4.511  19.575  0.00  0.00    +0.000 C 
ATOM     16  C   UNL     1       1.851   4.307  18.240  0.00  0.00    +0.000 C 
ENDBRANCH   9  15
ENDBRANCH   1   9
BRANCH   2  17
ATOM     17  C   UNL     1       1.670   7.885  17.987  0.00  0.00    +0.000 C 
BRANCH  17  18
ATOM     18  C   UNL     1       1.385   9.243  18.652  0.00  0.00    +0.000 C 
ATOM     19  C   UNL     1       0.145   9.988  18.155  0.00  0.00    +0.000 C 
ATOM     20  C   UNL     1      -0.138  10.992  19.268  0.00  0.00    +0.000 C 
ATOM     21  C   UNL     1       0.266  10.291  20.559  0.00  0.00    +0.000 C 
ATOM     22  C   UNL     1       1.091   9.074  20.147  0.00  0.00    +0.000 C 
ENDBRANCH  17  18
ENDBRANCH   2  17
TORSDOF 4
ENDMDL
MODEL 3
REMARK VINA RESULT:      -6.7      3.324      5.600
REMARK  Name = 
REMARK  5 active torsions:
REMARK  status: ('A' for Active; 'I' for Inactive)
REMARK    1  A    between atoms: C_1  and  N_2
REMARK    2  A    between atoms: C_6  and  C_7
REMARK    3  A    between atoms: C_7  and  N_8
REMARK    4  A    between atoms: C_9  and  C_11
REMARK    5  A    between atoms: C_11  and  C_12
REMARK                            x       y       z     vdW  Elec       q    Type
REMARK                         _______ _______ _______ _____ _____    ______ ____
ROOT
ATOM      1  N   UNL     1       5.461   4.626  16.706  0.00  0.00    +0.000 N 
ATOM      2  C   UNL     1       5.304   5.345  15.505  0.00  0.00    +0.000 C 
ATOM      3  O   UNL     1       5.480   6.560  15.398  0.00  0.00    +0.000 OA
ATOM      4  C   UNL     1       6.345   5.225  17.617  0.00  0.00    +0.000 A 
ATOM      5  N   UNL     1       7.353   6.004  17.306  0.00  0.00    +0.000 NA
ATOM      6  C   UNL     1       8.041   6.374  18.443  0.00  0.00    +0.000 A 
ATOM      7  C   UNL     1       7.533   5.887  19.625  0.00  0.00    +0.000 A 
ATOM      8  S   UNL     1       6.164   4.912  19.297  0.00  0.00    +0.000 S 
ENDROOT
BRANCH   1   9
ATOM      9  C   UNL     1       4.826   3.311  16.972  0.00  0.00    +0.000 C 
BRANCH   9  15
ATOM     10  C   UNL     1       2.420   3.083  20.712  0.00  0.00    +0.000 C 
ATOM     11  N   UNL     1       2.174   2.189  19.581  0.00  0.00    +0.000 NA
ATOM     12  C   UNL     1       0.991   2.613  18.800  0.00  0.00    +0.000 C 
ATOM     13  C   UNL     1       1.237   3.824  17.882  0.00  0.00    +0.000 C 
ATOM     14  O   UNL     1       2.395   3.642  17.059  0.00  0.00    +0.000 OA
ATOM     15  C   UNL     1       3.567   3.412  17.862  0.00  0.00    +0.000 C 
ATOM     16  C   UNL     1       3.343   2.113  18.675  0.00  0.00    +0.000 C 
ENDBRANCH   9  15
ENDBRANCH   1   9
BRANCH   2  17
ATOM     17  C   UNL     1       4.826   4.553  14.291  0.00  0.00    +0.000 C 
BRANCH  17  18
ATOM     18  C   UNL     1       5.938   3.817  13.522  0.00  0.00    +0.000 C 
ATOM     19  C   UNL     1       5.503   3.086  12.250  0.00  0.00    +0.000 C 
ATOM     20  C   UNL     1       6.810   2.886  11.490  0.00  0.00    +0.000 C 
ATOM     21  C   UNL     1       7.655   4.115  11.805  0.00  0.00    +0.000 C 
ATOM     22  C   UNL     1       6.987   4.801  12.995  0.00  0.00    +0.000 C 
ENDBRANCH  17  18
ENDBRANCH   2  17
TORSDOF 4
ENDMDL
MODEL 4
REMARK VINA RESULT:      -6.7      0.975      1.357
REMARK  Name = 
REMARK  5 active torsions:
REMARK  status: ('A' for Active; 'I' for Inactive)
REMARK    1  A    between atoms: C_1  and  N_2
REMARK    2  A    between atoms: C_6  and  C_7
REMARK    3  A    between atoms: C_7  and  N_8
REMARK    4  A    between atoms: C_9  and  C_11
REMARK    5  A    between atoms: C_11  and  C_12
REMARK                            x       y       z     vdW  Elec       q    Type
REMARK                         _______ _______ _______ _____ _____    ______ ____
ROOT
ATOM      1  N   UNL     1       4.637   6.020  17.971  0.00  0.00    +0.000 N 
ATOM      2  C   UNL     1       3.689   7.000  17.616  0.00  0.00    +0.000 C 
ATOM      3  O   UNL     1       3.817   7.774  16.666  0.00  0.00    +0.000 OA
ATOM      4  C   UNL     1       5.438   5.590  16.902  0.00  0.00    +0.000 A 
ATOM      5  N   UNL     1       5.092   5.588  15.637  0.00  0.00    +0.000 NA
ATOM      6  C   UNL     1       6.101   5.053  14.865  0.00  0.00    +0.000 A 
ATOM      7  C   UNL     1       7.229   4.667  15.552  0.00  0.00    +0.000 A 
ATOM      8  S   UNL     1       7.005   4.961  17.223  0.00  0.00    +0.000 S 
ENDROOT
BRANCH   1   9
ATOM      9  C   UNL     1       4.739   5.420  19.325  0.00  0.00    +0.000 C 
BRANCH   9  15
ATOM     10  C   UNL     1       3.672   1.206  18.358  0.00  0.00    +0.000 C 
ATOM     11  N   UNL     1       2.728   2.306  18.160  0.00  0.00    +0.000 NA
ATOM     12  C   UNL     1       1.716   2.355  19.239  0.00  0.00    +0.000 C 
ATOM     13  C   UNL     1       2.232   2.940  20.566  0.00  0.00    +0.000 C 
ATOM     14  O   UNL     1       2.884   4.202  20.374  0.00  0.00    +0.000 OA
ATOM     15  C   UNL     1       3.983   4.078  19.454  0.00  0.00    +0.000 C 
ATOM     16  C   UNL     1       3.415   3.615  18.089  0.00  0.00    +0.000 C 
ENDBRANCH   9  15
ENDBRANCH   1   9
BRANCH   2  17
ATOM     17  C   UNL     1       2.467   7.129  18.522  0.00  0.00    +0.000 C 
BRANCH  17  18
ATOM     18  C   UNL     1       2.074   8.575  18.872  0.00  0.00    +0.000 C 
ATOM     19  C   UNL     1       1.099   9.258  17.910  0.00  0.00    +0.000 C 
ATOM     20  C   UNL     1       0.545  10.419  18.729  0.00  0.00    +0.000 C 
ATOM     21  C   UNL     1       0.481   9.910  20.164  0.00  0.00    +0.000 C 
ATOM     22  C   UNL     1       1.316   8.633  20.203  0.00  0.00    +0.000 C 
ENDBRANCH  17  18
ENDBRANCH   2  17
TORSDOF 4
ENDMDL
MODEL 5
REMARK VINA RESULT:      -6.7      2.116      4.678
REMARK  Name = 
REMARK  5 active torsions:
REMARK  status: ('A' for Active; 'I' for Inactive)
REMARK    1  A    between atoms: C_1  and  N_2
REMARK    2  A    between atoms: C_6  and  C_7
REMARK    3  A    between atoms: C_7  and  N_8
REMARK    4  A    between atoms: C_9  and  C_11
REMARK    5  A    between atoms: C_11  and  C_12
REMARK                            x       y       z     vdW  Elec       q    Type
REMARK                         _______ _______ _______ _____ _____    ______ ____
ROOT
ATOM      1  N   UNL     1       2.649   5.546  18.884  0.00  0.00    +0.000 N 
ATOM      2  C   UNL     1       1.937   6.013  20.006  0.00  0.00    +0.000 C 
ATOM      3  O   UNL     1       1.058   5.371  20.585  0.00  0.00    +0.000 OA
ATOM      4  C   UNL     1       2.720   4.148  18.798  0.00  0.00    +0.000 A 
ATOM      5  N   UNL     1       2.679   3.314  19.809  0.00  0.00    +0.000 NA
ATOM      6  C   UNL     1       2.826   2.016  19.368  0.00  0.00    +0.000 A 
ATOM      7  C   UNL     1       2.958   1.867  18.006  0.00  0.00    +0.000 A 
ATOM      8  S   UNL     1       2.922   3.408  17.260  0.00  0.00    +0.000 S 
ENDROOT
BRANCH   1   9
ATOM      9  C   UNL     1       3.342   6.433  17.917  0.00  0.00    +0.000 C 
BRANCH   9  15
ATOM     10  C   UNL     1       7.494   7.957  17.403  0.00  0.00    +0.000 C 
ATOM     11  N   UNL     1       7.109   6.611  16.980  0.00  0.00    +0.000 NA
ATOM     12  C   UNL     1       7.564   5.586  17.946  0.00  0.00    +0.000 C 
ATOM     13  C   UNL     1       6.717   5.504  19.229  0.00  0.00    +0.000 C 
ATOM     14  O   UNL     1       5.319   5.394  18.938  0.00  0.00    +0.000 OA
ATOM     15  C   UNL     1       4.869   6.508  18.146  0.00  0.00    +0.000 C 
ATOM     16  C   UNL     1       5.644   6.487  16.805  0.00  0.00    +0.000 C 
ENDBRANCH   9  15
ENDBRANCH   1   9
BRANCH   2  17
ATOM     17  C   UNL     1       2.251   7.432  20.474  0.00  0.00    +0.000 C 
BRANCH  17  18
ATOM     18  C   UNL     1       1.027   8.251  20.921  0.00  0.00    +0.000 C 
ATOM     19  C   UNL     1       1.165   8.993  22.252  0.00  0.00    +0.000 C 
ATOM     20  C   UNL     1       0.060  10.042  22.190  0.00  0.00    +0.000 C 
ATOM     21  C   UNL     1      -0.036  10.445  20.723  0.00  0.00    +0.000 C 
ATOM     22  C   UNL     1       0.736   9.389  19.937  0.00  0.00    +0.000 C 
ENDBRANCH  17  18
ENDBRANCH   2  17
TORSDOF 4
ENDMDL
MODEL 6
REMARK VINA RESULT:      -6.6      3.200      5.494
REMARK  Name = 
REMARK  5 active torsions:
REMARK  status: ('A' for Active; 'I' for Inactive)
REMARK    1  A    between atoms: C_1  and  N_2
REMARK    2  A    between atoms: C_6  and  C_7
REMARK    3  A    between atoms: C_7  and  N_8
REMARK    4  A    between atoms: C_9  and  C_11
REMARK    5  A    between atoms: C_11  and  C_12
REMARK                            x       y       z     vdW  Elec       q    Type
REMARK                         _______ _______ _______ _____ _____    ______ ____
ROOT
ATOM      1  N   UNL     1       5.895   5.130  16.736  0.00  0.00    +0.000 N 
ATOM      2  C   UNL     1       5.298   5.588  15.545  0.00  0.00    +0.000 C 
ATOM      3  O   UNL     1       5.129   6.777  15.269  0.00  0.00    +0.000 OA
ATOM      4  C   UNL     1       6.776   6.053  17.322  0.00  0.00    +0.000 A 
ATOM      5  N   UNL     1       7.457   6.974  16.684  0.00  0.00    +0.000 NA
ATOM      6  C   UNL     1       8.262   7.669  17.561  0.00  0.00    +0.000 A 
ATOM      7  C   UNL     1       8.170   7.283  18.879  0.00  0.00    +0.000 A 
ATOM      8  S   UNL     1       7.059   5.989  19.016  0.00  0.00    +0.000 S 
ENDROOT
BRANCH   1   9
ATOM      9  C   UNL     1       5.693   3.770  17.293  0.00  0.00    +0.000 C 
BRANCH   9  15
ATOM     10  C   UNL     1       2.597   4.352  20.441  0.00  0.00    +0.000 C 
ATOM     11  N   UNL     1       3.213   3.048  20.197  0.00  0.00    +0.000 NA
ATOM     12  C   UNL     1       2.316   2.159  19.426  0.00  0.00    +0.000 C 
ATOM     13  C   UNL     1       2.239   2.485  17.923  0.00  0.00    +0.000 C 
ATOM     14  O   UNL     1       3.541   2.589  17.333  0.00  0.00    +0.000 OA
ATOM     15  C   UNL     1       4.326   3.596  17.994  0.00  0.00    +0.000 C 
ATOM     16  C   UNL     1       4.500   3.174  19.474  0.00  0.00    +0.000 C 
ENDBRANCH   9  15
ENDBRANCH   1   9
BRANCH   2  17
ATOM     17  C   UNL     1       4.781   4.521  14.585  0.00  0.00    +0.000 C 
BRANCH  17  18
ATOM     18  C   UNL     1       5.866   3.842  13.729  0.00  0.00    +0.000 C 
ATOM     19  C   UNL     1       5.400   3.258  12.394  0.00  0.00    +0.000 C 
ATOM     20  C   UNL     1       6.694   3.107  11.601  0.00  0.00    +0.000 C 
ATOM     21  C   UNL     1       7.572   4.277  12.030  0.00  0.00    +0.000 C 
ATOM     22  C   UNL     1       6.933   4.851  13.292  0.00  0.00    +0.000 C 
ENDBRANCH  17  18
ENDBRANCH   2  17
TORSDOF 4
ENDMDL
MODEL 7
REMARK VINA RESULT:      -6.6      0.980      1.192
REMARK  Name = 
REMARK  5 active torsions:
REMARK  status: ('A' for Active; 'I' for Inactive)
REMARK    1  A    between atoms: C_1  and  N_2
REMARK    2  A    between atoms: C_6  and  C_7
REMARK    3  A    between atoms: C_7  and  N_8
REMARK    4  A    between atoms: C_9  and  C_11
REMARK    5  A    between atoms: C_11  and  C_12
REMARK                            x       y       z     vdW  Elec       q    Type
REMARK                         _______ _______ _______ _____ _____    ______ ____
ROOT
ATOM      1  N   UNL     1       4.460   6.131  18.022  0.00  0.00    +0.000 N 
ATOM      2  C   UNL     1       3.560   7.030  17.416  0.00  0.00    +0.000 C 
ATOM      3  O   UNL     1       3.807   7.674  16.395  0.00  0.00    +0.000 OA
ATOM      4  C   UNL     1       5.401   5.585  17.136  0.00  0.00    +0.000 A 
ATOM      5  N   UNL     1       5.229   5.406  15.848  0.00  0.00    +0.000 NA
ATOM      6  C   UNL     1       6.337   4.800  15.295  0.00  0.00    +0.000 A 
ATOM      7  C   UNL     1       7.366   4.539  16.171  0.00  0.00    +0.000 A 
ATOM      8  S   UNL     1       6.916   5.047  17.743  0.00  0.00    +0.000 S 
ENDROOT
BRANCH   1   9
ATOM      9  C   UNL     1       4.385   5.719  19.445  0.00  0.00    +0.000 C 
BRANCH   9  15
ATOM     10  C   UNL     1       0.647   3.338  19.877  0.00  0.00    +0.000 C 
ATOM     11  N   UNL     1       1.579   3.519  20.989  0.00  0.00    +0.000 NA
ATOM     12  C   UNL     1       2.414   2.316  21.200  0.00  0.00    +0.000 C 
ATOM     13  C   UNL     1       3.554   2.149  20.178  0.00  0.00    +0.000 C 
ATOM     14  O   UNL     1       4.338   3.342  20.055  0.00  0.00    +0.000 OA
ATOM     15  C   UNL     1       3.519   4.459  19.669  0.00  0.00    +0.000 C 
ATOM     16  C   UNL     1       2.465   4.687  20.781  0.00  0.00    +0.000 C 
ENDBRANCH   9  15
ENDBRANCH   1   9
BRANCH   2  17
ATOM     17  C   UNL     1       2.226   7.245  18.126  0.00  0.00    +0.000 C 
BRANCH  17  18
ATOM     18  C   UNL     1       2.032   8.651  18.723  0.00  0.00    +0.000 C 
ATOM     19  C   UNL     1       1.035   9.556  17.997  0.00  0.00    +0.000 C 
ATOM     20  C   UNL     1       0.705  10.625  19.034  0.00  0.00    +0.000 C 
ATOM     21  C   UNL     1       0.748   9.911  20.380  0.00  0.00    +0.000 C 
ATOM     22  C   UNL     1       1.440   8.573  20.134  0.00  0.00    +0.000 C 
ENDBRANCH  17  18
ENDBRANCH   2  17
TORSDOF 4
ENDMDL
MODEL 8
REMARK VINA RESULT:      -6.4      2.005      5.128
REMARK  Name = 
REMARK  5 active torsions:
REMARK  status: ('A' for Active; 'I' for Inactive)
REMARK    1  A    between atoms: C_1  and  N_2
REMARK    2  A    between atoms: C_6  and  C_7
REMARK    3  A    between atoms: C_7  and  N_8
REMARK    4  A    between atoms: C_9  and  C_11
REMARK    5  A    between atoms: C_11  and  C_12
REMARK                            x       y       z     vdW  Elec       q    Type
REMARK                         _______ _______ _______ _____ _____    ______ ____
ROOT
ATOM      1  N   UNL     1       4.178   5.957  17.710  0.00  0.00    +0.000 N 
ATOM      2  C   UNL     1       3.562   4.716  17.968  0.00  0.00    +0.000 C 
ATOM      3  O   UNL     1       4.172   3.652  18.086  0.00  0.00    +0.000 OA
ATOM      4  C   UNL     1       5.511   6.031  18.142  0.00  0.00    +0.000 A 
ATOM      5  N   UNL     1       6.032   5.354  19.137  0.00  0.00    +0.000 NA
ATOM      6  C   UNL     1       7.352   5.710  19.319  0.00  0.00    +0.000 A 
ATOM      7  C   UNL     1       7.837   6.649  18.438  0.00  0.00    +0.000 A 
ATOM      8  S   UNL     1       6.590   7.120  17.365  0.00  0.00    +0.000 S 
ENDROOT
BRANCH   1   9
ATOM      9  C   UNL     1       3.476   7.121  17.114  0.00  0.00    +0.000 C 
BRANCH   9  15
ATOM     10  C   UNL     1      -0.153   9.456  18.212  0.00  0.00    +0.000 C 
ATOM     11  N   UNL     1       1.183   9.854  18.654  0.00  0.00    +0.000 NA
ATOM     12  C   UNL     1       1.421   9.486  20.067  0.00  0.00    +0.000 C 
ATOM     13  C   UNL     1       1.713   7.992  20.294  0.00  0.00    +0.000 C 
ATOM     14  O   UNL     1       2.748   7.514  19.426  0.00  0.00    +0.000 OA
ATOM     15  C   UNL     1       2.400   7.723  18.046  0.00  0.00    +0.000 C 
ATOM     16  C   UNL     1       2.243   9.247  17.817  0.00  0.00    +0.000 C 
ENDBRANCH   9  15
ENDBRANCH   1   9
BRANCH   2  17
ATOM     17  C   UNL     1       2.038   4.711  18.037  0.00  0.00    +0.000 C 
BRANCH  17  18
ATOM     18  C   UNL     1       1.455   4.277  19.394  0.00  0.00    +0.000 C 
ATOM     19  C   UNL     1       1.123   2.790  19.538  0.00  0.00    +0.000 C 
ATOM     20  C   UNL     1       1.039   2.588  21.047  0.00  0.00    +0.000 C 
ATOM     21  C   UNL     1       2.075   3.535  21.642  0.00  0.00    +0.000 C 
ATOM     22  C   UNL     1       2.465   4.499  20.525  0.00  0.00    +0.000 C 
ENDBRANCH  17  18
ENDBRANCH   2  17
TORSDOF 4
ENDMDL
MODEL 9
REMARK VINA RESULT:      -6.4      1.851      4.685
REMARK  Name = 
REMARK  5 active torsions:
REMARK  status: ('A' for Active; 'I' for Inactive)
REMARK    1  A    between atoms: C_1  and  N_2
REMARK    2  A    between atoms: C_6  and  C_7
REMARK    3  A    between atoms: C_7  and  N_8
REMARK    4  A    between atoms: C_9  and  C_11
REMARK    5  A    between atoms: C_11  and  C_12
REMARK                            x       y       z     vdW  Elec       q    Type
REMARK                         _______ _______ _______ _____ _____    ______ ____
ROOT
ATOM      1  N   UNL     1       3.132   5.190  19.231  0.00  0.00    +0.000 N 
ATOM      2  C   UNL     1       2.247   5.848  18.355  0.00  0.00    +0.000 C 
ATOM      3  O   UNL     1       1.232   5.334  17.880  0.00  0.00    +0.000 OA
ATOM      4  C   UNL     1       2.537   4.156  19.969  0.00  0.00    +0.000 A 
ATOM      5  N   UNL     1       1.272   4.087  20.310  0.00  0.00    +0.000 NA
ATOM      6  C   UNL     1       1.042   2.963  21.075  0.00  0.00    +0.000 A 
ATOM      7  C   UNL     1       2.141   2.164  21.296  0.00  0.00    +0.000 A 
ATOM      8  S   UNL     1       3.510   2.860  20.541  0.00  0.00    +0.000 S 
ENDROOT
BRANCH   1   9
ATOM      9  C   UNL     1       4.546   5.592  19.435  0.00  0.00    +0.000 C 
BRANCH   9  15
ATOM     10  C   UNL     1       5.429   4.793  15.144  0.00  0.00    +0.000 C 
ATOM     11  N   UNL     1       6.166   4.132  16.220  0.00  0.00    +0.000 NA
ATOM     12  C   UNL     1       7.500   4.741  16.420  0.00  0.00    +0.000 C 
ATOM     13  C   UNL     1       7.476   6.087  17.167  0.00  0.00    +0.000 C 
ATOM     14  O   UNL     1       6.726   6.007  18.385  0.00  0.00    +0.000 OA
ATOM     15  C   UNL     1       5.374   5.585  18.130  0.00  0.00    +0.000 C 
ATOM     16  C   UNL     1       5.425   4.170  17.501  0.00  0.00    +0.000 C 
ENDBRANCH   9  15
ENDBRANCH   1   9
BRANCH   2  17
ATOM     17  C   UNL     1       2.628   7.265  17.935  0.00  0.00    +0.000 C 
BRANCH  17  18
ATOM     18  C   UNL     1       1.611   8.351  18.330  0.00  0.00    +0.000 C 
ATOM     19  C   UNL     1       1.446   8.603  19.831  0.00  0.00    +0.000 C 
ATOM     20  C   UNL     1       0.790   9.978  19.891  0.00  0.00    +0.000 C 
ATOM     21  C   UNL     1       1.367  10.756  18.713  0.00  0.00    +0.000 C 
ATOM     22  C   UNL     1       2.044   9.727  17.811  0.00  0.00    +0.000 C 
ENDBRANCH  17  18
ENDBRANCH   2  17
TORSDOF 4
ENDMDL
