MODEL 1
REMARK VINA RESULT:      -7.6      0.000      0.000
REMARK  Name = 
REMARK  8 active torsions:
REMARK  status: ('A' for Active; 'I' for Inactive)
REMARK    1  A    between atoms: C_1  and  C_2
REMARK    2  A    between atoms: C_2  and  C_3
REMARK    3  A    between atoms: C_3  and  C_4
REMARK    4  A    between atoms: C_4  and  N_5
REMARK    5  A    between atoms: N_14  and  C_15
REMARK    6  A    between atoms: C_20  and  O_21
REMARK    7  A    between atoms: O_21  and  C_22
REMARK    8  A    between atoms: C_25  and  C_26
REMARK                            x       y       z     vdW  Elec       q    Type
REMARK                         _______ _______ _______ _____ _____    ______ ____
ROOT
ATOM      1  N   UNL     1       3.019   3.582  20.717  0.00  0.00    +0.000 N 
ATOM      2  C   UNL     1       3.863   3.393  19.659  0.00  0.00    +0.000 A 
ATOM      3  C   UNL     1       3.786   4.561  18.965  0.00  0.00    +0.000 A 
ATOM      4  C   UNL     1       2.937   5.412  19.675  0.00  0.00    +0.000 A 
ATOM      5  N   UNL     1       2.640   6.732  19.270  0.00  0.00    +0.000 NA
ATOM      6  C   UNL     1       3.199   7.101  18.141  0.00  0.00    +0.000 A 
ATOM      7  N   UNL     1       3.005   8.348  17.564  0.00  0.00    +0.000 N 
ATOM      8  C   UNL     1       2.182   9.400  17.939  0.00  0.00    +0.000 C 
ATOM      9  O   UNL     1       2.072  10.359  17.178  0.00  0.00    +0.000 OA
ATOM     10  N   UNL     1       1.572   9.290  19.167  0.00  0.00    +0.000 N 
ATOM     11  N   UNL     1       4.068   6.296  17.365  0.00  0.00    +0.000 N 
ATOM     12  N   UNL     1       4.716   6.610  16.209  0.00  0.00    +0.000 NA
ATOM     13  C   UNL     1       5.372   5.450  15.964  0.00  0.00    +0.000 A 
ATOM     14  N   UNL     1       5.174   4.448  16.893  0.00  0.00    +0.000 NA
ATOM     15  C   UNL     1       4.379   5.026  17.743  0.00  0.00    +0.000 A 
ATOM     16  N   UNL     1       2.455   4.823  20.766  0.00  0.00    +0.000 NA
ATOM     17  H   UNL     1       3.459   8.521  16.672  0.00  0.00    +0.000 HD
ATOM     18  H   UNL     1       1.999   8.641  19.820  0.00  0.00    +0.000 HD
ENDROOT
BRANCH  10  19
ATOM     19  C   UNL     1       0.761  10.312  19.716  0.00  0.00    +0.000 A 
ATOM     20  C   UNL     1       1.296  11.128  20.725  0.00  0.00    +0.000 A 
ATOM     21  C   UNL     1       0.578  12.217  21.229  0.00  0.00    +0.000 A 
ATOM     22  C   UNL     1      -0.696  12.491  20.745  0.00  0.00    +0.000 A 
ATOM     23  C   UNL     1      -1.239  11.689  19.742  0.00  0.00    +0.000 A 
ATOM     24  C   UNL     1      -0.520  10.602  19.216  0.00  0.00    +0.000 A 
BRANCH  24  25
ATOM     25  O   UNL     1      -1.188   9.937  18.219  0.00  0.00    +0.000 OA
ATOM     26  C   UNL     1      -2.386  10.535  17.740  0.00  0.00    +0.000 C 
ENDBRANCH  24  25
ENDBRANCH  10  19
BRANCH  13  27
ATOM     27  C   UNL     1       6.282   5.181  14.807  0.00  0.00    +0.000 A 
ATOM     28  C   UNL     1       5.977   4.330  13.753  0.00  0.00    +0.000 A 
ATOM     29  C   UNL     1       7.098   4.338  12.888  0.00  0.00    +0.000 A 
ATOM     30  C   UNL     1       8.017   5.179  13.466  0.00  0.00    +0.000 A 
ATOM     31  O   UNL     1       7.530   5.703  14.619  0.00  0.00    +0.000 OA
ENDBRANCH  13  27
BRANCH   1  32
ATOM     32  C   UNL     1       2.717   2.581  21.725  0.00  0.00    +0.000 C 
BRANCH  32  33
ATOM     33  C   UNL     1       1.242   2.193  21.692  0.00  0.00    +0.000 C 
BRANCH  33  35
ATOM     34  C   UNL     1       0.650   1.969  19.266  0.00  0.00    +0.000 C 
ATOM     35  C   UNL     1       0.506   2.827  20.514  0.00  0.00    +0.000 C 
ENDBRANCH  33  35
ENDBRANCH  32  33
ENDBRANCH   1  32
TORSDOF 6
ENDMDL
MODEL 2
REMARK VINA RESULT:      -7.5      3.690     10.245
REMARK  Name = 
REMARK  8 active torsions:
REMARK  status: ('A' for Active; 'I' for Inactive)
REMARK    1  A    between atoms: C_1  and  C_2
REMARK    2  A    between atoms: C_2  and  C_3
REMARK    3  A    between atoms: C_3  and  C_4
REMARK    4  A    between atoms: C_4  and  N_5
REMARK    5  A    between atoms: N_14  and  C_15
REMARK    6  A    between atoms: C_20  and  O_21
REMARK    7  A    between atoms: O_21  and  C_22
REMARK    8  A    between atoms: C_25  and  C_26
REMARK                            x       y       z     vdW  Elec       q    Type
REMARK                         _______ _______ _______ _____ _____    ______ ____
ROOT
ATOM      1  N   UNL     1      -3.494  10.384  15.649  0.00  0.00    +0.000 N 
ATOM      2  C   UNL     1      -3.879  11.306  16.581  0.00  0.00    +0.000 A 
ATOM      3  C   UNL     1      -2.978  11.149  17.589  0.00  0.00    +0.000 A 
ATOM      4  C   UNL     1      -2.064  10.176  17.183  0.00  0.00    +0.000 A 
ATOM      5  N   UNL     1      -0.961   9.768  17.965  0.00  0.00    +0.000 NA
ATOM      6  C   UNL     1      -0.870  10.354  19.137  0.00  0.00    +0.000 A 
ATOM      7  N   UNL     1       0.127  10.066  20.059  0.00  0.00    +0.000 N 
ATOM      8  C   UNL     1       1.139   9.118  20.032  0.00  0.00    +0.000 C 
ATOM      9  O   UNL     1       1.818   8.955  21.043  0.00  0.00    +0.000 OA
ATOM     10  N   UNL     1       1.317   8.449  18.842  0.00  0.00    +0.000 N 
ATOM     11  N   UNL     1      -1.757  11.347  19.619  0.00  0.00    +0.000 N 
ATOM     12  N   UNL     1      -1.716  12.027  20.798  0.00  0.00    +0.000 NA
ATOM     13  C   UNL     1      -2.812  12.812  20.674  0.00  0.00    +0.000 A 
ATOM     14  N   UNL     1      -3.520  12.665  19.498  0.00  0.00    +0.000 NA
ATOM     15  C   UNL     1      -2.819  11.764  18.877  0.00  0.00    +0.000 A 
ATOM     16  N   UNL     1      -2.366   9.692  15.981  0.00  0.00    +0.000 NA
ATOM     17  H   UNL     1       0.087  10.553  20.950  0.00  0.00    +0.000 HD
ATOM     18  H   UNL     1       0.938   8.901  18.017  0.00  0.00    +0.000 HD
ENDROOT
BRANCH  10  19
ATOM     19  C   UNL     1       2.351   7.505  18.639  0.00  0.00    +0.000 A 
ATOM     20  C   UNL     1       3.328   7.775  17.667  0.00  0.00    +0.000 A 
ATOM     21  C   UNL     1       4.429   6.929  17.497  0.00  0.00    +0.000 A 
ATOM     22  C   UNL     1       4.555   5.789  18.283  0.00  0.00    +0.000 A 
ATOM     23  C   UNL     1       3.593   5.511  19.253  0.00  0.00    +0.000 A 
ATOM     24  C   UNL     1       2.491   6.362  19.445  0.00  0.00    +0.000 A 
BRANCH  24  25
ATOM     25  O   UNL     1       1.658   5.956  20.455  0.00  0.00    +0.000 OA
ATOM     26  C   UNL     1       1.419   4.558  20.568  0.00  0.00    +0.000 C 
ENDBRANCH  24  25
ENDBRANCH  10  19
BRANCH  13  27
ATOM     27  C   UNL     1      -3.295  13.814  21.676  0.00  0.00    +0.000 A 
ATOM     28  C   UNL     1      -2.884  15.140  21.718  0.00  0.00    +0.000 A 
ATOM     29  C   UNL     1      -3.552  15.737  22.813  0.00  0.00    +0.000 A 
ATOM     30  C   UNL     1      -4.320  14.747  23.376  0.00  0.00    +0.000 A 
ATOM     31  O   UNL     1      -4.181  13.584  22.690  0.00  0.00    +0.000 OA
ENDBRANCH  13  27
BRANCH   1  32
ATOM     32  C   UNL     1      -4.190  10.127  14.401  0.00  0.00    +0.000 C 
BRANCH  32  33
ATOM     33  C   UNL     1      -3.207   9.920  13.253  0.00  0.00    +0.000 C 
BRANCH  33  35
ATOM     34  C   UNL     1      -5.403   9.467  12.132  0.00  0.00    +0.000 C 
ATOM     35  C   UNL     1      -3.918   9.716  11.917  0.00  0.00    +0.000 C 
ENDBRANCH  33  35
ENDBRANCH  32  33
ENDBRANCH   1  32
TORSDOF 6
ENDMDL
MODEL 3
REMARK VINA RESULT:      -7.5      3.429     10.022
REMARK  Name = 
REMARK  8 active torsions:
REMARK  status: ('A' for Active; 'I' for Inactive)
REMARK    1  A    between atoms: C_1  and  C_2
REMARK    2  A    between atoms: C_2  and  C_3
REMARK    3  A    between atoms: C_3  and  C_4
REMARK    4  A    between atoms: C_4  and  N_5
REMARK    5  A    between atoms: N_14  and  C_15
REMARK    6  A    between atoms: C_20  and  O_21
REMARK    7  A    between atoms: O_21  and  C_22
REMARK    8  A    between atoms: C_25  and  C_26
REMARK                            x       y       z     vdW  Elec       q    Type
REMARK                         _______ _______ _______ _____ _____    ______ ____
ROOT
ATOM      1  N   UNL     1      -3.051  10.987  16.463  0.00  0.00    +0.000 N 
ATOM      2  C   UNL     1      -3.248  11.766  17.568  0.00  0.00    +0.000 A 
ATOM      3  C   UNL     1      -2.310  11.326  18.451  0.00  0.00    +0.000 A 
ATOM      4  C   UNL     1      -1.563  10.338  17.808  0.00  0.00    +0.000 A 
ATOM      5  N   UNL     1      -0.475   9.668  18.408  0.00  0.00    +0.000 NA
ATOM      6  C   UNL     1      -0.229  10.020  19.650  0.00  0.00    +0.000 A 
ATOM      7  N   UNL     1       0.779   9.455  20.418  0.00  0.00    +0.000 N 
ATOM      8  C   UNL     1       1.652   8.413  20.142  0.00  0.00    +0.000 C 
ATOM      9  O   UNL     1       2.369   7.992  21.047  0.00  0.00    +0.000 OA
ATOM     10  N   UNL     1       1.660   7.951  18.846  0.00  0.00    +0.000 N 
ATOM     11  N   UNL     1      -0.942  11.009  20.369  0.00  0.00    +0.000 N 
ATOM     12  N   UNL     1      -0.733  11.458  21.638  0.00  0.00    +0.000 NA
ATOM     13  C   UNL     1      -1.721  12.379  21.746  0.00  0.00    +0.000 A 
ATOM     14  N   UNL     1      -2.518  12.529  20.629  0.00  0.00    +0.000 NA
ATOM     15  C   UNL     1      -1.986  11.677  19.805  0.00  0.00    +0.000 A 
ATOM     16  N   UNL     1      -2.006  10.117  16.572  0.00  0.00    +0.000 NA
ATOM     17  H   UNL     1       0.864   9.776  21.378  0.00  0.00    +0.000 HD
ATOM     18  H   UNL     1       1.290   8.585  18.145  0.00  0.00    +0.000 HD
ENDROOT
BRANCH  10  19
ATOM     19  C   UNL     1       2.543   6.942  18.395  0.00  0.00    +0.000 A 
ATOM     20  C   UNL     1       3.638   7.311  17.598  0.00  0.00    +0.000 A 
ATOM     21  C   UNL     1       4.600   6.372  17.212  0.00  0.00    +0.000 A 
ATOM     22  C   UNL     1       4.467   5.044  17.602  0.00  0.00    +0.000 A 
ATOM     23  C   UNL     1       3.385   4.665  18.396  0.00  0.00    +0.000 A 
ATOM     24  C   UNL     1       2.421   5.602  18.803  0.00  0.00    +0.000 A 
BRANCH  24  25
ATOM     25  O   UNL     1       1.442   5.067  19.601  0.00  0.00    +0.000 OA
ATOM     26  C   UNL     1       1.854   4.540  20.856  0.00  0.00    +0.000 C 
ENDBRANCH  24  25
ENDBRANCH  10  19
BRANCH  13  27
ATOM     27  C   UNL     1      -1.999  13.236  22.942  0.00  0.00    +0.000 A 
ATOM     28  C   UNL     1      -3.223  13.295  23.594  0.00  0.00    +0.000 A 
ATOM     29  C   UNL     1      -3.075  14.227  24.649  0.00  0.00    +0.000 A 
ATOM     30  C   UNL     1      -1.783  14.685  24.573  0.00  0.00    +0.000 A 
ATOM     31  O   UNL     1      -1.120  14.083  23.553  0.00  0.00    +0.000 OA
ENDBRANCH  13  27
BRANCH   1  32
ATOM     32  C   UNL     1      -3.857  11.042  15.256  0.00  0.00    +0.000 C 
BRANCH  32  33
ATOM     33  C   UNL     1      -3.361  10.043  14.216  0.00  0.00    +0.000 C 
BRANCH  33  35
ATOM     34  C   UNL     1      -4.206   9.840  11.864  0.00  0.00    +0.000 C 
ATOM     35  C   UNL     1      -4.491   9.531  13.326  0.00  0.00    +0.000 C 
ENDBRANCH  33  35
ENDBRANCH  32  33
ENDBRANCH   1  32
TORSDOF 6
ENDMDL
MODEL 4
REMARK VINA RESULT:      -7.4      1.030      1.277
REMARK  Name = 
REMARK  8 active torsions:
REMARK  status: ('A' for Active; 'I' for Inactive)
REMARK    1  A    between atoms: C_1  and  C_2
REMARK    2  A    between atoms: C_2  and  C_3
REMARK    3  A    between atoms: C_3  and  C_4
REMARK    4  A    between atoms: C_4  and  N_5
REMARK    5  A    between atoms: N_14  and  C_15
REMARK    6  A    between atoms: C_20  and  O_21
REMARK    7  A    between atoms: O_21  and  C_22
REMARK    8  A    between atoms: C_25  and  C_26
REMARK                            x       y       z     vdW  Elec       q    Type
REMARK                         _______ _______ _______ _____ _____    ______ ____
ROOT
ATOM      1  N   UNL     1       3.091   3.586  20.657  0.00  0.00    +0.000 N 
ATOM      2  C   UNL     1       3.902   3.373  19.578  0.00  0.00    +0.000 A 
ATOM      3  C   UNL     1       3.840   4.543  18.885  0.00  0.00    +0.000 A 
ATOM      4  C   UNL     1       3.034   5.418  19.616  0.00  0.00    +0.000 A 
ATOM      5  N   UNL     1       2.765   6.745  19.218  0.00  0.00    +0.000 NA
ATOM      6  C   UNL     1       3.305   7.098  18.074  0.00  0.00    +0.000 A 
ATOM      7  N   UNL     1       3.132   8.350  17.501  0.00  0.00    +0.000 N 
ATOM      8  C   UNL     1       2.350   9.426  17.896  0.00  0.00    +0.000 C 
ATOM      9  O   UNL     1       2.248  10.387  17.138  0.00  0.00    +0.000 OA
ATOM     10  N   UNL     1       1.769   9.334  19.140  0.00  0.00    +0.000 N 
ATOM     11  N   UNL     1       4.130   6.269  17.276  0.00  0.00    +0.000 N 
ATOM     12  N   UNL     1       4.756   6.564  16.103  0.00  0.00    +0.000 NA
ATOM     13  C   UNL     1       5.372   5.385  15.843  0.00  0.00    +0.000 A 
ATOM     14  N   UNL     1       5.170   4.390  16.777  0.00  0.00    +0.000 NA
ATOM     15  C   UNL     1       4.414   4.990  17.647  0.00  0.00    +0.000 A 
ATOM     16  N   UNL     1       2.564   4.843  20.720  0.00  0.00    +0.000 NA
ATOM     17  H   UNL     1       3.568   8.510  16.598  0.00  0.00    +0.000 HD
ATOM     18  H   UNL     1       2.194   8.673  19.782  0.00  0.00    +0.000 HD
ENDROOT
BRANCH  10  19
ATOM     19  C   UNL     1       1.002  10.378  19.709  0.00  0.00    +0.000 A 
ATOM     20  C   UNL     1       1.131  11.673  19.181  0.00  0.00    +0.000 A 
ATOM     21  C   UNL     1       0.322  12.720  19.634  0.00  0.00    +0.000 A 
ATOM     22  C   UNL     1      -0.612  12.491  20.638  0.00  0.00    +0.000 A 
ATOM     23  C   UNL     1      -0.750  11.209  21.169  0.00  0.00    +0.000 A 
ATOM     24  C   UNL     1       0.044  10.145  20.711  0.00  0.00    +0.000 A 
BRANCH  24  25
ATOM     25  O   UNL     1      -0.240   8.949  21.320  0.00  0.00    +0.000 OA
ATOM     26  C   UNL     1      -0.477   8.984  22.722  0.00  0.00    +0.000 C 
ENDBRANCH  24  25
ENDBRANCH  10  19
BRANCH  13  27
ATOM     27  C   UNL     1       6.244   5.089  14.662  0.00  0.00    +0.000 A 
ATOM     28  C   UNL     1       5.908   4.208  13.643  0.00  0.00    +0.000 A 
ATOM     29  C   UNL     1       6.998   4.199  12.740  0.00  0.00    +0.000 A 
ATOM     30  C   UNL     1       7.931   5.061  13.262  0.00  0.00    +0.000 A 
ATOM     31  O   UNL     1       7.480   5.614  14.417  0.00  0.00    +0.000 OA
ENDBRANCH  13  27
BRANCH   1  32
ATOM     32  C   UNL     1       2.786   2.594  21.673  0.00  0.00    +0.000 C 
BRANCH  32  33
ATOM     33  C   UNL     1       1.298   2.260  21.689  0.00  0.00    +0.000 C 
BRANCH  33  35
ATOM     34  C   UNL     1       0.640   2.038  19.280  0.00  0.00    +0.000 C 
ATOM     35  C   UNL     1       0.551   2.907  20.526  0.00  0.00    +0.000 C 
ENDBRANCH  33  35
ENDBRANCH  32  33
ENDBRANCH   1  32
TORSDOF 6
ENDMDL
MODEL 5
REMARK VINA RESULT:      -7.3      5.072      8.567
REMARK  Name = 
REMARK  8 active torsions:
REMARK  status: ('A' for Active; 'I' for Inactive)
REMARK    1  A    between atoms: C_1  and  C_2
REMARK    2  A    between atoms: C_2  and  C_3
REMARK    3  A    between atoms: C_3  and  C_4
REMARK    4  A    between atoms: C_4  and  N_5
REMARK    5  A    between atoms: N_14  and  C_15
REMARK    6  A    between atoms: C_20  and  O_21
REMARK    7  A    between atoms: O_21  and  C_22
REMARK    8  A    between atoms: C_25  and  C_26
REMARK                            x       y       z     vdW  Elec       q    Type
REMARK                         _______ _______ _______ _____ _____    ______ ____
ROOT
ATOM      1  N   UNL     1       0.250   9.730  18.887  0.00  0.00    +0.000 N 
ATOM      2  C   UNL     1      -0.158   9.492  17.605  0.00  0.00    +0.000 A 
ATOM      3  C   UNL     1      -1.371  10.105  17.527  0.00  0.00    +0.000 A 
ATOM      4  C   UNL     1      -1.603  10.727  18.756  0.00  0.00    +0.000 A 
ATOM      5  N   UNL     1      -2.757  11.490  19.037  0.00  0.00    +0.000 NA
ATOM      6  C   UNL     1      -3.630  11.549  18.058  0.00  0.00    +0.000 A 
ATOM      7  N   UNL     1      -4.839  12.225  18.153  0.00  0.00    +0.000 N 
ATOM      8  C   UNL     1      -5.429  12.879  19.225  0.00  0.00    +0.000 C 
ATOM      9  O   UNL     1      -6.583  13.282  19.103  0.00  0.00    +0.000 OA
ATOM     10  N   UNL     1      -4.645  13.048  20.343  0.00  0.00    +0.000 N 
ATOM     11  N   UNL     1      -3.468  10.946  16.788  0.00  0.00    +0.000 N 
ATOM     12  N   UNL     1      -4.301  10.986  15.711  0.00  0.00    +0.000 NA
ATOM     13  C   UNL     1      -3.607  10.230  14.827  0.00  0.00    +0.000 A 
ATOM     14  N   UNL     1      -2.404   9.733  15.285  0.00  0.00    +0.000 NA
ATOM     15  C   UNL     1      -2.357  10.216  16.490  0.00  0.00    +0.000 A 
ATOM     16  N   UNL     1      -0.607  10.508  19.610  0.00  0.00    +0.000 NA
ATOM     17  H   UNL     1      -5.457  12.182  17.348  0.00  0.00    +0.000 HD
ATOM     18  H   UNL     1      -3.643  12.982  20.198  0.00  0.00    +0.000 HD
ENDROOT
BRANCH  10  19
ATOM     19  C   UNL     1      -5.083  13.755  21.488  0.00  0.00    +0.000 A 
ATOM     20  C   UNL     1      -4.687  15.092  21.647  0.00  0.00    +0.000 A 
ATOM     21  C   UNL     1      -5.174  15.869  22.703  0.00  0.00    +0.000 A 
ATOM     22  C   UNL     1      -6.047  15.310  23.628  0.00  0.00    +0.000 A 
ATOM     23  C   UNL     1      -6.450  13.983  23.481  0.00  0.00    +0.000 A 
ATOM     24  C   UNL     1      -5.981  13.198  22.415  0.00  0.00    +0.000 A 
BRANCH  24  25
ATOM     25  O   UNL     1      -6.496  11.927  22.404  0.00  0.00    +0.000 OA
ATOM     26  C   UNL     1      -7.914  11.810  22.362  0.00  0.00    +0.000 C 
ENDBRANCH  24  25
ENDBRANCH  10  19
BRANCH  13  27
ATOM     27  C   UNL     1      -4.022   9.913  13.424  0.00  0.00    +0.000 A 
ATOM     28  C   UNL     1      -5.338   9.726  13.021  0.00  0.00    +0.000 A 
ATOM     29  C   UNL     1      -5.299   9.430  11.637  0.00  0.00    +0.000 A 
ATOM     30  C   UNL     1      -3.972   9.445  11.282  0.00  0.00    +0.000 A 
ATOM     31  O   UNL     1      -3.193   9.748  12.351  0.00  0.00    +0.000 OA
ENDBRANCH  13  27
BRANCH   1  32
ATOM     32  C   UNL     1       1.477   9.222  19.474  0.00  0.00    +0.000 C 
BRANCH  32  33
ATOM     33  C   UNL     1       2.157   8.218  18.549  0.00  0.00    +0.000 C 
BRANCH  33  35
ATOM     34  C   UNL     1       1.672   6.642  20.438  0.00  0.00    +0.000 C 
ATOM     35  C   UNL     1       2.623   6.971  19.297  0.00  0.00    +0.000 C 
ENDBRANCH  33  35
ENDBRANCH  32  33
ENDBRANCH   1  32
TORSDOF 6
ENDMDL
MODEL 6
REMARK VINA RESULT:      -7.2      3.911      8.177
REMARK  Name = 
REMARK  8 active torsions:
REMARK  status: ('A' for Active; 'I' for Inactive)
REMARK    1  A    between atoms: C_1  and  C_2
REMARK    2  A    between atoms: C_2  and  C_3
REMARK    3  A    between atoms: C_3  and  C_4
REMARK    4  A    between atoms: C_4  and  N_5
REMARK    5  A    between atoms: N_14  and  C_15
REMARK    6  A    between atoms: C_20  and  O_21
REMARK    7  A    between atoms: O_21  and  C_22
REMARK    8  A    between atoms: C_25  and  C_26
REMARK                            x       y       z     vdW  Elec       q    Type
REMARK                         _______ _______ _______ _____ _____    ______ ____
ROOT
ATOM      1  N   UNL     1       1.746  14.512  19.239  0.00  0.00    +0.000 N 
ATOM      2  C   UNL     1       2.459  13.373  18.990  0.00  0.00    +0.000 A 
ATOM      3  C   UNL     1       1.503  12.434  18.748  0.00  0.00    +0.000 A 
ATOM      4  C   UNL     1       0.265  13.074  18.811  0.00  0.00    +0.000 A 
ATOM      5  N   UNL     1      -0.964  12.418  18.581  0.00  0.00    +0.000 NA
ATOM      6  C   UNL     1      -0.864  11.133  18.332  0.00  0.00    +0.000 A 
ATOM      7  N   UNL     1      -1.960  10.310  18.110  0.00  0.00    +0.000 N 
ATOM      8  C   UNL     1      -3.320  10.577  18.171  0.00  0.00    +0.000 C 
ATOM      9  O   UNL     1      -4.107   9.639  18.075  0.00  0.00    +0.000 OA
ATOM     10  N   UNL     1      -3.676  11.899  18.308  0.00  0.00    +0.000 N 
ATOM     11  N   UNL     1       0.353  10.414  18.254  0.00  0.00    +0.000 N 
ATOM     12  N   UNL     1       0.549   9.096  17.968  0.00  0.00    +0.000 NA
ATOM     13  C   UNL     1       1.899   9.018  18.049  0.00  0.00    +0.000 A 
ATOM     14  N   UNL     1       2.545  10.198  18.361  0.00  0.00    +0.000 NA
ATOM     15  C   UNL     1       1.550  11.028  18.459  0.00  0.00    +0.000 A 
ATOM     16  N   UNL     1       0.395  14.364  19.110  0.00  0.00    +0.000 NA
ATOM     17  H   UNL     1      -1.773   9.323  17.958  0.00  0.00    +0.000 HD
ATOM     18  H   UNL     1      -2.974  12.580  18.038  0.00  0.00    +0.000 HD
ENDROOT
BRANCH  10  19
ATOM     19  C   UNL     1      -5.022  12.335  18.316  0.00  0.00    +0.000 A 
ATOM     20  C   UNL     1      -5.666  12.555  17.087  0.00  0.00    +0.000 A 
ATOM     21  C   UNL     1      -7.024  12.884  17.033  0.00  0.00    +0.000 A 
ATOM     22  C   UNL     1      -7.752  13.019  18.210  0.00  0.00    +0.000 A 
ATOM     23  C   UNL     1      -7.125  12.802  19.436  0.00  0.00    +0.000 A 
ATOM     24  C   UNL     1      -5.765  12.454  19.503  0.00  0.00    +0.000 A 
BRANCH  24  25
ATOM     25  O   UNL     1      -5.316  12.250  20.782  0.00  0.00    +0.000 OA
ATOM     26  C   UNL     1      -5.508  13.313  21.707  0.00  0.00    +0.000 C 
ENDBRANCH  24  25
ENDBRANCH  10  19
BRANCH  13  27
ATOM     27  C   UNL     1       2.726   7.792  17.818  0.00  0.00    +0.000 A 
ATOM     28  C   UNL     1       2.352   6.512  18.207  0.00  0.00    +0.000 A 
ATOM     29  C   UNL     1       3.407   5.649  17.825  0.00  0.00    +0.000 A 
ATOM     30  C   UNL     1       4.358   6.448  17.238  0.00  0.00    +0.000 A 
ATOM     31  O   UNL     1       3.951   7.742  17.218  0.00  0.00    +0.000 OA
ENDBRANCH  13  27
BRANCH   1  32
ATOM     32  C   UNL     1       2.327  15.790  19.609  0.00  0.00    +0.000 C 
BRANCH  32  33
ATOM     33  C   UNL     1       3.491  16.153  18.693  0.00  0.00    +0.000 C 
BRANCH  33  35
ATOM     34  C   UNL     1       2.153  17.564  17.112  0.00  0.00    +0.000 C 
ATOM     35  C   UNL     1       3.046  16.340  17.245  0.00  0.00    +0.000 C 
ENDBRANCH  33  35
ENDBRANCH  32  33
ENDBRANCH   1  32
TORSDOF 6
ENDMDL
MODEL 7
REMARK VINA RESULT:      -7.2      5.917      9.095
REMARK  Name = 
REMARK  8 active torsions:
REMARK  status: ('A' for Active; 'I' for Inactive)
REMARK    1  A    between atoms: C_1  and  C_2
REMARK    2  A    between atoms: C_2  and  C_3
REMARK    3  A    between atoms: C_3  and  C_4
REMARK    4  A    between atoms: C_4  and  N_5
REMARK    5  A    between atoms: N_14  and  C_15
REMARK    6  A    between atoms: C_20  and  O_21
REMARK    7  A    between atoms: O_21  and  C_22
REMARK    8  A    between atoms: C_25  and  C_26
REMARK                            x       y       z     vdW  Elec       q    Type
REMARK                         _______ _______ _______ _____ _____    ______ ____
ROOT
ATOM      1  N   UNL     1      -0.140  11.004  19.998  0.00  0.00    +0.000 N 
ATOM      2  C   UNL     1      -0.303  10.680  18.680  0.00  0.00    +0.000 A 
ATOM      3  C   UNL     1      -1.609  10.972  18.429  0.00  0.00    +0.000 A 
ATOM      4  C   UNL     1      -2.148  11.507  19.600  0.00  0.00    +0.000 A 
ATOM      5  N   UNL     1      -3.482  11.955  19.709  0.00  0.00    +0.000 NA
ATOM      6  C   UNL     1      -4.206  11.801  18.624  0.00  0.00    +0.000 A 
ATOM      7  N   UNL     1      -5.546  12.153  18.543  0.00  0.00    +0.000 N 
ATOM      8  C   UNL     1      -6.417  12.631  19.512  0.00  0.00    +0.000 C 
ATOM      9  O   UNL     1      -7.608  12.734  19.230  0.00  0.00    +0.000 OA
ATOM     10  N   UNL     1      -5.854  12.983  20.717  0.00  0.00    +0.000 N 
ATOM     11  N   UNL     1      -3.732  11.266  17.402  0.00  0.00    +0.000 N 
ATOM     12  N   UNL     1      -4.399  11.105  16.226  0.00  0.00    +0.000 NA
ATOM     13  C   UNL     1      -3.428  10.552  15.459  0.00  0.00    +0.000 A 
ATOM     14  N   UNL     1      -2.211  10.368  16.083  0.00  0.00    +0.000 NA
ATOM     15  C   UNL     1      -2.446  10.840  17.270  0.00  0.00    +0.000 A 
ATOM     16  N   UNL     1      -1.251  11.538  20.583  0.00  0.00    +0.000 NA
ATOM     17  H   UNL     1      -6.022  11.963  17.666  0.00  0.00    +0.000 HD
ATOM     18  H   UNL     1      -4.857  13.171  20.706  0.00  0.00    +0.000 HD
ENDROOT
BRANCH  10  19
ATOM     19  C   UNL     1      -6.601  13.550  21.777  0.00  0.00    +0.000 A 
ATOM     20  C   UNL     1      -6.887  12.757  22.900  0.00  0.00    +0.000 A 
ATOM     21  C   UNL     1      -7.530  13.295  24.019  0.00  0.00    +0.000 A 
ATOM     22  C   UNL     1      -7.916  14.631  24.021  0.00  0.00    +0.000 A 
ATOM     23  C   UNL     1      -7.636  15.430  22.913  0.00  0.00    +0.000 A 
ATOM     24  C   UNL     1      -6.976  14.905  21.789  0.00  0.00    +0.000 A 
BRANCH  24  25
ATOM     25  O   UNL     1      -6.757  15.831  20.802  0.00  0.00    +0.000 OA
ATOM     26  C   UNL     1      -5.620  16.673  20.954  0.00  0.00    +0.000 C 
ENDBRANCH  24  25
ENDBRANCH  10  19
BRANCH  13  27
ATOM     27  C   UNL     1      -3.562  10.152  14.023  0.00  0.00    +0.000 A 
ATOM     28  C   UNL     1      -4.771  10.059  13.346  0.00  0.00    +0.000 A 
ATOM     29  C   UNL     1      -4.467   9.636  12.030  0.00  0.00    +0.000 A 
ATOM     30  C   UNL     1      -3.103   9.487  11.984  0.00  0.00    +0.000 A 
ATOM     31  O   UNL     1      -2.545   9.808  13.179  0.00  0.00    +0.000 OA
ENDBRANCH  13  27
BRANCH   1  32
ATOM     32  C   UNL     1       1.086  10.815  20.752  0.00  0.00    +0.000 C 
BRANCH  32  33
ATOM     33  C   UNL     1       0.880   9.836  21.904  0.00  0.00    +0.000 C 
BRANCH  33  35
ATOM     34  C   UNL     1       1.572   7.700  20.789  0.00  0.00    +0.000 C 
ATOM     35  C   UNL     1       0.417   8.465  21.418  0.00  0.00    +0.000 C 
ENDBRANCH  33  35
ENDBRANCH  32  33
ENDBRANCH   1  32
TORSDOF 6
ENDMDL
MODEL 8
REMARK VINA RESULT:      -7.1      3.347     10.005
REMARK  Name = 
REMARK  8 active torsions:
REMARK  status: ('A' for Active; 'I' for Inactive)
REMARK    1  A    between atoms: C_1  and  C_2
REMARK    2  A    between atoms: C_2  and  C_3
REMARK    3  A    between atoms: C_3  and  C_4
REMARK    4  A    between atoms: C_4  and  N_5
REMARK    5  A    between atoms: N_14  and  C_15
REMARK    6  A    between atoms: C_20  and  O_21
REMARK    7  A    between atoms: O_21  and  C_22
REMARK    8  A    between atoms: C_25  and  C_26
REMARK                            x       y       z     vdW  Elec       q    Type
REMARK                         _______ _______ _______ _____ _____    ______ ____
ROOT
ATOM      1  N   UNL     1      -2.481  11.104  16.901  0.00  0.00    +0.000 N 
ATOM      2  C   UNL     1      -2.605  12.039  17.889  0.00  0.00    +0.000 A 
ATOM      3  C   UNL     1      -1.803  11.572  18.885  0.00  0.00    +0.000 A 
ATOM      4  C   UNL     1      -1.196  10.405  18.418  0.00  0.00    +0.000 A 
ATOM      5  N   UNL     1      -0.269   9.654  19.172  0.00  0.00    +0.000 NA
ATOM      6  C   UNL     1      -0.036  10.116  20.379  0.00  0.00    +0.000 A 
ATOM      7  N   UNL     1       0.821   9.502  21.281  0.00  0.00    +0.000 N 
ATOM      8  C   UNL     1       1.523   8.308  21.193  0.00  0.00    +0.000 C 
ATOM      9  O   UNL     1       2.110   7.898  22.192  0.00  0.00    +0.000 OA
ATOM     10  N   UNL     1       1.525   7.690  19.964  0.00  0.00    +0.000 N 
ATOM     11  N   UNL     1      -0.613  11.289  20.923  0.00  0.00    +0.000 N 
ATOM     12  N   UNL     1      -0.401  11.857  22.143  0.00  0.00    +0.000 NA
ATOM     13  C   UNL     1      -1.227  12.928  22.069  0.00  0.00    +0.000 A 
ATOM     14  N   UNL     1      -1.927  13.059  20.886  0.00  0.00    +0.000 NA
ATOM     15  C   UNL     1      -1.499  12.037  20.209  0.00  0.00    +0.000 A 
ATOM     16  N   UNL     1      -1.602  10.101  17.188  0.00  0.00    +0.000 NA
ATOM     17  H   UNL     1       0.906   9.925  22.200  0.00  0.00    +0.000 HD
ATOM     18  H   UNL     1       1.304   8.280  19.169  0.00  0.00    +0.000 HD
ENDROOT
BRANCH  10  19
ATOM     19  C   UNL     1       2.252   6.505  19.701  0.00  0.00    +0.000 A 
ATOM     20  C   UNL     1       1.930   5.344  20.422  0.00  0.00    +0.000 A 
ATOM     21  C   UNL     1       2.543   4.121  20.131  0.00  0.00    +0.000 A 
ATOM     22  C   UNL     1       3.503   4.048  19.128  0.00  0.00    +0.000 A 
ATOM     23  C   UNL     1       3.830   5.194  18.403  0.00  0.00    +0.000 A 
ATOM     24  C   UNL     1       3.209   6.424  18.675  0.00  0.00    +0.000 A 
BRANCH  24  25
ATOM     25  O   UNL     1       3.626   7.440  17.853  0.00  0.00    +0.000 OA
ATOM     26  C   UNL     1       4.546   7.095  16.824  0.00  0.00    +0.000 C 
ENDBRANCH  24  25
ENDBRANCH  10  19
BRANCH  13  27
ATOM     27  C   UNL     1      -1.423  13.963  23.133  0.00  0.00    +0.000 A 
ATOM     28  C   UNL     1      -2.630  14.204  23.776  0.00  0.00    +0.000 A 
ATOM     29  C   UNL     1      -2.399  15.262  24.688  0.00  0.00    +0.000 A 
ATOM     30  C   UNL     1      -1.078  15.607  24.542  0.00  0.00    +0.000 A 
ATOM     31  O   UNL     1      -0.476  14.821  23.614  0.00  0.00    +0.000 OA
ENDBRANCH  13  27
BRANCH   1  32
ATOM     32  C   UNL     1      -3.199  11.132  15.639  0.00  0.00    +0.000 C 
BRANCH  32  33
ATOM     33  C   UNL     1      -3.268   9.743  15.012  0.00  0.00    +0.000 C 
BRANCH  33  35
ATOM     34  C   UNL     1      -4.190   9.794  12.681  0.00  0.00    +0.000 C 
ATOM     35  C   UNL     1      -2.924   9.766  13.525  0.00  0.00    +0.000 C 
ENDBRANCH  33  35
ENDBRANCH  32  33
ENDBRANCH   1  32
TORSDOF 6
ENDMDL
MODEL 9
REMARK VINA RESULT:      -7.1      5.041      8.565
REMARK  Name = 
REMARK  8 active torsions:
REMARK  status: ('A' for Active; 'I' for Inactive)
REMARK    1  A    between atoms: C_1  and  C_2
REMARK    2  A    between atoms: C_2  and  C_3
REMARK    3  A    between atoms: C_3  and  C_4
REMARK    4  A    between atoms: C_4  and  N_5
REMARK    5  A    between atoms: N_14  and  C_15
REMARK    6  A    between atoms: C_20  and  O_21
REMARK    7  A    between atoms: O_21  and  C_22
REMARK    8  A    between atoms: C_25  and  C_26
REMARK                            x       y       z     vdW  Elec       q    Type
REMARK                         _______ _______ _______ _____ _____    ______ ____
ROOT
ATOM      1  N   UNL     1       0.273   9.660  18.779  0.00  0.00    +0.000 N 
ATOM      2  C   UNL     1      -0.184   9.415  17.515  0.00  0.00    +0.000 A 
ATOM      3  C   UNL     1      -1.385  10.055  17.470  0.00  0.00    +0.000 A 
ATOM      4  C   UNL     1      -1.560  10.698  18.697  0.00  0.00    +0.000 A 
ATOM      5  N   UNL     1      -2.686  11.491  19.007  0.00  0.00    +0.000 NA
ATOM      6  C   UNL     1      -3.591  11.557  18.058  0.00  0.00    +0.000 A 
ATOM      7  N   UNL     1      -4.780  12.263  18.185  0.00  0.00    +0.000 N 
ATOM      8  C   UNL     1      -5.318  12.944  19.267  0.00  0.00    +0.000 C 
ATOM      9  O   UNL     1      -6.466  13.372  19.179  0.00  0.00    +0.000 OA
ATOM     10  N   UNL     1      -4.492  13.109  20.355  0.00  0.00    +0.000 N 
ATOM     11  N   UNL     1      -3.487  10.933  16.792  0.00  0.00    +0.000 N 
ATOM     12  N   UNL     1      -4.356  10.979  15.744  0.00  0.00    +0.000 NA
ATOM     13  C   UNL     1      -3.710  10.195  14.847  0.00  0.00    +0.000 A 
ATOM     14  N   UNL     1      -2.503   9.676  15.270  0.00  0.00    +0.000 NA
ATOM     15  C   UNL     1      -2.404  10.175  16.466  0.00  0.00    +0.000 A 
ATOM     16  N   UNL     1      -0.540  10.467  19.520  0.00  0.00    +0.000 NA
ATOM     17  H   UNL     1      -5.427  12.223  17.402  0.00  0.00    +0.000 HD
ATOM     18  H   UNL     1      -3.497  13.018  20.177  0.00  0.00    +0.000 HD
ENDROOT
BRANCH  10  19
ATOM     19  C   UNL     1      -4.874  13.841  21.505  0.00  0.00    +0.000 A 
ATOM     20  C   UNL     1      -5.453  13.151  22.581  0.00  0.00    +0.000 A 
ATOM     21  C   UNL     1      -5.752  13.804  23.781  0.00  0.00    +0.000 A 
ATOM     22  C   UNL     1      -5.497  15.165  23.911  0.00  0.00    +0.000 A 
ATOM     23  C   UNL     1      -4.920  15.861  22.850  0.00  0.00    +0.000 A 
ATOM     24  C   UNL     1      -4.599  15.212  21.646  0.00  0.00    +0.000 A 
BRANCH  24  25
ATOM     25  O   UNL     1      -4.015  16.037  20.719  0.00  0.00    +0.000 OA
ATOM     26  C   UNL     1      -4.889  16.813  19.909  0.00  0.00    +0.000 C 
ENDBRANCH  24  25
ENDBRANCH  10  19
BRANCH  13  27
ATOM     27  C   UNL     1      -4.181   9.870  13.463  0.00  0.00    +0.000 A 
ATOM     28  C   UNL     1      -3.361   9.851  12.343  0.00  0.00    +0.000 A 
ATOM     29  C   UNL     1      -4.187   9.521  11.242  0.00  0.00    +0.000 A 
ATOM     30  C   UNL     1      -5.453   9.368  11.750  0.00  0.00    +0.000 A 
ATOM     31  O   UNL     1      -5.459   9.565  13.093  0.00  0.00    +0.000 OA
ENDBRANCH  13  27
BRANCH   1  32
ATOM     32  C   UNL     1       1.508   9.132  19.331  0.00  0.00    +0.000 C 
BRANCH  32  33
ATOM     33  C   UNL     1       2.155   8.131  18.378  0.00  0.00    +0.000 C 
BRANCH  33  35
ATOM     34  C   UNL     1       2.614   5.681  18.117  0.00  0.00    +0.000 C 
ATOM     35  C   UNL     1       2.577   6.849  19.090  0.00  0.00    +0.000 C 
ENDBRANCH  33  35
ENDBRANCH  32  33
ENDBRANCH   1  32
TORSDOF 6
ENDMDL
