MODEL 1
REMARK VINA RESULT:      -8.0      0.000      0.000
REMARK  Name = 
REMARK  8 active torsions:
REMARK  status: ('A' for Active; 'I' for Inactive)
REMARK    1  A    between atoms: C_1  and  O_2
REMARK    2  A    between atoms: O_2  and  C_3
REMARK    3  A    between atoms: C_5  and  O_6
REMARK    4  A    between atoms: O_6  and  C_7
REMARK    5  A    between atoms: C_8  and  N_9
REMARK    6  A    between atoms: N_12  and  C_13
REMARK    7  A    between atoms: C_22  and  C_23
REMARK    8  A    between atoms: C_26  and  C_27
REMARK                            x       y       z     vdW  Elec       q    Type
REMARK                         _______ _______ _______ _____ _____    ______ ____
ROOT
ATOM      1  N   UNL     1       2.056   7.459  20.672  0.00  0.00    +0.000 N 
ATOM      2  C   UNL     1       0.915   8.201  20.935  0.00  0.00    +0.000 C 
ATOM      3  O   UNL     1      -0.231   7.783  20.852  0.00  0.00    +0.000 OA
ATOM      4  N   UNL     1       1.254   9.499  21.324  0.00  0.00    +0.000 N 
ATOM      5  H   UNL     1       2.869   7.756  21.194  0.00  0.00    +0.000 HD
ATOM      6  H   UNL     1       2.064   9.875  20.852  0.00  0.00    +0.000 HD
ENDROOT
BRANCH   4   7
ATOM      7  C   UNL     1       0.233  10.417  21.511  0.00  0.00    +0.000 A 
ATOM      8  S   UNL     1      -0.639  10.160  22.944  0.00  0.00    +0.000 S 
ATOM      9  C   UNL     1      -1.430  11.661  22.793  0.00  0.00    +0.000 A 
ATOM     10  N   UNL     1      -2.221  12.139  23.779  0.00  0.00    +0.000 NA
ATOM     11  C   UNL     1      -2.773  13.291  23.544  0.00  0.00    +0.000 A 
ATOM     12  N   UNL     1      -2.616  14.011  22.367  0.00  0.00    +0.000 N 
ATOM     13  C   UNL     1      -1.790  13.551  21.326  0.00  0.00    +0.000 A 
ATOM     14  O   UNL     1      -1.632  14.168  20.279  0.00  0.00    +0.000 OA
ATOM     15  C   UNL     1      -1.141  12.272  21.587  0.00  0.00    +0.000 A 
ATOM     16  C   UNL     1      -0.211  11.508  20.783  0.00  0.00    +0.000 A 
ATOM     17  C   UNL     1       0.211  11.846  19.389  0.00  0.00    +0.000 C 
ATOM     18  C   UNL     1      -3.351  15.253  22.131  0.00  0.00    +0.000 C 
ATOM     19  C   UNL     1      -2.877  16.414  23.009  0.00  0.00    +0.000 C 
ATOM     20  C   UNL     1      -3.446  16.428  24.435  0.00  0.00    +0.000 C 
ATOM     21  C   UNL     1      -4.952  16.722  24.455  0.00  0.00    +0.000 C 
ATOM     22  C   UNL     1      -3.091  15.161  25.225  0.00  0.00    +0.000 C 
ATOM     23  C   UNL     1      -3.643  13.863  24.647  0.00  0.00    +0.000 C 
ENDBRANCH   4   7
BRANCH   1  27
ATOM     24  C   UNL     1       2.168   3.458  19.225  0.00  0.00    +0.000 A 
ATOM     25  C   UNL     1       2.429   4.508  18.347  0.00  0.00    +0.000 A 
ATOM     26  C   UNL     1       2.430   5.846  18.770  0.00  0.00    +0.000 A 
ATOM     27  C   UNL     1       2.103   6.155  20.106  0.00  0.00    +0.000 A 
ATOM     28  C   UNL     1       1.817   5.095  20.984  0.00  0.00    +0.000 A 
ATOM     29  C   UNL     1       1.840   3.763  20.547  0.00  0.00    +0.000 A 
ATOM     30 CL   UNL     1       1.482   2.521  21.694  0.00  0.00    +0.000 Cl
BRANCH  24  32
ATOM     31  C   UNL     1       3.521   1.651  18.525  0.00  0.00    +0.000 C 
ATOM     32  O   UNL     1       2.216   2.144  18.833  0.00  0.00    +0.000 OA
ENDBRANCH  24  32
BRANCH  26  33
ATOM     33  O   UNL     1       2.901   6.822  17.928  0.00  0.00    +0.000 OA
ATOM     34  C   UNL     1       4.233   6.644  17.443  0.00  0.00    +0.000 C 
ENDBRANCH  26  33
ENDBRANCH   1  27
TORSDOF 4
ENDMDL
MODEL 2
REMARK VINA RESULT:      -8.0      3.356     10.499
REMARK  Name = 
REMARK  8 active torsions:
REMARK  status: ('A' for Active; 'I' for Inactive)
REMARK    1  A    between atoms: C_1  and  O_2
REMARK    2  A    between atoms: O_2  and  C_3
REMARK    3  A    between atoms: C_5  and  O_6
REMARK    4  A    between atoms: O_6  and  C_7
REMARK    5  A    between atoms: C_8  and  N_9
REMARK    6  A    between atoms: N_12  and  C_13
REMARK    7  A    between atoms: C_22  and  C_23
REMARK    8  A    between atoms: C_26  and  C_27
REMARK                            x       y       z     vdW  Elec       q    Type
REMARK                         _______ _______ _______ _____ _____    ______ ____
ROOT
ATOM      1  N   UNL     1      -1.557  11.977  20.349  0.00  0.00    +0.000 N 
ATOM      2  C   UNL     1      -0.950  10.824  19.877  0.00  0.00    +0.000 C 
ATOM      3  O   UNL     1      -1.470  10.010  19.127  0.00  0.00    +0.000 OA
ATOM      4  N   UNL     1       0.353  10.720  20.369  0.00  0.00    +0.000 N 
ATOM      5  H   UNL     1      -0.912  12.727  20.553  0.00  0.00    +0.000 HD
ATOM      6  H   UNL     1       0.469  11.063  21.312  0.00  0.00    +0.000 HD
ENDROOT
BRANCH   4   7
ATOM      7  C   UNL     1       1.070   9.566  20.095  0.00  0.00    +0.000 A 
ATOM      8  S   UNL     1       0.990   8.420  21.343  0.00  0.00    +0.000 S 
ATOM      9  C   UNL     1       1.694   7.222  20.358  0.00  0.00    +0.000 A 
ATOM     10  N   UNL     1       1.781   5.938  20.770  0.00  0.00    +0.000 NA
ATOM     11  C   UNL     1       2.343   5.119  19.933  0.00  0.00    +0.000 A 
ATOM     12  N   UNL     1       2.859   5.490  18.698  0.00  0.00    +0.000 N 
ATOM     13  C   UNL     1       2.773   6.814  18.232  0.00  0.00    +0.000 A 
ATOM     14  O   UNL     1       3.217   7.167  17.145  0.00  0.00    +0.000 OA
ATOM     15  C   UNL     1       2.120   7.739  19.149  0.00  0.00    +0.000 A 
ATOM     16  C   UNL     1       1.822   9.148  19.009  0.00  0.00    +0.000 A 
ATOM     17  C   UNL     1       2.250  10.017  17.869  0.00  0.00    +0.000 C 
ATOM     18  C   UNL     1       3.571   4.533  17.852  0.00  0.00    +0.000 C 
ATOM     19  C   UNL     1       2.658   3.462  17.248  0.00  0.00    +0.000 C 
ATOM     20  C   UNL     1       2.325   2.288  18.179  0.00  0.00    +0.000 C 
ATOM     21  C   UNL     1       3.552   1.412  18.467  0.00  0.00    +0.000 C 
ATOM     22  C   UNL     1       1.616   2.736  19.465  0.00  0.00    +0.000 C 
ATOM     23  C   UNL     1       2.428   3.666  20.360  0.00  0.00    +0.000 C 
ENDBRANCH   4   7
BRANCH   1  27
ATOM     24  C   UNL     1      -5.624  12.992  19.614  0.00  0.00    +0.000 A 
ATOM     25  C   UNL     1      -5.072  13.254  20.866  0.00  0.00    +0.000 A 
ATOM     26  C   UNL     1      -3.731  12.964  21.161  0.00  0.00    +0.000 A 
ATOM     27  C   UNL     1      -2.924  12.337  20.190  0.00  0.00    +0.000 A 
ATOM     28  C   UNL     1      -3.491  12.051  18.936  0.00  0.00    +0.000 A 
ATOM     29  C   UNL     1      -4.827  12.367  18.653  0.00  0.00    +0.000 A 
ATOM     30 CL   UNL     1      -5.442  11.988  17.084  0.00  0.00    +0.000 Cl
BRANCH  24  32
ATOM     31  C   UNL     1      -7.795  13.470  20.417  0.00  0.00    +0.000 C 
ATOM     32  O   UNL     1      -6.919  13.320  19.299  0.00  0.00    +0.000 OA
ENDBRANCH  24  32
BRANCH  26  33
ATOM     33  O   UNL     1      -3.177  13.434  22.326  0.00  0.00    +0.000 OA
ATOM     34  C   UNL     1      -3.442  12.664  23.501  0.00  0.00    +0.000 C 
ENDBRANCH  26  33
ENDBRANCH   1  27
TORSDOF 4
ENDMDL
MODEL 3
REMARK VINA RESULT:      -8.0      3.439     10.317
REMARK  Name = 
REMARK  8 active torsions:
REMARK  status: ('A' for Active; 'I' for Inactive)
REMARK    1  A    between atoms: C_1  and  O_2
REMARK    2  A    between atoms: O_2  and  C_3
REMARK    3  A    between atoms: C_5  and  O_6
REMARK    4  A    between atoms: O_6  and  C_7
REMARK    5  A    between atoms: C_8  and  N_9
REMARK    6  A    between atoms: N_12  and  C_13
REMARK    7  A    between atoms: C_22  and  C_23
REMARK    8  A    between atoms: C_26  and  C_27
REMARK                            x       y       z     vdW  Elec       q    Type
REMARK                         _______ _______ _______ _____ _____    ______ ____
ROOT
ATOM      1  N   UNL     1      -1.475  12.034  20.555  0.00  0.00    +0.000 N 
ATOM      2  C   UNL     1      -0.927  10.842  20.108  0.00  0.00    +0.000 C 
ATOM      3  O   UNL     1      -1.551   9.935  19.575  0.00  0.00    +0.000 OA
ATOM      4  N   UNL     1       0.450  10.819  20.340  0.00  0.00    +0.000 N 
ATOM      5  H   UNL     1      -0.833  12.813  20.540  0.00  0.00    +0.000 HD
ATOM      6  H   UNL     1       0.734  11.275  21.196  0.00  0.00    +0.000 HD
ENDROOT
BRANCH   4   7
ATOM      7  C   UNL     1       1.145   9.652  20.064  0.00  0.00    +0.000 A 
ATOM      8  S   UNL     1       1.083   8.524  21.330  0.00  0.00    +0.000 S 
ATOM      9  C   UNL     1       1.746   7.304  20.344  0.00  0.00    +0.000 A 
ATOM     10  N   UNL     1       1.828   6.025  20.772  0.00  0.00    +0.000 NA
ATOM     11  C   UNL     1       2.357   5.187  19.932  0.00  0.00    +0.000 A 
ATOM     12  N   UNL     1       2.844   5.534  18.679  0.00  0.00    +0.000 N 
ATOM     13  C   UNL     1       2.763   6.852  18.196  0.00  0.00    +0.000 A 
ATOM     14  O   UNL     1       3.183   7.184  17.094  0.00  0.00    +0.000 OA
ATOM     15  C   UNL     1       2.146   7.798  19.117  0.00  0.00    +0.000 A 
ATOM     16  C   UNL     1       1.862   9.209  18.965  0.00  0.00    +0.000 A 
ATOM     17  C   UNL     1       2.271  10.056  17.802  0.00  0.00    +0.000 C 
ATOM     18  C   UNL     1       3.522   4.555  17.828  0.00  0.00    +0.000 C 
ATOM     19  C   UNL     1       2.580   3.489  17.264  0.00  0.00    +0.000 C 
ATOM     20  C   UNL     1       2.257   2.332  18.221  0.00  0.00    +0.000 C 
ATOM     21  C   UNL     1       3.479   1.444  18.488  0.00  0.00    +0.000 C 
ATOM     22  C   UNL     1       1.587   2.807  19.517  0.00  0.00    +0.000 C 
ATOM     23  C   UNL     1       2.435   3.739  20.377  0.00  0.00    +0.000 C 
ENDBRANCH   4   7
BRANCH   1  27
ATOM     24  C   UNL     1      -5.601  12.958  21.046  0.00  0.00    +0.000 A 
ATOM     25  C   UNL     1      -5.094  12.762  19.763  0.00  0.00    +0.000 A 
ATOM     26  C   UNL     1      -3.749  12.431  19.539  0.00  0.00    +0.000 A 
ATOM     27  C   UNL     1      -2.861  12.349  20.630  0.00  0.00    +0.000 A 
ATOM     28  C   UNL     1      -3.369  12.571  21.922  0.00  0.00    +0.000 A 
ATOM     29  C   UNL     1      -4.721  12.881  22.127  0.00  0.00    +0.000 A 
ATOM     30 CL   UNL     1      -5.265  13.132  23.748  0.00  0.00    +0.000 Cl
BRANCH  24  32
ATOM     31  C   UNL     1      -7.772  12.082  21.372  0.00  0.00    +0.000 C 
ATOM     32  O   UNL     1      -6.926  13.229  21.279  0.00  0.00    +0.000 OA
ENDBRANCH  24  32
BRANCH  26  33
ATOM     33  O   UNL     1      -3.347  12.038  18.287  0.00  0.00    +0.000 OA
ATOM     34  C   UNL     1      -4.289  11.264  17.541  0.00  0.00    +0.000 C 
ENDBRANCH  26  33
ENDBRANCH   1  27
TORSDOF 4
ENDMDL
MODEL 4
REMARK VINA RESULT:      -7.9      4.129     10.315
REMARK  Name = 
REMARK  8 active torsions:
REMARK  status: ('A' for Active; 'I' for Inactive)
REMARK    1  A    between atoms: C_1  and  O_2
REMARK    2  A    between atoms: O_2  and  C_3
REMARK    3  A    between atoms: C_5  and  O_6
REMARK    4  A    between atoms: O_6  and  C_7
REMARK    5  A    between atoms: C_8  and  N_9
REMARK    6  A    between atoms: N_12  and  C_13
REMARK    7  A    between atoms: C_22  and  C_23
REMARK    8  A    between atoms: C_26  and  C_27
REMARK                            x       y       z     vdW  Elec       q    Type
REMARK                         _______ _______ _______ _____ _____    ______ ____
ROOT
ATOM      1  N   UNL     1      -2.083  11.770  19.343  0.00  0.00    +0.000 N 
ATOM      2  C   UNL     1      -1.320  10.635  19.119  0.00  0.00    +0.000 C 
ATOM      3  O   UNL     1      -1.651   9.691  18.416  0.00  0.00    +0.000 OA
ATOM      4  N   UNL     1      -0.104  10.720  19.802  0.00  0.00    +0.000 N 
ATOM      5  H   UNL     1      -1.539  12.599  19.536  0.00  0.00    +0.000 HD
ATOM      6  H   UNL     1      -0.164  11.182  20.698  0.00  0.00    +0.000 HD
ENDROOT
BRANCH   4   7
ATOM      7  C   UNL     1       0.736   9.618  19.788  0.00  0.00    +0.000 A 
ATOM      8  S   UNL     1       0.512   8.593  21.121  0.00  0.00    +0.000 S 
ATOM      9  C   UNL     1       1.477   7.379  20.415  0.00  0.00    +0.000 A 
ATOM     10  N   UNL     1       1.583   6.154  20.976  0.00  0.00    +0.000 NA
ATOM     11  C   UNL     1       2.351   5.317  20.347  0.00  0.00    +0.000 A 
ATOM     12  N   UNL     1       3.058   5.616  19.190  0.00  0.00    +0.000 N 
ATOM     13  C   UNL     1       2.960   6.876  18.572  0.00  0.00    +0.000 A 
ATOM     14  O   UNL     1       3.571   7.165  17.549  0.00  0.00    +0.000 OA
ATOM     15  C   UNL     1       2.079   7.817  19.251  0.00  0.00    +0.000 A 
ATOM     16  C   UNL     1       1.706   9.172  18.906  0.00  0.00    +0.000 A 
ATOM     17  C   UNL     1       2.271   9.965  17.771  0.00  0.00    +0.000 C 
ATOM     18  C   UNL     1       3.985   4.654  18.594  0.00  0.00    +0.000 C 
ATOM     19  C   UNL     1       3.285   3.450  17.961  0.00  0.00    +0.000 C 
ATOM     20  C   UNL     1       2.875   2.343  18.942  0.00  0.00    +0.000 C 
ATOM     21  C   UNL     1       4.089   1.618  19.537  0.00  0.00    +0.000 C 
ATOM     22  C   UNL     1       1.907   2.841  20.024  0.00  0.00    +0.000 C 
ATOM     23  C   UNL     1       2.466   3.925  20.940  0.00  0.00    +0.000 C 
ENDBRANCH   4   7
BRANCH   1  27
ATOM     24  C   UNL     1      -6.190  12.376  18.406  0.00  0.00    +0.000 A 
ATOM     25  C   UNL     1      -5.288  12.112  17.377  0.00  0.00    +0.000 A 
ATOM     26  C   UNL     1      -3.927  11.880  17.626  0.00  0.00    +0.000 A 
ATOM     27  C   UNL     1      -3.434  11.971  18.943  0.00  0.00    +0.000 A 
ATOM     28  C   UNL     1      -4.342  12.261  19.976  0.00  0.00    +0.000 A 
ATOM     29  C   UNL     1      -5.702  12.470  19.710  0.00  0.00    +0.000 A 
ATOM     30 CL   UNL     1      -6.751  12.814  21.039  0.00  0.00    +0.000 Cl
BRANCH  24  32
ATOM     31  C   UNL     1      -7.916  13.879  17.815  0.00  0.00    +0.000 C 
ATOM     32  O   UNL     1      -7.532  12.552  18.179  0.00  0.00    +0.000 OA
ENDBRANCH  24  32
BRANCH  26  33
ATOM     33  O   UNL     1      -3.123  11.415  16.614  0.00  0.00    +0.000 OA
ATOM     34  C   UNL     1      -3.786  10.714  15.560  0.00  0.00    +0.000 C 
ENDBRANCH  26  33
ENDBRANCH   1  27
TORSDOF 4
ENDMDL
MODEL 5
REMARK VINA RESULT:      -7.9      1.918      2.303
REMARK  Name = 
REMARK  8 active torsions:
REMARK  status: ('A' for Active; 'I' for Inactive)
REMARK    1  A    between atoms: C_1  and  O_2
REMARK    2  A    between atoms: O_2  and  C_3
REMARK    3  A    between atoms: C_5  and  O_6
REMARK    4  A    between atoms: O_6  and  C_7
REMARK    5  A    between atoms: C_8  and  N_9
REMARK    6  A    between atoms: N_12  and  C_13
REMARK    7  A    between atoms: C_22  and  C_23
REMARK    8  A    between atoms: C_26  and  C_27
REMARK                            x       y       z     vdW  Elec       q    Type
REMARK                         _______ _______ _______ _____ _____    ______ ____
ROOT
ATOM      1  N   UNL     1       2.294   7.775  17.789  0.00  0.00    +0.000 N 
ATOM      2  C   UNL     1       1.770   8.733  18.644  0.00  0.00    +0.000 C 
ATOM      3  O   UNL     1       1.747   8.651  19.864  0.00  0.00    +0.000 OA
ATOM      4  N   UNL     1       1.279   9.820  17.918  0.00  0.00    +0.000 N 
ATOM      5  H   UNL     1       2.648   8.149  16.920  0.00  0.00    +0.000 HD
ATOM      6  H   UNL     1       0.855   9.573  17.036  0.00  0.00    +0.000 HD
ENDROOT
BRANCH   4   7
ATOM      7  C   UNL     1       0.610  10.822  18.605  0.00  0.00    +0.000 A 
ATOM      8  S   UNL     1      -1.028  10.468  18.869  0.00  0.00    +0.000 S 
ATOM      9  C   UNL     1      -1.189  11.774  19.951  0.00  0.00    +0.000 A 
ATOM     10  N   UNL     1      -2.322  11.957  20.665  0.00  0.00    +0.000 NA
ATOM     11  C   UNL     1      -2.325  12.991  21.452  0.00  0.00    +0.000 A 
ATOM     12  N   UNL     1      -1.274  13.891  21.570  0.00  0.00    +0.000 N 
ATOM     13  C   UNL     1      -0.076  13.723  20.853  0.00  0.00    +0.000 A 
ATOM     14  O   UNL     1       0.867  14.501  20.941  0.00  0.00    +0.000 OA
ATOM     15  C   UNL     1      -0.047  12.552  19.987  0.00  0.00    +0.000 A 
ATOM     16  C   UNL     1       1.004  12.039  19.135  0.00  0.00    +0.000 A 
ATOM     17  C   UNL     1       2.314  12.711  18.872  0.00  0.00    +0.000 C 
ATOM     18  C   UNL     1      -1.390  15.091  22.399  0.00  0.00    +0.000 C 
ATOM     19  C   UNL     1      -1.416  14.789  23.900  0.00  0.00    +0.000 C 
ATOM     20  C   UNL     1      -2.782  14.357  24.454  0.00  0.00    +0.000 C 
ATOM     21  C   UNL     1      -3.804  15.501  24.429  0.00  0.00    +0.000 C 
ATOM     22  C   UNL     1      -3.316  13.084  23.783  0.00  0.00    +0.000 C 
ATOM     23  C   UNL     1      -3.574  13.204  22.285  0.00  0.00    +0.000 C 
ENDBRANCH   4   7
BRANCH   1  27
ATOM     24  C   UNL     1       3.406   3.860  19.031  0.00  0.00    +0.000 A 
ATOM     25  C   UNL     1       4.287   4.602  18.248  0.00  0.00    +0.000 A 
ATOM     26  C   UNL     1       3.987   5.907  17.829  0.00  0.00    +0.000 A 
ATOM     27  C   UNL     1       2.737   6.473  18.152  0.00  0.00    +0.000 A 
ATOM     28  C   UNL     1       1.841   5.712  18.922  0.00  0.00    +0.000 A 
ATOM     29  C   UNL     1       2.167   4.418  19.349  0.00  0.00    +0.000 A 
ATOM     30 CL   UNL     1       1.009   3.555  20.298  0.00  0.00    +0.000 Cl
BRANCH  24  32
ATOM     31  C   UNL     1       3.551   1.553  18.537  0.00  0.00    +0.000 C 
ATOM     32  O   UNL     1       3.712   2.603  19.491  0.00  0.00    +0.000 OA
ENDBRANCH  24  32
BRANCH  26  33
ATOM     33  O   UNL     1       4.966   6.673  17.246  0.00  0.00    +0.000 OA
ATOM     34  C   UNL     1       5.213   6.427  15.860  0.00  0.00    +0.000 C 
ENDBRANCH  26  33
ENDBRANCH   1  27
TORSDOF 4
ENDMDL
MODEL 6
REMARK VINA RESULT:      -7.8      2.845      3.448
REMARK  Name = 
REMARK  8 active torsions:
REMARK  status: ('A' for Active; 'I' for Inactive)
REMARK    1  A    between atoms: C_1  and  O_2
REMARK    2  A    between atoms: O_2  and  C_3
REMARK    3  A    between atoms: C_5  and  O_6
REMARK    4  A    between atoms: O_6  and  C_7
REMARK    5  A    between atoms: C_8  and  N_9
REMARK    6  A    between atoms: N_12  and  C_13
REMARK    7  A    between atoms: C_22  and  C_23
REMARK    8  A    between atoms: C_26  and  C_27
REMARK                            x       y       z     vdW  Elec       q    Type
REMARK                         _______ _______ _______ _____ _____    ______ ____
ROOT
ATOM      1  N   UNL     1       2.467   8.073  18.036  0.00  0.00    +0.000 N 
ATOM      2  C   UNL     1       1.458   8.805  18.642  0.00  0.00    +0.000 C 
ATOM      3  O   UNL     1       0.947   8.541  19.721  0.00  0.00    +0.000 OA
ATOM      4  N   UNL     1       1.107   9.902  17.853  0.00  0.00    +0.000 N 
ATOM      5  H   UNL     1       3.068   8.621  17.436  0.00  0.00    +0.000 HD
ATOM      6  H   UNL     1       1.146   9.728  16.859  0.00  0.00    +0.000 HD
ENDROOT
BRANCH   4   7
ATOM      7  C   UNL     1       0.029  10.680  18.248  0.00  0.00    +0.000 A 
ATOM      8  S   UNL     1      -1.370  10.391  17.334  0.00  0.00    +0.000 S 
ATOM      9  C   UNL     1      -2.327  11.289  18.421  0.00  0.00    +0.000 A 
ATOM     10  N   UNL     1      -3.673  11.323  18.306  0.00  0.00    +0.000 NA
ATOM     11  C   UNL     1      -4.291  12.046  19.191  0.00  0.00    +0.000 A 
ATOM     12  N   UNL     1      -3.659  12.774  20.190  0.00  0.00    +0.000 N 
ATOM     13  C   UNL     1      -2.262  12.750  20.347  0.00  0.00    +0.000 A 
ATOM     14  O   UNL     1      -1.679  13.381  21.222  0.00  0.00    +0.000 OA
ATOM     15  C   UNL     1      -1.557  11.921  19.378  0.00  0.00    +0.000 A 
ATOM     16  C   UNL     1      -0.146  11.627  19.243  0.00  0.00    +0.000 A 
ATOM     17  C   UNL     1       0.950  12.241  20.053  0.00  0.00    +0.000 C 
ATOM     18  C   UNL     1      -4.414  13.648  21.088  0.00  0.00    +0.000 C 
ATOM     19  C   UNL     1      -5.294  12.884  22.079  0.00  0.00    +0.000 C 
ATOM     20  C   UNL     1      -6.643  12.407  21.521  0.00  0.00    +0.000 C 
ATOM     21  C   UNL     1      -7.591  13.576  21.221  0.00  0.00    +0.000 C 
ATOM     22  C   UNL     1      -6.485  11.464  20.320  0.00  0.00    +0.000 C 
ATOM     23  C   UNL     1      -5.805  12.078  19.102  0.00  0.00    +0.000 C 
ENDBRANCH   4   7
BRANCH   1  27
ATOM     24  C   UNL     1       3.775   4.297  19.500  0.00  0.00    +0.000 A 
ATOM     25  C   UNL     1       4.542   4.961  18.545  0.00  0.00    +0.000 A 
ATOM     26  C   UNL     1       4.175   6.218  18.043  0.00  0.00    +0.000 A 
ATOM     27  C   UNL     1       2.969   6.813  18.464  0.00  0.00    +0.000 A 
ATOM     28  C   UNL     1       2.185   6.130  19.410  0.00  0.00    +0.000 A 
ATOM     29  C   UNL     1       2.578   4.883  19.915  0.00  0.00    +0.000 A 
ATOM     30 CL   UNL     1       1.558   4.116  21.080  0.00  0.00    +0.000 Cl
BRANCH  24  32
ATOM     31  C   UNL     1       3.866   1.951  19.226  0.00  0.00    +0.000 C 
ATOM     32  O   UNL     1       4.152   3.091  20.037  0.00  0.00    +0.000 OA
ENDBRANCH  24  32
BRANCH  26  33
ATOM     33  O   UNL     1       5.065   6.925  17.271  0.00  0.00    +0.000 OA
ATOM     34  C   UNL     1       5.136   6.550  15.894  0.00  0.00    +0.000 C 
ENDBRANCH  26  33
ENDBRANCH   1  27
TORSDOF 4
ENDMDL
MODEL 7
REMARK VINA RESULT:      -7.8      0.995      1.021
REMARK  Name = 
REMARK  8 active torsions:
REMARK  status: ('A' for Active; 'I' for Inactive)
REMARK    1  A    between atoms: C_1  and  O_2
REMARK    2  A    between atoms: O_2  and  C_3
REMARK    3  A    between atoms: C_5  and  O_6
REMARK    4  A    between atoms: O_6  and  C_7
REMARK    5  A    between atoms: C_8  and  N_9
REMARK    6  A    between atoms: N_12  and  C_13
REMARK    7  A    between atoms: C_22  and  C_23
REMARK    8  A    between atoms: C_26  and  C_27
REMARK                            x       y       z     vdW  Elec       q    Type
REMARK                         _______ _______ _______ _____ _____    ______ ____
ROOT
ATOM      1  N   UNL     1       1.926   7.657  21.023  0.00  0.00    +0.000 N 
ATOM      2  C   UNL     1       0.909   8.599  21.029  0.00  0.00    +0.000 C 
ATOM      3  O   UNL     1      -0.125   8.523  20.380  0.00  0.00    +0.000 OA
ATOM      4  N   UNL     1       1.220   9.651  21.893  0.00  0.00    +0.000 N 
ATOM      5  H   UNL     1       2.451   7.614  21.885  0.00  0.00    +0.000 HD
ATOM      6  H   UNL     1       2.201   9.892  21.916  0.00  0.00    +0.000 HD
ENDROOT
BRANCH   4   7
ATOM      7  C   UNL     1       0.368  10.743  21.934  0.00  0.00    +0.000 A 
ATOM      8  S   UNL     1      -0.917  10.544  23.023  0.00  0.00    +0.000 S 
ATOM      9  C   UNL     1      -1.351  12.186  22.891  0.00  0.00    +0.000 A 
ATOM     10  N   UNL     1      -2.300  12.726  23.687  0.00  0.00    +0.000 NA
ATOM     11  C   UNL     1      -2.546  13.986  23.487  0.00  0.00    +0.000 A 
ATOM     12  N   UNL     1      -1.925  14.764  22.518  0.00  0.00    +0.000 N 
ATOM     13  C   UNL     1      -0.925  14.237  21.682  0.00  0.00    +0.000 A 
ATOM     14  O   UNL     1      -0.359  14.902  20.821  0.00  0.00    +0.000 OA
ATOM     15  C   UNL     1      -0.618  12.832  21.914  0.00  0.00    +0.000 A 
ATOM     16  C   UNL     1       0.357  11.966  21.285  0.00  0.00    +0.000 A 
ATOM     17  C   UNL     1       1.223  12.335  20.123  0.00  0.00    +0.000 C 
ATOM     18  C   UNL     1      -2.328  16.150  22.282  0.00  0.00    +0.000 C 
ATOM     19  C   UNL     1      -1.935  17.096  23.419  0.00  0.00    +0.000 C 
ATOM     20  C   UNL     1      -2.887  17.098  24.624  0.00  0.00    +0.000 C 
ATOM     21  C   UNL     1      -4.255  17.702  24.281  0.00  0.00    +0.000 C 
ATOM     22  C   UNL     1      -3.009  15.717  25.281  0.00  0.00    +0.000 C 
ATOM     23  C   UNL     1      -3.587  14.625  24.388  0.00  0.00    +0.000 C 
ENDBRANCH   4   7
BRANCH   1  27
ATOM     24  C   UNL     1       2.191   4.147  18.632  0.00  0.00    +0.000 A 
ATOM     25  C   UNL     1       2.554   5.375  18.082  0.00  0.00    +0.000 A 
ATOM     26  C   UNL     1       2.511   6.562  18.828  0.00  0.00    +0.000 A 
ATOM     27  C   UNL     1       2.034   6.536  20.154  0.00  0.00    +0.000 A 
ATOM     28  C   UNL     1       1.646   5.299  20.698  0.00  0.00    +0.000 A 
ATOM     29  C   UNL     1       1.715   4.120  19.944  0.00  0.00    +0.000 A 
ATOM     30 CL   UNL     1       1.226   2.641  20.692  0.00  0.00    +0.000 Cl
BRANCH  24  32
ATOM     31  C   UNL     1       3.546   2.314  18.004  0.00  0.00    +0.000 C 
ATOM     32  O   UNL     1       2.280   2.972  17.928  0.00  0.00    +0.000 OA
ENDBRANCH  24  32
BRANCH  26  33
ATOM     33  O   UNL     1       3.077   7.704  18.317  0.00  0.00    +0.000 OA
ATOM     34  C   UNL     1       2.184   8.606  17.659  0.00  0.00    +0.000 C 
ENDBRANCH  26  33
ENDBRANCH   1  27
TORSDOF 4
ENDMDL
MODEL 8
REMARK VINA RESULT:      -7.8      3.398     10.722
REMARK  Name = 
REMARK  8 active torsions:
REMARK  status: ('A' for Active; 'I' for Inactive)
REMARK    1  A    between atoms: C_1  and  O_2
REMARK    2  A    between atoms: O_2  and  C_3
REMARK    3  A    between atoms: C_5  and  O_6
REMARK    4  A    between atoms: O_6  and  C_7
REMARK    5  A    between atoms: C_8  and  N_9
REMARK    6  A    between atoms: N_12  and  C_13
REMARK    7  A    between atoms: C_22  and  C_23
REMARK    8  A    between atoms: C_26  and  C_27
REMARK                            x       y       z     vdW  Elec       q    Type
REMARK                         _______ _______ _______ _____ _____    ______ ____
ROOT
ATOM      1  N   UNL     1      -1.137  11.993  21.060  0.00  0.00    +0.000 N 
ATOM      2  C   UNL     1      -0.749  10.878  20.334  0.00  0.00    +0.000 C 
ATOM      3  O   UNL     1      -1.510  10.094  19.787  0.00  0.00    +0.000 OA
ATOM      4  N   UNL     1       0.644  10.775  20.302  0.00  0.00    +0.000 N 
ATOM      5  H   UNL     1      -0.462  12.744  21.051  0.00  0.00    +0.000 HD
ATOM      6  H   UNL     1       1.101  11.072  21.152  0.00  0.00    +0.000 HD
ENDROOT
BRANCH   4   7
ATOM      7  C   UNL     1       1.208   9.651  19.719  0.00  0.00    +0.000 A 
ATOM      8  S   UNL     1       1.783   9.934  18.148  0.00  0.00    +0.000 S 
ATOM      9  C   UNL     1       2.590   8.434  18.119  0.00  0.00    +0.000 A 
ATOM     10  N   UNL     1       3.415   8.103  17.101  0.00  0.00    +0.000 NA
ATOM     11  C   UNL     1       3.969   6.931  17.190  0.00  0.00    +0.000 A 
ATOM     12  N   UNL     1       3.742   6.031  18.223  0.00  0.00    +0.000 N 
ATOM     13  C   UNL     1       2.901   6.349  19.304  0.00  0.00    +0.000 A 
ATOM     14  O   UNL     1       2.686   5.575  20.231  0.00  0.00    +0.000 OA
ATOM     15  C   UNL     1       2.295   7.672  19.233  0.00  0.00    +0.000 A 
ATOM     16  C   UNL     1       1.415   8.354  20.157  0.00  0.00    +0.000 A 
ATOM     17  C   UNL     1       0.827   7.757  21.396  0.00  0.00    +0.000 C 
ATOM     18  C   UNL     1       4.320   4.688  18.203  0.00  0.00    +0.000 C 
ATOM     19  C   UNL     1       5.837   4.678  18.409  0.00  0.00    +0.000 C 
ATOM     20  C   UNL     1       6.667   4.980  17.153  0.00  0.00    +0.000 C 
ATOM     21  C   UNL     1       6.567   3.859  16.110  0.00  0.00    +0.000 C 
ATOM     22  C   UNL     1       6.356   6.359  16.556  0.00  0.00    +0.000 C 
ATOM     23  C   UNL     1       4.922   6.545  16.074  0.00  0.00    +0.000 C 
ENDBRANCH   4   7
BRANCH   1  27
ATOM     24  C   UNL     1      -5.054  12.926  22.440  0.00  0.00    +0.000 A 
ATOM     25  C   UNL     1      -4.770  13.021  21.079  0.00  0.00    +0.000 A 
ATOM     26  C   UNL     1      -3.505  12.704  20.562  0.00  0.00    +0.000 A 
ATOM     27  C   UNL     1      -2.466  12.333  21.439  0.00  0.00    +0.000 A 
ATOM     28  C   UNL     1      -2.749  12.261  22.814  0.00  0.00    +0.000 A 
ATOM     29  C   UNL     1      -4.024  12.562  23.310  0.00  0.00    +0.000 A 
ATOM     30 CL   UNL     1      -4.288  12.442  25.013  0.00  0.00    +0.000 Cl
BRANCH  24  32
ATOM     31  C   UNL     1      -6.600  14.565  23.153  0.00  0.00    +0.000 C 
ATOM     32  O   UNL     1      -6.302  13.183  22.950  0.00  0.00    +0.000 OA
ENDBRANCH  24  32
BRANCH  26  33
ATOM     33  O   UNL     1      -3.334  12.605  19.203  0.00  0.00    +0.000 OA
ATOM     34  C   UNL     1      -4.271  11.776  18.512  0.00  0.00    +0.000 C 
ENDBRANCH  26  33
ENDBRANCH   1  27
TORSDOF 4
ENDMDL
MODEL 9
REMARK VINA RESULT:      -7.7      3.590      4.400
REMARK  Name = 
REMARK  8 active torsions:
REMARK  status: ('A' for Active; 'I' for Inactive)
REMARK    1  A    between atoms: C_1  and  O_2
REMARK    2  A    between atoms: O_2  and  C_3
REMARK    3  A    between atoms: C_5  and  O_6
REMARK    4  A    between atoms: O_6  and  C_7
REMARK    5  A    between atoms: C_8  and  N_9
REMARK    6  A    between atoms: N_12  and  C_13
REMARK    7  A    between atoms: C_22  and  C_23
REMARK    8  A    between atoms: C_26  and  C_27
REMARK                            x       y       z     vdW  Elec       q    Type
REMARK                         _______ _______ _______ _____ _____    ______ ____
ROOT
ATOM      1  N   UNL     1       2.584   6.505  18.899  0.00  0.00    +0.000 N 
ATOM      2  C   UNL     1       2.188   7.828  18.778  0.00  0.00    +0.000 C 
ATOM      3  O   UNL     1       2.578   8.603  17.917  0.00  0.00    +0.000 OA
ATOM      4  N   UNL     1       1.266   8.157  19.774  0.00  0.00    +0.000 N 
ATOM      5  H   UNL     1       1.888   5.905  19.320  0.00  0.00    +0.000 HD
ATOM      6  H   UNL     1       1.437   7.707  20.662  0.00  0.00    +0.000 HD
ENDROOT
BRANCH   4   7
ATOM      7  C   UNL     1       0.851   9.475  19.878  0.00  0.00    +0.000 A 
ATOM      8  S   UNL     1       1.343  10.216  21.322  0.00  0.00    +0.000 S 
ATOM      9  C   UNL     1       0.885  11.754  20.750  0.00  0.00    +0.000 A 
ATOM     10  N   UNL     1       1.174  12.875  21.447  0.00  0.00    +0.000 NA
ATOM     11  C   UNL     1       0.769  13.986  20.910  0.00  0.00    +0.000 A 
ATOM     12  N   UNL     1       0.061  14.070  19.718  0.00  0.00    +0.000 N 
ATOM     13  C   UNL     1      -0.244  12.925  18.961  0.00  0.00    +0.000 A 
ATOM     14  O   UNL     1      -0.865  12.972  17.904  0.00  0.00    +0.000 OA
ATOM     15  C   UNL     1       0.229  11.673  19.536  0.00  0.00    +0.000 A 
ATOM     16  C   UNL     1       0.136  10.316  19.042  0.00  0.00    +0.000 A 
ATOM     17  C   UNL     1      -0.607   9.889  17.817  0.00  0.00    +0.000 C 
ATOM     18  C   UNL     1      -0.453  15.348  19.227  0.00  0.00    +0.000 C 
ATOM     19  C   UNL     1       0.646  16.298  18.744  0.00  0.00    +0.000 C 
ATOM     20  C   UNL     1       1.358  17.088  19.851  0.00  0.00    +0.000 C 
ATOM     21  C   UNL     1       0.435  18.120  20.512  0.00  0.00    +0.000 C 
ATOM     22  C   UNL     1       2.043  16.177  20.879  0.00  0.00    +0.000 C 
ATOM     23  C   UNL     1       1.105  15.263  21.658  0.00  0.00    +0.000 C 
ENDBRANCH   4   7
BRANCH   1  27
ATOM     24  C   UNL     1       5.829   4.813  16.727  0.00  0.00    +0.000 A 
ATOM     25  C   UNL     1       4.637   4.099  16.837  0.00  0.00    +0.000 A 
ATOM     26  C   UNL     1       3.525   4.615  17.520  0.00  0.00    +0.000 A 
ATOM     27  C   UNL     1       3.621   5.864  18.167  0.00  0.00    +0.000 A 
ATOM     28  C   UNL     1       4.833   6.570  18.074  0.00  0.00    +0.000 A 
ATOM     29  C   UNL     1       5.927   6.048  17.371  0.00  0.00    +0.000 A 
ATOM     30 CL   UNL     1       7.376   6.985  17.300  0.00  0.00    +0.000 Cl
BRANCH  24  32
ATOM     31  C   UNL     1       6.836   4.548  14.605  0.00  0.00    +0.000 C 
ATOM     32  O   UNL     1       6.905   4.341  16.017  0.00  0.00    +0.000 OA
ENDBRANCH  24  32
BRANCH  26  33
ATOM     33  O   UNL     1       2.313   3.978  17.419  0.00  0.00    +0.000 OA
ATOM     34  C   UNL     1       2.311   2.583  17.731  0.00  0.00    +0.000 C 
ENDBRANCH  26  33
ENDBRANCH   1  27
TORSDOF 4
ENDMDL
