MODEL 1
REMARK VINA RESULT:      -8.0      0.000      0.000
REMARK  Name = 
REMARK  7 active torsions:
REMARK  status: ('A' for Active; 'I' for Inactive)
REMARK    1  A    between atoms: C_1  and  C_2
REMARK    2  A    between atoms: C_5  and  C_6
REMARK    3  A    between atoms: C_7  and  S_8
REMARK    4  A    between atoms: S_8  and  N_11
REMARK    5  A    between atoms: C_14  and  C_15
REMARK    6  A    between atoms: C_14  and  C_17
REMARK    7  A    between atoms: C_17  and  C_18
REMARK                            x       y       z     vdW  Elec       q    Type
REMARK                         _______ _______ _______ _____ _____    ______ ____
ROOT
ATOM      1  N   UNL     1       4.355   5.772  18.676  0.00  0.00    +0.000 NA
ATOM      2  C   UNL     1       4.311   6.767  17.580  0.00  0.00    +0.000 C 
ATOM      3  C   UNL     1       5.260   6.365  16.444  0.00  0.00    +0.000 C 
ATOM      4  C   UNL     1       6.709   6.071  16.908  0.00  0.00    +0.000 C 
ATOM      5  C   UNL     1       6.739   5.248  18.224  0.00  0.00    +0.000 C 
ATOM      6  C   UNL     1       5.713   5.696  19.271  0.00  0.00    +0.000 C 
ENDROOT
BRANCH   1   7
ATOM      7  S   UNL     1       3.479   4.314  18.458  0.00  0.00    +0.000 S 
ATOM      8  O   UNL     1       4.380   3.346  17.886  0.00  0.00    +0.000 OA
ATOM      9  O   UNL     1       2.206   4.627  17.853  0.00  0.00    +0.000 OA
BRANCH   7  16
ATOM     10  C   UNL     1       1.471   5.481  20.883  0.00  0.00    +0.000 C 
ATOM     11  C   UNL     1       2.083   4.129  20.863  0.00  0.00    +0.000 A 
ATOM     12  N   UNL     1       1.834   3.287  21.876  0.00  0.00    +0.000 NA
ATOM     13  N   UNL     1       2.693   2.281  21.679  0.00  0.00    +0.000 N 
ATOM     14  C   UNL     1       3.549   2.487  20.625  0.00  0.00    +0.000 A 
ATOM     15  C   UNL     1       4.766   1.672  20.468  0.00  0.00    +0.000 C 
ATOM     16  C   UNL     1       3.026   3.576  19.951  0.00  0.00    +0.000 A 
ATOM     17  H   UNL     1       2.695   1.524  22.354  0.00  0.00    +0.000 HD
ENDBRANCH   7  16
ENDBRANCH   1   7
BRANCH   4  18
ATOM     18  C   UNL     1       7.378   7.377  17.183  0.00  0.00    +0.000 C 
ATOM     19  N   UNL     1       7.903   8.392  17.404  0.00  0.00    +0.000 NA
ENDBRANCH   4  18
BRANCH   4  20
ATOM     20  C   UNL     1       7.540   5.384  15.760  0.00  0.00    +0.000 C 
BRANCH  20  21
ATOM     21  C   UNL     1       6.813   4.725  14.596  0.00  0.00    +0.000 A 
ATOM     22  C   UNL     1       7.412   4.677  13.325  0.00  0.00    +0.000 A 
ATOM     23  C   UNL     1       6.766   4.064  12.243  0.00  0.00    +0.000 A 
ATOM     24  C   UNL     1       5.509   3.496  12.419  0.00  0.00    +0.000 A 
ATOM     25 CL   UNL     1       4.701   2.760  11.090  0.00  0.00    +0.000 Cl
ATOM     26  C   UNL     1       4.909   3.507  13.673  0.00  0.00    +0.000 A 
ATOM     27  C   UNL     1       5.569   4.097  14.758  0.00  0.00    +0.000 A 
ENDBRANCH  20  21
ENDBRANCH   4  20
TORSDOF 5
ENDMDL
MODEL 2
REMARK VINA RESULT:      -7.9      1.291      1.560
REMARK  Name = 
REMARK  7 active torsions:
REMARK  status: ('A' for Active; 'I' for Inactive)
REMARK    1  A    between atoms: C_1  and  C_2
REMARK    2  A    between atoms: C_5  and  C_6
REMARK    3  A    between atoms: C_7  and  S_8
REMARK    4  A    between atoms: S_8  and  N_11
REMARK    5  A    between atoms: C_14  and  C_15
REMARK    6  A    between atoms: C_14  and  C_17
REMARK    7  A    between atoms: C_17  and  C_18
REMARK                            x       y       z     vdW  Elec       q    Type
REMARK                         _______ _______ _______ _____ _____    ______ ____
ROOT
ATOM      1  N   UNL     1       4.837   5.041  19.047  0.00  0.00    +0.000 NA
ATOM      2  C   UNL     1       4.435   6.025  18.017  0.00  0.00    +0.000 C 
ATOM      3  C   UNL     1       5.276   5.854  16.746  0.00  0.00    +0.000 C 
ATOM      4  C   UNL     1       6.805   5.862  16.996  0.00  0.00    +0.000 C 
ATOM      5  C   UNL     1       7.190   5.039  18.255  0.00  0.00    +0.000 C 
ATOM      6  C   UNL     1       6.252   5.241  19.450  0.00  0.00    +0.000 C 
ENDROOT
BRANCH   1   7
ATOM      7  S   UNL     1       4.258   3.436  18.879  0.00  0.00    +0.000 S 
ATOM      8  O   UNL     1       4.941   2.622  19.852  0.00  0.00    +0.000 OA
ATOM      9  O   UNL     1       4.239   3.098  17.475  0.00  0.00    +0.000 OA
BRANCH   7  16
ATOM     10  C   UNL     1       1.495   4.511  17.301  0.00  0.00    +0.000 C 
ATOM     11  C   UNL     1       1.504   3.684  18.535  0.00  0.00    +0.000 A 
ATOM     12  N   UNL     1       0.335   3.324  19.084  0.00  0.00    +0.000 NA
ATOM     13  N   UNL     1       0.681   2.807  20.268  0.00  0.00    +0.000 N 
ATOM     14  C   UNL     1       2.023   2.903  20.540  0.00  0.00    +0.000 A 
ATOM     15  C   UNL     1       2.534   2.712  21.909  0.00  0.00    +0.000 C 
ATOM     16  C   UNL     1       2.602   3.270  19.339  0.00  0.00    +0.000 A 
ATOM     17  H   UNL     1      -0.064   2.483  20.876  0.00  0.00    +0.000 HD
ENDBRANCH   7  16
ENDBRANCH   1   7
BRANCH   4  18
ATOM     18  C   UNL     1       7.223   7.274  17.242  0.00  0.00    +0.000 C 
ATOM     19  N   UNL     1       7.541   8.377  17.437  0.00  0.00    +0.000 NA
ENDBRANCH   4  18
BRANCH   4  20
ATOM     20  C   UNL     1       7.589   5.388  15.714  0.00  0.00    +0.000 C 
BRANCH  20  21
ATOM     21  C   UNL     1       6.830   4.735  14.567  0.00  0.00    +0.000 A 
ATOM     22  C   UNL     1       7.404   4.674  13.285  0.00  0.00    +0.000 A 
ATOM     23  C   UNL     1       6.728   4.067  12.219  0.00  0.00    +0.000 A 
ATOM     24  C   UNL     1       5.466   3.518  12.420  0.00  0.00    +0.000 A 
ATOM     25 CL   UNL     1       4.622   2.788  11.111  0.00  0.00    +0.000 Cl
ATOM     26  C   UNL     1       4.892   3.542  13.686  0.00  0.00    +0.000 A 
ATOM     27  C   UNL     1       5.581   4.126  14.756  0.00  0.00    +0.000 A 
ENDBRANCH  20  21
ENDBRANCH   4  20
TORSDOF 5
ENDMDL
MODEL 3
REMARK VINA RESULT:      -7.8      1.139      2.024
REMARK  Name = 
REMARK  7 active torsions:
REMARK  status: ('A' for Active; 'I' for Inactive)
REMARK    1  A    between atoms: C_1  and  C_2
REMARK    2  A    between atoms: C_5  and  C_6
REMARK    3  A    between atoms: C_7  and  S_8
REMARK    4  A    between atoms: S_8  and  N_11
REMARK    5  A    between atoms: C_14  and  C_15
REMARK    6  A    between atoms: C_14  and  C_17
REMARK    7  A    between atoms: C_17  and  C_18
REMARK                            x       y       z     vdW  Elec       q    Type
REMARK                         _______ _______ _______ _____ _____    ______ ____
ROOT
ATOM      1  N   UNL     1       4.789   5.505  18.865  0.00  0.00    +0.000 NA
ATOM      2  C   UNL     1       4.579   6.514  17.801  0.00  0.00    +0.000 C 
ATOM      3  C   UNL     1       5.481   6.227  16.595  0.00  0.00    +0.000 C 
ATOM      4  C   UNL     1       6.979   6.060  16.954  0.00  0.00    +0.000 C 
ATOM      5  C   UNL     1       7.175   5.216  18.243  0.00  0.00    +0.000 C 
ATOM      6  C   UNL     1       6.186   5.545  19.366  0.00  0.00    +0.000 C 
ENDROOT
BRANCH   1   7
ATOM      7  S   UNL     1       4.039   3.976  18.666  0.00  0.00    +0.000 S 
ATOM      8  O   UNL     1       4.849   3.001  19.352  0.00  0.00    +0.000 OA
ATOM      9  O   UNL     1       3.664   3.823  17.280  0.00  0.00    +0.000 OA
BRANCH   7  16
ATOM     10  C   UNL     1       1.702   1.569  18.497  0.00  0.00    +0.000 C 
ATOM     11  C   UNL     1       1.656   2.738  19.412  0.00  0.00    +0.000 A 
ATOM     12  N   UNL     1       0.615   2.869  20.246  0.00  0.00    +0.000 NA
ATOM     13  N   UNL     1       0.755   4.102  20.745  0.00  0.00    +0.000 N 
ATOM     14  C   UNL     1       1.799   4.803  20.195  0.00  0.00    +0.000 A 
ATOM     15  C   UNL     1       1.899   6.264  20.357  0.00  0.00    +0.000 C 
ATOM     16  C   UNL     1       2.526   3.861  19.490  0.00  0.00    +0.000 A 
ATOM     17  H   UNL     1       0.049   4.429  21.397  0.00  0.00    +0.000 HD
ENDBRANCH   7  16
ENDBRANCH   1   7
BRANCH   4  18
ATOM     18  C   UNL     1       7.542   7.417  17.220  0.00  0.00    +0.000 C 
ATOM     19  N   UNL     1       7.984   8.472  17.434  0.00  0.00    +0.000 NA
ENDBRANCH   4  18
BRANCH   4  20
ATOM     20  C   UNL     1       7.790   5.478  15.735  0.00  0.00    +0.000 C 
BRANCH  20  21
ATOM     21  C   UNL     1       7.048   4.784  14.602  0.00  0.00    +0.000 A 
ATOM     22  C   UNL     1       5.884   4.041  14.870  0.00  0.00    +0.000 A 
ATOM     23  C   UNL     1       5.180   3.405  13.840  0.00  0.00    +0.000 A 
ATOM     24  C   UNL     1       5.634   3.499  12.529  0.00  0.00    +0.000 A 
ATOM     25 CL   UNL     1       4.784   2.703  11.262  0.00  0.00    +0.000 Cl
ATOM     26  C   UNL     1       6.766   4.251  12.237  0.00  0.00    +0.000 A 
ATOM     27  C   UNL     1       7.453   4.907  13.265  0.00  0.00    +0.000 A 
ENDBRANCH  20  21
ENDBRANCH   4  20
TORSDOF 5
ENDMDL
MODEL 4
REMARK VINA RESULT:      -7.7      0.806      1.604
REMARK  Name = 
REMARK  7 active torsions:
REMARK  status: ('A' for Active; 'I' for Inactive)
REMARK    1  A    between atoms: C_1  and  C_2
REMARK    2  A    between atoms: C_5  and  C_6
REMARK    3  A    between atoms: C_7  and  S_8
REMARK    4  A    between atoms: S_8  and  N_11
REMARK    5  A    between atoms: C_14  and  C_15
REMARK    6  A    between atoms: C_14  and  C_17
REMARK    7  A    between atoms: C_17  and  C_18
REMARK                            x       y       z     vdW  Elec       q    Type
REMARK                         _______ _______ _______ _____ _____    ______ ____
ROOT
ATOM      1  N   UNL     1       4.312   5.848  18.549  0.00  0.00    +0.000 NA
ATOM      2  C   UNL     1       4.321   6.902  17.510  0.00  0.00    +0.000 C 
ATOM      3  C   UNL     1       5.297   6.544  16.383  0.00  0.00    +0.000 C 
ATOM      4  C   UNL     1       6.725   6.193  16.872  0.00  0.00    +0.000 C 
ATOM      5  C   UNL     1       6.698   5.299  18.141  0.00  0.00    +0.000 C 
ATOM      6  C   UNL     1       5.649   5.711  19.180  0.00  0.00    +0.000 C 
ENDROOT
BRANCH   1   7
ATOM      7  S   UNL     1       3.414   4.423  18.225  0.00  0.00    +0.000 S 
ATOM      8  O   UNL     1       4.356   3.348  18.041  0.00  0.00    +0.000 OA
ATOM      9  O   UNL     1       2.401   4.730  17.243  0.00  0.00    +0.000 OA
BRANCH   7  16
ATOM     10  C   UNL     1       1.939   1.454  18.761  0.00  0.00    +0.000 C 
ATOM     11  C   UNL     1       1.993   2.568  19.742  0.00  0.00    +0.000 A 
ATOM     12  N   UNL     1       1.416   2.404  20.942  0.00  0.00    +0.000 NA
ATOM     13  N   UNL     1       1.435   3.630  21.477  0.00  0.00    +0.000 N 
ATOM     14  C   UNL     1       1.922   4.594  20.629  0.00  0.00    +0.000 A 
ATOM     15  C   UNL     1       1.702   6.025  20.904  0.00  0.00    +0.000 C 
ATOM     16  C   UNL     1       2.489   3.891  19.582  0.00  0.00    +0.000 A 
ATOM     17  H   UNL     1       1.021   3.749  22.396  0.00  0.00    +0.000 HD
ENDBRANCH   7  16
ENDBRANCH   1   7
BRANCH   4  18
ATOM     18  C   UNL     1       7.410   7.468  17.240  0.00  0.00    +0.000 C 
ATOM     19  N   UNL     1       7.952   8.457  17.527  0.00  0.00    +0.000 NA
ENDBRANCH   4  18
BRANCH   4  20
ATOM     20  C   UNL     1       7.577   5.553  15.713  0.00  0.00    +0.000 C 
BRANCH  20  21
ATOM     21  C   UNL     1       6.875   4.814  14.583  0.00  0.00    +0.000 A 
ATOM     22  C   UNL     1       7.436   4.797  13.293  0.00  0.00    +0.000 A 
ATOM     23  C   UNL     1       6.813   4.113  12.242  0.00  0.00    +0.000 A 
ATOM     24  C   UNL     1       5.616   3.440  12.466  0.00  0.00    +0.000 A 
ATOM     25 CL   UNL     1       4.835   2.615  11.175  0.00  0.00    +0.000 Cl
ATOM     26  C   UNL     1       5.058   3.419  13.739  0.00  0.00    +0.000 A 
ATOM     27  C   UNL     1       5.697   4.083  14.793  0.00  0.00    +0.000 A 
ENDBRANCH  20  21
ENDBRANCH   4  20
TORSDOF 5
ENDMDL
MODEL 5
REMARK VINA RESULT:      -7.6      1.437      2.275
REMARK  Name = 
REMARK  7 active torsions:
REMARK  status: ('A' for Active; 'I' for Inactive)
REMARK    1  A    between atoms: C_1  and  C_2
REMARK    2  A    between atoms: C_5  and  C_6
REMARK    3  A    between atoms: C_7  and  S_8
REMARK    4  A    between atoms: S_8  and  N_11
REMARK    5  A    between atoms: C_14  and  C_15
REMARK    6  A    between atoms: C_14  and  C_17
REMARK    7  A    between atoms: C_17  and  C_18
REMARK                            x       y       z     vdW  Elec       q    Type
REMARK                         _______ _______ _______ _____ _____    ______ ____
ROOT
ATOM      1  N   UNL     1       5.533   4.389  19.214  0.00  0.00    +0.000 NA
ATOM      2  C   UNL     1       4.972   5.759  19.171  0.00  0.00    +0.000 C 
ATOM      3  C   UNL     1       4.671   6.177  17.727  0.00  0.00    +0.000 C 
ATOM      4  C   UNL     1       5.870   6.007  16.759  0.00  0.00    +0.000 C 
ATOM      5  C   UNL     1       6.624   4.672  17.002  0.00  0.00    +0.000 C 
ATOM      6  C   UNL     1       6.822   4.320  18.480  0.00  0.00    +0.000 C 
ENDROOT
BRANCH   1   7
ATOM      7  S   UNL     1       4.438   3.079  19.060  0.00  0.00    +0.000 S 
ATOM      8  O   UNL     1       4.845   2.059  19.994  0.00  0.00    +0.000 OA
ATOM      9  O   UNL     1       4.246   2.800  17.657  0.00  0.00    +0.000 OA
BRANCH   7  16
ATOM     10  C   UNL     1       2.820   2.081  21.829  0.00  0.00    +0.000 C 
ATOM     11  C   UNL     1       2.299   3.064  20.846  0.00  0.00    +0.000 A 
ATOM     12  N   UNL     1       1.093   3.612  21.053  0.00  0.00    +0.000 NA
ATOM     13  N   UNL     1       0.827   4.250  19.908  0.00  0.00    +0.000 N 
ATOM     14  C   UNL     1       1.780   4.057  18.937  0.00  0.00    +0.000 A 
ATOM     15  C   UNL     1       1.501   4.382  17.527  0.00  0.00    +0.000 C 
ATOM     16  C   UNL     1       2.845   3.472  19.597  0.00  0.00    +0.000 A 
ATOM     17  H   UNL     1      -0.064   4.728  19.830  0.00  0.00    +0.000 HD
ENDBRANCH   7  16
ENDBRANCH   1   7
BRANCH   4  18
ATOM     18  C   UNL     1       6.833   7.117  17.021  0.00  0.00    +0.000 C 
ATOM     19  N   UNL     1       7.581   7.987  17.217  0.00  0.00    +0.000 NA
ENDBRANCH   4  18
BRANCH   4  20
ATOM     20  C   UNL     1       5.411   6.166  15.260  0.00  0.00    +0.000 C 
BRANCH  20  21
ATOM     21  C   UNL     1       5.916   5.185  14.211  0.00  0.00    +0.000 A 
ATOM     22  C   UNL     1       5.096   4.125  13.783  0.00  0.00    +0.000 A 
ATOM     23  C   UNL     1       5.536   3.218  12.810  0.00  0.00    +0.000 A 
ATOM     24  C   UNL     1       6.804   3.357  12.256  0.00  0.00    +0.000 A 
ATOM     25 CL   UNL     1       7.358   2.235  11.076  0.00  0.00    +0.000 Cl
ATOM     26  C   UNL     1       7.621   4.414  12.644  0.00  0.00    +0.000 A 
ATOM     27  C   UNL     1       7.168   5.333  13.598  0.00  0.00    +0.000 A 
ENDBRANCH  20  21
ENDBRANCH   4  20
TORSDOF 5
ENDMDL
MODEL 6
REMARK VINA RESULT:      -7.6      3.306      5.346
REMARK  Name = 
REMARK  7 active torsions:
REMARK  status: ('A' for Active; 'I' for Inactive)
REMARK    1  A    between atoms: C_1  and  C_2
REMARK    2  A    between atoms: C_5  and  C_6
REMARK    3  A    between atoms: C_7  and  S_8
REMARK    4  A    between atoms: S_8  and  N_11
REMARK    5  A    between atoms: C_14  and  C_15
REMARK    6  A    between atoms: C_14  and  C_17
REMARK    7  A    between atoms: C_17  and  C_18
REMARK                            x       y       z     vdW  Elec       q    Type
REMARK                         _______ _______ _______ _____ _____    ______ ____
ROOT
ATOM      1  N   UNL     1       5.034   3.513  17.911  0.00  0.00    +0.000 NA
ATOM      2  C   UNL     1       5.327   4.519  18.958  0.00  0.00    +0.000 C 
ATOM      3  C   UNL     1       4.567   5.823  18.684  0.00  0.00    +0.000 C 
ATOM      4  C   UNL     1       4.777   6.387  17.256  0.00  0.00    +0.000 C 
ATOM      5  C   UNL     1       4.738   5.267  16.180  0.00  0.00    +0.000 C 
ATOM      6  C   UNL     1       5.481   3.987  16.578  0.00  0.00    +0.000 C 
ENDROOT
BRANCH   1   7
ATOM      7  S   UNL     1       3.545   2.669  18.018  0.00  0.00    +0.000 S 
ATOM      8  O   UNL     1       3.823   1.268  17.825  0.00  0.00    +0.000 OA
ATOM      9  O   UNL     1       2.560   3.370  17.229  0.00  0.00    +0.000 OA
BRANCH   7  16
ATOM     10  C   UNL     1       4.839   1.559  20.911  0.00  0.00    +0.000 C 
ATOM     11  C   UNL     1       3.555   2.292  20.779  0.00  0.00    +0.000 A 
ATOM     12  N   UNL     1       2.835   2.545  21.882  0.00  0.00    +0.000 NA
ATOM     13  N   UNL     1       1.667   2.992  21.409  0.00  0.00    +0.000 N 
ATOM     14  C   UNL     1       1.576   2.952  20.039  0.00  0.00    +0.000 A 
ATOM     15  C   UNL     1       0.272   3.071  19.363  0.00  0.00    +0.000 C 
ATOM     16  C   UNL     1       2.867   2.707  19.606  0.00  0.00    +0.000 A 
ATOM     17  H   UNL     1       0.945   3.229  22.082  0.00  0.00    +0.000 HD
ENDBRANCH   7  16
ENDBRANCH   1   7
BRANCH   4  18
ATOM     18  C   UNL     1       6.132   7.010  17.202  0.00  0.00    +0.000 C 
ATOM     19  N   UNL     1       7.186   7.502  17.156  0.00  0.00    +0.000 NA
ENDBRANCH   4  18
BRANCH   4  20
ATOM     20  C   UNL     1       3.749   7.540  16.948  0.00  0.00    +0.000 C 
BRANCH  20  21
ATOM     21  C   UNL     1       2.808   8.021  18.044  0.00  0.00    +0.000 A 
ATOM     22  C   UNL     1       2.094   9.222  17.886  0.00  0.00    +0.000 A 
ATOM     23  C   UNL     1       1.213   9.676  18.876  0.00  0.00    +0.000 A 
ATOM     24  C   UNL     1       1.040   8.936  20.041  0.00  0.00    +0.000 A 
ATOM     25 CL   UNL     1      -0.024   9.498  21.270  0.00  0.00    +0.000 Cl
ATOM     26  C   UNL     1       1.714   7.732  20.207  0.00  0.00    +0.000 A 
ATOM     27  C   UNL     1       2.574   7.268  19.204  0.00  0.00    +0.000 A 
ENDBRANCH  20  21
ENDBRANCH   4  20
TORSDOF 5
ENDMDL
MODEL 7
REMARK VINA RESULT:      -7.5      1.126      1.767
REMARK  Name = 
REMARK  7 active torsions:
REMARK  status: ('A' for Active; 'I' for Inactive)
REMARK    1  A    between atoms: C_1  and  C_2
REMARK    2  A    between atoms: C_5  and  C_6
REMARK    3  A    between atoms: C_7  and  S_8
REMARK    4  A    between atoms: S_8  and  N_11
REMARK    5  A    between atoms: C_14  and  C_15
REMARK    6  A    between atoms: C_14  and  C_17
REMARK    7  A    between atoms: C_17  and  C_18
REMARK                            x       y       z     vdW  Elec       q    Type
REMARK                         _______ _______ _______ _____ _____    ______ ____
ROOT
ATOM      1  N   UNL     1       5.023   5.243  19.085  0.00  0.00    +0.000 NA
ATOM      2  C   UNL     1       4.639   6.204  18.026  0.00  0.00    +0.000 C 
ATOM      3  C   UNL     1       5.457   5.962  16.752  0.00  0.00    +0.000 C 
ATOM      4  C   UNL     1       6.989   5.928  16.983  0.00  0.00    +0.000 C 
ATOM      5  C   UNL     1       7.364   5.137  18.265  0.00  0.00    +0.000 C 
ATOM      6  C   UNL     1       6.449   5.411  19.464  0.00  0.00    +0.000 C 
ENDROOT
BRANCH   1   7
ATOM      7  S   UNL     1       4.390   3.653  18.980  0.00  0.00    +0.000 S 
ATOM      8  O   UNL     1       5.103   2.836  19.929  0.00  0.00    +0.000 OA
ATOM      9  O   UNL     1       4.283   3.291  17.586  0.00  0.00    +0.000 OA
BRANCH   7  16
ATOM     10  C   UNL     1       3.146   1.981  21.614  0.00  0.00    +0.000 C 
ATOM     11  C   UNL     1       2.363   2.880  20.728  0.00  0.00    +0.000 A 
ATOM     12  N   UNL     1       1.057   3.057  20.975  0.00  0.00    +0.000 NA
ATOM     13  N   UNL     1       0.611   3.710  19.896  0.00  0.00    +0.000 N 
ATOM     14  C   UNL     1       1.565   3.881  18.923  0.00  0.00    +0.000 A 
ATOM     15  C   UNL     1       1.186   4.258  17.550  0.00  0.00    +0.000 C 
ATOM     16  C   UNL     1       2.759   3.544  19.534  0.00  0.00    +0.000 A 
ATOM     17  H   UNL     1      -0.378   3.935  19.856  0.00  0.00    +0.000 HD
ENDBRANCH   7  16
ENDBRANCH   1   7
BRANCH   4  18
ATOM     18  C   UNL     1       7.456   7.334  17.175  0.00  0.00    +0.000 C 
ATOM     19  N   UNL     1       7.821   8.430  17.315  0.00  0.00    +0.000 NA
ENDBRANCH   4  18
BRANCH   4  20
ATOM     20  C   UNL     1       7.740   5.385  15.710  0.00  0.00    +0.000 C 
BRANCH  20  21
ATOM     21  C   UNL     1       6.943   4.739  14.585  0.00  0.00    +0.000 A 
ATOM     22  C   UNL     1       7.409   4.807  13.260  0.00  0.00    +0.000 A 
ATOM     23  C   UNL     1       6.697   4.210  12.211  0.00  0.00    +0.000 A 
ATOM     24  C   UNL     1       5.507   3.540  12.475  0.00  0.00    +0.000 A 
ATOM     25 CL   UNL     1       4.618   2.821  11.190  0.00  0.00    +0.000 Cl
ATOM     26  C   UNL     1       5.043   3.435  13.781  0.00  0.00    +0.000 A 
ATOM     27  C   UNL     1       5.770   4.011  14.830  0.00  0.00    +0.000 A 
ENDBRANCH  20  21
ENDBRANCH   4  20
TORSDOF 5
ENDMDL
MODEL 8
REMARK VINA RESULT:      -7.4      1.582      2.141
REMARK  Name = 
REMARK  7 active torsions:
REMARK  status: ('A' for Active; 'I' for Inactive)
REMARK    1  A    between atoms: C_1  and  C_2
REMARK    2  A    between atoms: C_5  and  C_6
REMARK    3  A    between atoms: C_7  and  S_8
REMARK    4  A    between atoms: S_8  and  N_11
REMARK    5  A    between atoms: C_14  and  C_15
REMARK    6  A    between atoms: C_14  and  C_17
REMARK    7  A    between atoms: C_17  and  C_18
REMARK                            x       y       z     vdW  Elec       q    Type
REMARK                         _______ _______ _______ _____ _____    ______ ____
ROOT
ATOM      1  N   UNL     1       5.153   4.142  19.121  0.00  0.00    +0.000 NA
ATOM      2  C   UNL     1       4.548   5.494  19.100  0.00  0.00    +0.000 C 
ATOM      3  C   UNL     1       4.363   5.982  17.658  0.00  0.00    +0.000 C 
ATOM      4  C   UNL     1       5.648   5.902  16.795  0.00  0.00    +0.000 C 
ATOM      5  C   UNL     1       6.425   4.580  17.035  0.00  0.00    +0.000 C 
ATOM      6  C   UNL     1       6.503   4.154  18.506  0.00  0.00    +0.000 C 
ENDROOT
BRANCH   1   7
ATOM      7  S   UNL     1       4.123   2.809  18.801  0.00  0.00    +0.000 S 
ATOM      8  O   UNL     1       4.594   1.696  19.587  0.00  0.00    +0.000 OA
ATOM      9  O   UNL     1       3.927   2.710  17.374  0.00  0.00    +0.000 OA
BRANCH   7  16
ATOM     10  C   UNL     1       1.503   4.301  17.323  0.00  0.00    +0.000 C 
ATOM     11  C   UNL     1       1.459   3.607  18.635  0.00  0.00    +0.000 A 
ATOM     12  N   UNL     1       0.298   3.557  19.304  0.00  0.00    +0.000 NA
ATOM     13  N   UNL     1       0.640   3.088  20.509  0.00  0.00    +0.000 N 
ATOM     14  C   UNL     1       1.994   2.920  20.670  0.00  0.00    +0.000 A 
ATOM     15  C   UNL     1       2.582   2.749  22.010  0.00  0.00    +0.000 C 
ATOM     16  C   UNL     1       2.520   3.043  19.396  0.00  0.00    +0.000 A 
ATOM     17  H   UNL     1      -0.094   2.987  21.202  0.00  0.00    +0.000 HD
ENDBRANCH   7  16
ENDBRANCH   1   7
BRANCH   4  18
ATOM     18  C   UNL     1       6.544   7.026  17.201  0.00  0.00    +0.000 C 
ATOM     19  N   UNL     1       7.241   7.905  17.510  0.00  0.00    +0.000 NA
ENDBRANCH   4  18
BRANCH   4  20
ATOM     20  C   UNL     1       5.320   6.129  15.272  0.00  0.00    +0.000 C 
BRANCH  20  21
ATOM     21  C   UNL     1       5.856   5.154  14.233  0.00  0.00    +0.000 A 
ATOM     22  C   UNL     1       5.043   4.110  13.758  0.00  0.00    +0.000 A 
ATOM     23  C   UNL     1       5.513   3.209  12.793  0.00  0.00    +0.000 A 
ATOM     24  C   UNL     1       6.804   3.338  12.296  0.00  0.00    +0.000 A 
ATOM     25 CL   UNL     1       7.394   2.223  11.125  0.00  0.00    +0.000 Cl
ATOM     26  C   UNL     1       7.616   4.380  12.730  0.00  0.00    +0.000 A 
ATOM     27  C   UNL     1       7.135   5.294  13.674  0.00  0.00    +0.000 A 
ENDBRANCH  20  21
ENDBRANCH   4  20
TORSDOF 5
ENDMDL
MODEL 9
REMARK VINA RESULT:      -7.4      1.608      2.158
REMARK  Name = 
REMARK  7 active torsions:
REMARK  status: ('A' for Active; 'I' for Inactive)
REMARK    1  A    between atoms: C_1  and  C_2
REMARK    2  A    between atoms: C_5  and  C_6
REMARK    3  A    between atoms: C_7  and  S_8
REMARK    4  A    between atoms: S_8  and  N_11
REMARK    5  A    between atoms: C_14  and  C_15
REMARK    6  A    between atoms: C_14  and  C_17
REMARK    7  A    between atoms: C_17  and  C_18
REMARK                            x       y       z     vdW  Elec       q    Type
REMARK                         _______ _______ _______ _____ _____    ______ ____
ROOT
ATOM      1  N   UNL     1       5.422   4.202  19.275  0.00  0.00    +0.000 NA
ATOM      2  C   UNL     1       4.744   5.518  19.266  0.00  0.00    +0.000 C 
ATOM      3  C   UNL     1       4.423   5.953  17.830  0.00  0.00    +0.000 C 
ATOM      4  C   UNL     1       5.642   5.917  16.874  0.00  0.00    +0.000 C 
ATOM      5  C   UNL     1       6.506   4.645  17.086  0.00  0.00    +0.000 C 
ATOM      6  C   UNL     1       6.719   4.267  18.556  0.00  0.00    +0.000 C 
ENDROOT
BRANCH   1   7
ATOM      7  S   UNL     1       4.446   2.807  19.069  0.00  0.00    +0.000 S 
ATOM      8  O   UNL     1       4.781   1.882  20.122  0.00  0.00    +0.000 OA
ATOM      9  O   UNL     1       4.474   2.426  17.677  0.00  0.00    +0.000 OA
BRANCH   7  16
ATOM     10  C   UNL     1       2.048   3.690  16.889  0.00  0.00    +0.000 C 
ATOM     11  C   UNL     1       1.824   3.388  18.326  0.00  0.00    +0.000 A 
ATOM     12  N   UNL     1       0.579   3.466  18.819  0.00  0.00    +0.000 NA
ATOM     13  N   UNL     1       0.751   3.370  20.142  0.00  0.00    +0.000 N 
ATOM     14  C   UNL     1       2.069   3.324  20.525  0.00  0.00    +0.000 A 
ATOM     15  C   UNL     1       2.459   3.564  21.925  0.00  0.00    +0.000 C 
ATOM     16  C   UNL     1       2.771   3.114  19.352  0.00  0.00    +0.000 A 
ATOM     17  H   UNL     1      -0.075   3.428  20.730  0.00  0.00    +0.000 HD
ENDBRANCH   7  16
ENDBRANCH   1   7
BRANCH   4  18
ATOM     18  C   UNL     1       6.502   7.098  17.180  0.00  0.00    +0.000 C 
ATOM     19  N   UNL     1       7.179   8.013  17.421  0.00  0.00    +0.000 NA
ENDBRANCH   4  18
BRANCH   4  20
ATOM     20  C   UNL     1       5.186   6.081  15.374  0.00  0.00    +0.000 C 
BRANCH  20  21
ATOM     21  C   UNL     1       5.740   5.141  14.313  0.00  0.00    +0.000 A 
ATOM     22  C   UNL     1       7.064   5.287  13.861  0.00  0.00    +0.000 A 
ATOM     23  C   UNL     1       7.598   4.425  12.894  0.00  0.00    +0.000 A 
ATOM     24  C   UNL     1       6.812   3.409  12.363  0.00  0.00    +0.000 A 
ATOM     25 CL   UNL     1       7.454   2.359  11.161  0.00  0.00    +0.000 Cl
ATOM     26  C   UNL     1       5.509   3.228  12.815  0.00  0.00    +0.000 A 
ATOM     27  C   UNL     1       4.988   4.074  13.801  0.00  0.00    +0.000 A 
ENDBRANCH  20  21
ENDBRANCH   4  20
TORSDOF 5
ENDMDL
