MODEL 1
REMARK VINA RESULT:      -8.2      0.000      0.000
REMARK  Name = 
REMARK  5 active torsions:
REMARK  status: ('A' for Active; 'I' for Inactive)
REMARK    1  A    between atoms: C_1  and  N_2
REMARK    2  A    between atoms: N_2  and  C_3
REMARK    3  A    between atoms: C_4  and  O_6
REMARK    4  A    between atoms: O_6  and  C_7
REMARK    5  A    between atoms: C_8  and  C_9
REMARK                            x       y       z     vdW  Elec       q    Type
REMARK                         _______ _______ _______ _____ _____    ______ ____
ROOT
ATOM      1  C   UNL     1       3.412   4.711  18.065  0.00  0.00    +0.000 C 
ATOM      2  C   UNL     1       3.930   5.674  17.285  0.00  0.00    +0.000 C 
ATOM      3  O   UNL     1       3.600   7.006  17.230  0.00  0.00    +0.000 OA
ATOM      4  C   UNL     1       2.778   7.698  18.070  0.00  0.00    +0.000 A 
ATOM      5  C   UNL     1       2.414   8.941  17.523  0.00  0.00    +0.000 A 
ATOM      6  C   UNL     1       1.540   9.809  18.180  0.00  0.00    +0.000 A 
ATOM      7  C   UNL     1       1.049   9.470  19.427  0.00  0.00    +0.000 A 
ATOM      8  C   UNL     1       1.450   8.271  20.008  0.00  0.00    +0.000 A 
ATOM      9  C   UNL     1       2.306   7.356  19.338  0.00  0.00    +0.000 A 
ATOM     10  N   UNL     1       2.411   6.052  19.888  0.00  0.00    +0.000 N 
ATOM     11  C   UNL     1       2.408   5.028  19.103  0.00  0.00    +0.000 C 
ATOM     12  C   UNL     1       1.311   4.058  19.525  0.00  0.00    +0.000 C 
ATOM     13  C   UNL     1       1.037   4.569  20.901  0.00  0.00    +0.000 C 
ATOM     14  C   UNL     1       1.738   5.687  21.072  0.00  0.00    +0.000 C 
ENDROOT
BRANCH   2  15
ATOM     15  C   UNL     1       5.033   5.395  16.342  0.00  0.00    +0.000 A 
ATOM     16  C   UNL     1       6.122   6.275  16.307  0.00  0.00    +0.000 A 
ATOM     17  C   UNL     1       7.124   6.121  15.351  0.00  0.00    +0.000 A 
ATOM     18  C   UNL     1       6.999   5.165  14.338  0.00  0.00    +0.000 A 
ATOM     19  C   UNL     1       7.943   5.099  13.310  0.00  0.00    +0.000 A 
ATOM     20  C   UNL     1       7.609   4.495  12.103  0.00  0.00    +0.000 A 
ATOM     21  C   UNL     1       6.453   3.728  12.016  0.00  0.00    +0.000 A 
ATOM     22  C   UNL     1       5.639   3.560  13.140  0.00  0.00    +0.000 A 
ATOM     23  C   UNL     1       5.852   4.340  14.291  0.00  0.00    +0.000 A 
ATOM     24  C   UNL     1       4.924   4.402  15.352  0.00  0.00    +0.000 A 
ENDBRANCH   2  15
BRANCH   1  25
ATOM     25  O   UNL     1       3.918   3.385  17.977  0.00  0.00    +0.000 OA
BRANCH  25  29
ATOM     26  C   UNL     1       5.127   1.265  20.736  0.00  0.00    +0.000 C 
ATOM     27  N   UNL     1       4.282   1.833  19.689  0.00  0.00    +0.000 N 
ATOM     28  C   UNL     1       3.320   0.926  19.067  0.00  0.00    +0.000 C 
ATOM     29  C   UNL     1       4.693   3.005  19.072  0.00  0.00    +0.000 C 
ATOM     30  O   UNL     1       5.657   3.659  19.452  0.00  0.00    +0.000 OA
ENDBRANCH  25  29
ENDBRANCH   1  25
TORSDOF 3
ENDMDL
MODEL 2
REMARK VINA RESULT:      -7.3      6.003     10.022
REMARK  Name = 
REMARK  5 active torsions:
REMARK  status: ('A' for Active; 'I' for Inactive)
REMARK    1  A    between atoms: C_1  and  N_2
REMARK    2  A    between atoms: N_2  and  C_3
REMARK    3  A    between atoms: C_4  and  O_6
REMARK    4  A    between atoms: O_6  and  C_7
REMARK    5  A    between atoms: C_8  and  C_9
REMARK                            x       y       z     vdW  Elec       q    Type
REMARK                         _______ _______ _______ _____ _____    ______ ____
ROOT
ATOM      1  C   UNL     1       0.389  13.110  21.627  0.00  0.00    +0.000 C 
ATOM      2  C   UNL     1      -0.320  11.978  21.771  0.00  0.00    +0.000 C 
ATOM      3  O   UNL     1      -1.549  11.802  22.359  0.00  0.00    +0.000 OA
ATOM      4  C   UNL     1      -2.413  12.764  22.794  0.00  0.00    +0.000 A 
ATOM      5  C   UNL     1      -3.404  12.224  23.632  0.00  0.00    +0.000 A 
ATOM      6  C   UNL     1      -4.375  13.024  24.237  0.00  0.00    +0.000 A 
ATOM      7  C   UNL     1      -4.404  14.380  23.973  0.00  0.00    +0.000 A 
ATOM      8  C   UNL     1      -3.467  14.920  23.097  0.00  0.00    +0.000 A 
ATOM      9  C   UNL     1      -2.446  14.129  22.504  0.00  0.00    +0.000 A 
ATOM     10  N   UNL     1      -1.382  14.822  21.871  0.00  0.00    +0.000 N 
ATOM     11  C   UNL     1      -0.168  14.416  22.038  0.00  0.00    +0.000 C 
ATOM     12  C   UNL     1       0.692  15.562  22.557  0.00  0.00    +0.000 C 
ATOM     13  C   UNL     1      -0.198  16.716  22.227  0.00  0.00    +0.000 C 
ATOM     14  C   UNL     1      -1.355  16.229  21.787  0.00  0.00    +0.000 C 
ENDROOT
BRANCH   2  15
ATOM     15  C   UNL     1       0.165  10.688  21.237  0.00  0.00    +0.000 A 
ATOM     16  C   UNL     1       0.682   9.745  22.133  0.00  0.00    +0.000 A 
ATOM     17  C   UNL     1       1.262   8.568  21.663  0.00  0.00    +0.000 A 
ATOM     18  C   UNL     1       1.449   8.366  20.291  0.00  0.00    +0.000 A 
ATOM     19  C   UNL     1       2.144   7.244  19.832  0.00  0.00    +0.000 A 
ATOM     20  C   UNL     1       2.715   7.258  18.565  0.00  0.00    +0.000 A 
ATOM     21  C   UNL     1       2.369   8.260  17.665  0.00  0.00    +0.000 A 
ATOM     22  C   UNL     1       1.443   9.240  18.034  0.00  0.00    +0.000 A 
ATOM     23  C   UNL     1       1.034   9.359  19.375  0.00  0.00    +0.000 A 
ATOM     24  C   UNL     1       0.309  10.470  19.855  0.00  0.00    +0.000 A 
ENDBRANCH   2  15
BRANCH   1  25
ATOM     25  O   UNL     1       1.644  13.074  20.960  0.00  0.00    +0.000 OA
BRANCH  25  29
ATOM     26  C   UNL     1       2.967  15.402  18.429  0.00  0.00    +0.000 C 
ATOM     27  N   UNL     1       2.752  14.698  19.692  0.00  0.00    +0.000 N 
ATOM     28  C   UNL     1       3.898  14.617  20.595  0.00  0.00    +0.000 C 
ATOM     29  C   UNL     1       1.678  13.825  19.786  0.00  0.00    +0.000 C 
ATOM     30  O   UNL     1       0.825  13.717  18.913  0.00  0.00    +0.000 OA
ENDBRANCH  25  29
ENDBRANCH   1  25
TORSDOF 3
ENDMDL
MODEL 3
REMARK VINA RESULT:      -7.2      2.102      6.736
REMARK  Name = 
REMARK  5 active torsions:
REMARK  status: ('A' for Active; 'I' for Inactive)
REMARK    1  A    between atoms: C_1  and  N_2
REMARK    2  A    between atoms: N_2  and  C_3
REMARK    3  A    between atoms: C_4  and  O_6
REMARK    4  A    between atoms: O_6  and  C_7
REMARK    5  A    between atoms: C_8  and  C_9
REMARK                            x       y       z     vdW  Elec       q    Type
REMARK                         _______ _______ _______ _____ _____    ______ ____
ROOT
ATOM      1  C   UNL     1       2.699   5.255  18.755  0.00  0.00    +0.000 C 
ATOM      2  C   UNL     1       3.017   6.528  18.468  0.00  0.00    +0.000 C 
ATOM      3  O   UNL     1       4.137   7.014  17.838  0.00  0.00    +0.000 OA
ATOM      4  C   UNL     1       5.117   6.302  17.211  0.00  0.00    +0.000 A 
ATOM      5  C   UNL     1       6.257   7.092  16.978  0.00  0.00    +0.000 A 
ATOM      6  C   UNL     1       7.409   6.570  16.389  0.00  0.00    +0.000 A 
ATOM      7  C   UNL     1       7.427   5.252  15.973  0.00  0.00    +0.000 A 
ATOM      8  C   UNL     1       6.284   4.474  16.140  0.00  0.00    +0.000 A 
ATOM      9  C   UNL     1       5.116   4.977  16.775  0.00  0.00    +0.000 A 
ATOM     10  N   UNL     1       4.132   4.027  17.154  0.00  0.00    +0.000 N 
ATOM     11  C   UNL     1       3.551   4.135  18.301  0.00  0.00    +0.000 C 
ATOM     12  C   UNL     1       3.702   2.834  19.080  0.00  0.00    +0.000 C 
ATOM     13  C   UNL     1       4.096   1.918  17.969  0.00  0.00    +0.000 C 
ATOM     14  C   UNL     1       4.277   2.653  16.874  0.00  0.00    +0.000 C 
ENDROOT
BRANCH   2  15
ATOM     15  C   UNL     1       2.105   7.645  18.793  0.00  0.00    +0.000 A 
ATOM     16  C   UNL     1       1.881   8.629  17.822  0.00  0.00    +0.000 A 
ATOM     17  C   UNL     1       1.127   9.762  18.125  0.00  0.00    +0.000 A 
ATOM     18  C   UNL     1       0.688   9.993  19.433  0.00  0.00    +0.000 A 
ATOM     19  C   UNL     1       0.043  11.190  19.758  0.00  0.00    +0.000 A 
ATOM     20  C   UNL     1       0.011  11.619  21.080  0.00  0.00    +0.000 A 
ATOM     21  C   UNL     1       0.373  10.743  22.096  0.00  0.00    +0.000 A 
ATOM     22  C   UNL     1       0.756   9.434  21.786  0.00  0.00    +0.000 A 
ATOM     23  C   UNL     1       1.001   9.065  20.451  0.00  0.00    +0.000 A 
ATOM     24  C   UNL     1       1.627   7.851  20.099  0.00  0.00    +0.000 A 
ENDBRANCH   2  15
BRANCH   1  25
ATOM     25  O   UNL     1       1.466   4.966  19.401  0.00  0.00    +0.000 OA
BRANCH  25  29
ATOM     26  C   UNL     1       1.231   2.312  21.945  0.00  0.00    +0.000 C 
ATOM     27  N   UNL     1       0.992   3.111  20.745  0.00  0.00    +0.000 N 
ATOM     28  C   UNL     1       0.495   2.392  19.574  0.00  0.00    +0.000 C 
ATOM     29  C   UNL     1       1.612   4.348  20.642  0.00  0.00    +0.000 C 
ATOM     30  O   UNL     1       2.239   4.861  21.561  0.00  0.00    +0.000 OA
ENDBRANCH  25  29
ENDBRANCH   1  25
TORSDOF 3
ENDMDL
MODEL 4
REMARK VINA RESULT:      -7.2      0.759      1.068
REMARK  Name = 
REMARK  5 active torsions:
REMARK  status: ('A' for Active; 'I' for Inactive)
REMARK    1  A    between atoms: C_1  and  N_2
REMARK    2  A    between atoms: N_2  and  C_3
REMARK    3  A    between atoms: C_4  and  O_6
REMARK    4  A    between atoms: O_6  and  C_7
REMARK    5  A    between atoms: C_8  and  C_9
REMARK                            x       y       z     vdW  Elec       q    Type
REMARK                         _______ _______ _______ _____ _____    ______ ____
ROOT
ATOM      1  C   UNL     1       3.263   4.336  17.817  0.00  0.00    +0.000 C 
ATOM      2  C   UNL     1       3.871   5.355  17.187  0.00  0.00    +0.000 C 
ATOM      3  O   UNL     1       3.642   6.703  17.313  0.00  0.00    +0.000 OA
ATOM      4  C   UNL     1       2.852   7.334  18.229  0.00  0.00    +0.000 A 
ATOM      5  C   UNL     1       2.595   8.665  17.854  0.00  0.00    +0.000 A 
ATOM      6  C   UNL     1       1.771   9.499  18.611  0.00  0.00    +0.000 A 
ATOM      7  C   UNL     1       1.224   9.030  19.791  0.00  0.00    +0.000 A 
ATOM      8  C   UNL     1       1.520   7.735  20.207  0.00  0.00    +0.000 A 
ATOM      9  C   UNL     1       2.323   6.859  19.429  0.00  0.00    +0.000 A 
ATOM     10  N   UNL     1       2.317   5.487  19.793  0.00  0.00    +0.000 N 
ATOM     11  C   UNL     1       2.259   4.584  18.874  0.00  0.00    +0.000 C 
ATOM     12  C   UNL     1       1.083   3.652  19.140  0.00  0.00    +0.000 C 
ATOM     13  C   UNL     1       0.811   3.989  20.570  0.00  0.00    +0.000 C 
ATOM     14  C   UNL     1       1.588   5.016  20.905  0.00  0.00    +0.000 C 
ENDROOT
BRANCH   2  15
ATOM     15  C   UNL     1       4.975   5.124  16.232  0.00  0.00    +0.000 A 
ATOM     16  C   UNL     1       6.060   6.009  16.237  0.00  0.00    +0.000 A 
ATOM     17  C   UNL     1       7.063   5.903  15.275  0.00  0.00    +0.000 A 
ATOM     18  C   UNL     1       6.940   4.995  14.218  0.00  0.00    +0.000 A 
ATOM     19  C   UNL     1       7.884   4.981  13.188  0.00  0.00    +0.000 A 
ATOM     20  C   UNL     1       7.551   4.433  11.955  0.00  0.00    +0.000 A 
ATOM     21  C   UNL     1       6.397   3.667  11.832  0.00  0.00    +0.000 A 
ATOM     22  C   UNL     1       5.585   3.443  12.948  0.00  0.00    +0.000 A 
ATOM     23  C   UNL     1       5.796   4.169  14.134  0.00  0.00    +0.000 A 
ATOM     24  C   UNL     1       4.869   4.178  15.197  0.00  0.00    +0.000 A 
ENDBRANCH   2  15
BRANCH   1  25
ATOM     25  O   UNL     1       3.672   3.000  17.554  0.00  0.00    +0.000 OA
BRANCH  25  29
ATOM     26  C   UNL     1       4.723   1.793  20.872  0.00  0.00    +0.000 C 
ATOM     27  N   UNL     1       4.716   2.477  19.580  0.00  0.00    +0.000 N 
ATOM     28  C   UNL     1       5.496   3.709  19.493  0.00  0.00    +0.000 C 
ATOM     29  C   UNL     1       3.697   2.186  18.685  0.00  0.00    +0.000 C 
ATOM     30  O   UNL     1       2.882   1.290  18.867  0.00  0.00    +0.000 OA
ENDBRANCH  25  29
ENDBRANCH   1  25
TORSDOF 3
ENDMDL
MODEL 5
REMARK VINA RESULT:      -7.1      5.731      9.679
REMARK  Name = 
REMARK  5 active torsions:
REMARK  status: ('A' for Active; 'I' for Inactive)
REMARK    1  A    between atoms: C_1  and  N_2
REMARK    2  A    between atoms: N_2  and  C_3
REMARK    3  A    between atoms: C_4  and  O_6
REMARK    4  A    between atoms: O_6  and  C_7
REMARK    5  A    between atoms: C_8  and  C_9
REMARK                            x       y       z     vdW  Elec       q    Type
REMARK                         _______ _______ _______ _____ _____    ______ ____
ROOT
ATOM      1  C   UNL     1       0.533  13.033  21.246  0.00  0.00    +0.000 C 
ATOM      2  C   UNL     1      -0.304  11.999  21.052  0.00  0.00    +0.000 C 
ATOM      3  O   UNL     1      -1.677  11.987  21.085  0.00  0.00    +0.000 OA
ATOM      4  C   UNL     1      -2.520  13.057  21.164  0.00  0.00    +0.000 A 
ATOM      5  C   UNL     1      -3.824  12.659  21.509  0.00  0.00    +0.000 A 
ATOM      6  C   UNL     1      -4.854  13.582  21.694  0.00  0.00    +0.000 A 
ATOM      7  C   UNL     1      -4.609  14.927  21.488  0.00  0.00    +0.000 A 
ATOM      8  C   UNL     1      -3.340  15.331  21.085  0.00  0.00    +0.000 A 
ATOM      9  C   UNL     1      -2.269  14.409  20.931  0.00  0.00    +0.000 A 
ATOM     10  N   UNL     1      -0.965  14.954  20.808  0.00  0.00    +0.000 N 
ATOM     11  C   UNL     1       0.018  14.405  21.440  0.00  0.00    +0.000 C 
ATOM     12  C   UNL     1       0.724  15.445  22.301  0.00  0.00    +0.000 C 
ATOM     13  C   UNL     1       0.190  16.693  21.677  0.00  0.00    +0.000 C 
ATOM     14  C   UNL     1      -0.737  16.346  20.790  0.00  0.00    +0.000 C 
ENDROOT
BRANCH   2  15
ATOM     15  C   UNL     1       0.198  10.650  20.718  0.00  0.00    +0.000 A 
ATOM     16  C   UNL     1       0.518   9.777  21.765  0.00  0.00    +0.000 A 
ATOM     17  C   UNL     1       1.109   8.543  21.500  0.00  0.00    +0.000 A 
ATOM     18  C   UNL     1       1.503   8.209  20.200  0.00  0.00    +0.000 A 
ATOM     19  C   UNL     1       2.208   7.026  19.959  0.00  0.00    +0.000 A 
ATOM     20  C   UNL     1       2.975   6.903  18.806  0.00  0.00    +0.000 A 
ATOM     21  C   UNL     1       2.827   7.828  17.780  0.00  0.00    +0.000 A 
ATOM     22  C   UNL     1       1.902   8.869  17.906  0.00  0.00    +0.000 A 
ATOM     23  C   UNL     1       1.289   9.125  19.145  0.00  0.00    +0.000 A 
ATOM     24  C   UNL     1       0.551  10.300  19.402  0.00  0.00    +0.000 A 
ENDBRANCH   2  15
BRANCH   1  25
ATOM     25  O   UNL     1       1.936  12.830  21.145  0.00  0.00    +0.000 OA
BRANCH  25  29
ATOM     26  C   UNL     1       4.371  14.896  19.307  0.00  0.00    +0.000 C 
ATOM     27  N   UNL     1       3.588  14.304  20.390  0.00  0.00    +0.000 N 
ATOM     28  C   UNL     1       4.228  14.255  21.703  0.00  0.00    +0.000 C 
ATOM     29  C   UNL     1       2.521  13.481  20.060  0.00  0.00    +0.000 C 
ATOM     30  O   UNL     1       2.120  13.334  18.912  0.00  0.00    +0.000 OA
ENDBRANCH  25  29
ENDBRANCH   1  25
TORSDOF 3
ENDMDL
MODEL 6
REMARK VINA RESULT:      -7.1      2.080      6.579
REMARK  Name = 
REMARK  5 active torsions:
REMARK  status: ('A' for Active; 'I' for Inactive)
REMARK    1  A    between atoms: C_1  and  N_2
REMARK    2  A    between atoms: N_2  and  C_3
REMARK    3  A    between atoms: C_4  and  O_6
REMARK    4  A    between atoms: O_6  and  C_7
REMARK    5  A    between atoms: C_8  and  C_9
REMARK                            x       y       z     vdW  Elec       q    Type
REMARK                         _______ _______ _______ _____ _____    ______ ____
ROOT
ATOM      1  C   UNL     1       2.687   5.337  18.824  0.00  0.00    +0.000 C 
ATOM      2  C   UNL     1       3.068   6.601  18.572  0.00  0.00    +0.000 C 
ATOM      3  O   UNL     1       4.180   7.046  17.900  0.00  0.00    +0.000 OA
ATOM      4  C   UNL     1       5.079   6.305  17.191  0.00  0.00    +0.000 A 
ATOM      5  C   UNL     1       6.252   7.035  16.928  0.00  0.00    +0.000 A 
ATOM      6  C   UNL     1       7.337   6.472  16.254  0.00  0.00    +0.000 A 
ATOM      7  C   UNL     1       7.251   5.175  15.785  0.00  0.00    +0.000 A 
ATOM      8  C   UNL     1       6.073   4.460  15.984  0.00  0.00    +0.000 A 
ATOM      9  C   UNL     1       4.974   5.002  16.703  0.00  0.00    +0.000 A 
ATOM     10  N   UNL     1       3.954   4.098  17.097  0.00  0.00    +0.000 N 
ATOM     11  C   UNL     1       3.443   4.189  18.278  0.00  0.00    +0.000 C 
ATOM     12  C   UNL     1       3.554   2.849  18.994  0.00  0.00    +0.000 C 
ATOM     13  C   UNL     1       3.830   1.960  17.826  0.00  0.00    +0.000 C 
ATOM     14  C   UNL     1       3.998   2.731  16.754  0.00  0.00    +0.000 C 
ENDROOT
BRANCH   2  15
ATOM     15  C   UNL     1       2.245   7.754  18.992  0.00  0.00    +0.000 A 
ATOM     16  C   UNL     1       1.972   7.920  20.356  0.00  0.00    +0.000 A 
ATOM     17  C   UNL     1       1.102   8.920  20.785  0.00  0.00    +0.000 A 
ATOM     18  C   UNL     1       0.393   9.692  19.858  0.00  0.00    +0.000 A 
ATOM     19  C   UNL     1      -0.571  10.606  20.292  0.00  0.00    +0.000 A 
ATOM     20  C   UNL     1      -1.564  11.028  19.416  0.00  0.00    +0.000 A 
ATOM     21  C   UNL     1      -1.441  10.762  18.058  0.00  0.00    +0.000 A 
ATOM     22  C   UNL     1      -0.318  10.081  17.578  0.00  0.00    +0.000 A 
ATOM     23  C   UNL     1       0.572   9.463  18.475  0.00  0.00    +0.000 A 
ATOM     24  C   UNL     1       1.570   8.558  18.056  0.00  0.00    +0.000 A 
ENDBRANCH   2  15
BRANCH   1  25
ATOM     25  O   UNL     1       1.475   5.094  19.525  0.00  0.00    +0.000 OA
BRANCH  25  29
ATOM     26  C   UNL     1       1.230   2.324  21.942  0.00  0.00    +0.000 C 
ATOM     27  N   UNL     1       0.976   3.194  20.796  0.00  0.00    +0.000 N 
ATOM     28  C   UNL     1       0.395   2.560  19.614  0.00  0.00    +0.000 C 
ATOM     29  C   UNL     1       1.647   4.406  20.725  0.00  0.00    +0.000 C 
ATOM     30  O   UNL     1       2.337   4.842  21.639  0.00  0.00    +0.000 OA
ENDBRANCH  25  29
ENDBRANCH   1  25
TORSDOF 3
ENDMDL
MODEL 7
REMARK VINA RESULT:      -7.0      5.836      9.817
REMARK  Name = 
REMARK  5 active torsions:
REMARK  status: ('A' for Active; 'I' for Inactive)
REMARK    1  A    between atoms: C_1  and  N_2
REMARK    2  A    between atoms: N_2  and  C_3
REMARK    3  A    between atoms: C_4  and  O_6
REMARK    4  A    between atoms: O_6  and  C_7
REMARK    5  A    between atoms: C_8  and  C_9
REMARK                            x       y       z     vdW  Elec       q    Type
REMARK                         _______ _______ _______ _____ _____    ______ ____
ROOT
ATOM      1  C   UNL     1      -0.065  13.120  20.675  0.00  0.00    +0.000 C 
ATOM      2  C   UNL     1      -0.538  11.965  21.174  0.00  0.00    +0.000 C 
ATOM      3  O   UNL     1      -1.582  11.769  22.045  0.00  0.00    +0.000 OA
ATOM      4  C   UNL     1      -2.489  12.689  22.483  0.00  0.00    +0.000 A 
ATOM      5  C   UNL     1      -3.195  12.220  23.605  0.00  0.00    +0.000 A 
ATOM      6  C   UNL     1      -4.146  13.004  24.260  0.00  0.00    +0.000 A 
ATOM      7  C   UNL     1      -4.446  14.262  23.772  0.00  0.00    +0.000 A 
ATOM      8  C   UNL     1      -3.801  14.716  22.625  0.00  0.00    +0.000 A 
ATOM      9  C   UNL     1      -2.800  13.948  21.970  0.00  0.00    +0.000 A 
ATOM     10  N   UNL     1      -2.009  14.617  21.001  0.00  0.00    +0.000 N 
ATOM     11  C   UNL     1      -0.736  14.406  20.961  0.00  0.00    +0.000 C 
ATOM     12  C   UNL     1       0.011  15.730  21.061  0.00  0.00    +0.000 C 
ATOM     13  C   UNL     1      -1.103  16.673  20.739  0.00  0.00    +0.000 C 
ATOM     14  C   UNL     1      -2.229  15.969  20.664  0.00  0.00    +0.000 C 
ENDROOT
BRANCH   2  15
ATOM     15  C   UNL     1       0.037  10.661  20.784  0.00  0.00    +0.000 A 
ATOM     16  C   UNL     1       0.504   9.807  21.790  0.00  0.00    +0.000 A 
ATOM     17  C   UNL     1       1.163   8.624  21.463  0.00  0.00    +0.000 A 
ATOM     18  C   UNL     1       1.478   8.331  20.132  0.00  0.00    +0.000 A 
ATOM     19  C   UNL     1       2.249   7.207  19.821  0.00  0.00    +0.000 A 
ATOM     20  C   UNL     1       2.930   7.152  18.611  0.00  0.00    +0.000 A 
ATOM     21  C   UNL     1       2.632   8.071  17.611  0.00  0.00    +0.000 A 
ATOM     22  C   UNL     1       1.644   9.037  17.823  0.00  0.00    +0.000 A 
ATOM     23  C   UNL     1       1.113   9.236  19.110  0.00  0.00    +0.000 A 
ATOM     24  C   UNL     1       0.311  10.349  19.440  0.00  0.00    +0.000 A 
ENDBRANCH   2  15
BRANCH   1  25
ATOM     25  O   UNL     1       1.023  13.098  19.761  0.00  0.00    +0.000 OA
BRANCH  25  29
ATOM     26  C   UNL     1       4.248  14.852  20.071  0.00  0.00    +0.000 C 
ATOM     27  N   UNL     1       3.034  14.266  19.507  0.00  0.00    +0.000 N 
ATOM     28  C   UNL     1       2.515  14.890  18.292  0.00  0.00    +0.000 C 
ATOM     29  C   UNL     1       2.240  13.477  20.326  0.00  0.00    +0.000 C 
ATOM     30  O   UNL     1       2.573  13.137  21.455  0.00  0.00    +0.000 OA
ENDBRANCH  25  29
ENDBRANCH   1  25
TORSDOF 3
ENDMDL
MODEL 8
REMARK VINA RESULT:      -6.9      5.576      9.460
REMARK  Name = 
REMARK  5 active torsions:
REMARK  status: ('A' for Active; 'I' for Inactive)
REMARK    1  A    between atoms: C_1  and  N_2
REMARK    2  A    between atoms: N_2  and  C_3
REMARK    3  A    between atoms: C_4  and  O_6
REMARK    4  A    between atoms: O_6  and  C_7
REMARK    5  A    between atoms: C_8  and  C_9
REMARK                            x       y       z     vdW  Elec       q    Type
REMARK                         _______ _______ _______ _____ _____    ______ ____
ROOT
ATOM      1  C   UNL     1      -0.221  12.817  20.353  0.00  0.00    +0.000 C 
ATOM      2  C   UNL     1       0.863  12.167  19.899  0.00  0.00    +0.000 C 
ATOM      3  O   UNL     1       2.004  12.685  19.337  0.00  0.00    +0.000 OA
ATOM      4  C   UNL     1       2.374  13.996  19.256  0.00  0.00    +0.000 A 
ATOM      5  C   UNL     1       3.421  14.178  18.334  0.00  0.00    +0.000 A 
ATOM      6  C   UNL     1       3.939  15.441  18.045  0.00  0.00    +0.000 A 
ATOM      7  C   UNL     1       3.450  16.548  18.713  0.00  0.00    +0.000 A 
ATOM      8  C   UNL     1       2.457  16.376  19.673  0.00  0.00    +0.000 A 
ATOM      9  C   UNL     1       1.889  15.104  19.950  0.00  0.00    +0.000 A 
ATOM     10  N   UNL     1       0.697  15.086  20.720  0.00  0.00    +0.000 N 
ATOM     11  C   UNL     1      -0.266  14.295  20.386  0.00  0.00    +0.000 C 
ATOM     12  C   UNL     1      -1.552  15.092  20.208  0.00  0.00    +0.000 C 
ATOM     13  C   UNL     1      -1.167  16.352  20.912  0.00  0.00    +0.000 C 
ATOM     14  C   UNL     1       0.122  16.268  21.230  0.00  0.00    +0.000 C 
ENDROOT
BRANCH   2  15
ATOM     15  C   UNL     1       0.978  10.696  19.991  0.00  0.00    +0.000 A 
ATOM     16  C   UNL     1       0.997  10.105  21.261  0.00  0.00    +0.000 A 
ATOM     17  C   UNL     1       1.226   8.738  21.400  0.00  0.00    +0.000 A 
ATOM     18  C   UNL     1       1.562   7.957  20.289  0.00  0.00    +0.000 A 
ATOM     19  C   UNL     1       1.915   6.614  20.452  0.00  0.00    +0.000 A 
ATOM     20  C   UNL     1       2.662   5.974  19.471  0.00  0.00    +0.000 A 
ATOM     21  C   UNL     1       2.821   6.573  18.227  0.00  0.00    +0.000 A 
ATOM     22  C   UNL     1       2.223   7.810  17.966  0.00  0.00    +0.000 A 
ATOM     23  C   UNL     1       1.657   8.558  19.014  0.00  0.00    +0.000 A 
ATOM     24  C   UNL     1       1.270   9.907  18.865  0.00  0.00    +0.000 A 
ENDBRANCH   2  15
BRANCH   1  25
ATOM     25  O   UNL     1      -1.295  12.081  20.924  0.00  0.00    +0.000 OA
BRANCH  25  29
ATOM     26  C   UNL     1      -3.250  13.012  23.905  0.00  0.00    +0.000 C 
ATOM     27  N   UNL     1      -2.843  12.821  22.514  0.00  0.00    +0.000 N 
ATOM     28  C   UNL     1      -3.919  12.658  21.539  0.00  0.00    +0.000 C 
ATOM     29  C   UNL     1      -1.547  12.398  22.258  0.00  0.00    +0.000 C 
ATOM     30  O   UNL     1      -0.689  12.307  23.127  0.00  0.00    +0.000 OA
ENDBRANCH  25  29
ENDBRANCH   1  25
TORSDOF 3
ENDMDL
MODEL 9
REMARK VINA RESULT:      -6.8      8.220     13.258
REMARK  Name = 
REMARK  5 active torsions:
REMARK  status: ('A' for Active; 'I' for Inactive)
REMARK    1  A    between atoms: C_1  and  N_2
REMARK    2  A    between atoms: N_2  and  C_3
REMARK    3  A    between atoms: C_4  and  O_6
REMARK    4  A    between atoms: O_6  and  C_7
REMARK    5  A    between atoms: C_8  and  C_9
REMARK                            x       y       z     vdW  Elec       q    Type
REMARK                         _______ _______ _______ _____ _____    ______ ____
ROOT
ATOM      1  C   UNL     1      -2.590  12.440  20.174  0.00  0.00    +0.000 C 
ATOM      2  C   UNL     1      -3.827  12.494  19.652  0.00  0.00    +0.000 C 
ATOM      3  O   UNL     1      -4.273  12.008  18.447  0.00  0.00    +0.000 OA
ATOM      4  C   UNL     1      -3.600  11.214  17.565  0.00  0.00    +0.000 A 
ATOM      5  C   UNL     1      -4.231  11.192  16.309  0.00  0.00    +0.000 A 
ATOM      6  C   UNL     1      -3.702  10.484  15.229  0.00  0.00    +0.000 A 
ATOM      7  C   UNL     1      -2.550   9.739  15.400  0.00  0.00    +0.000 A 
ATOM      8  C   UNL     1      -1.948   9.701  16.654  0.00  0.00    +0.000 A 
ATOM      9  C   UNL     1      -2.450  10.448  17.754  0.00  0.00    +0.000 A 
ATOM     10  N   UNL     1      -1.604  10.570  18.887  0.00  0.00    +0.000 N 
ATOM     11  C   UNL     1      -1.504  11.707  19.489  0.00  0.00    +0.000 C 
ATOM     12  C   UNL     1      -0.040  12.120  19.571  0.00  0.00    +0.000 C 
ATOM     13  C   UNL     1       0.610  10.806  19.282  0.00  0.00    +0.000 C 
ATOM     14  C   UNL     1      -0.343   9.941  18.947  0.00  0.00    +0.000 C 
ENDROOT
BRANCH   2  15
ATOM     15  C   UNL     1      -4.952  13.101  20.392  0.00  0.00    +0.000 A 
ATOM     16  C   UNL     1      -5.296  14.430  20.115  0.00  0.00    +0.000 A 
ATOM     17  C   UNL     1      -6.268  15.081  20.873  0.00  0.00    +0.000 A 
ATOM     18  C   UNL     1      -6.826  14.461  21.996  0.00  0.00    +0.000 A 
ATOM     19  C   UNL     1      -7.706  15.164  22.824  0.00  0.00    +0.000 A 
ATOM     20  C   UNL     1      -7.903  14.743  24.134  0.00  0.00    +0.000 A 
ATOM     21  C   UNL     1      -7.448  13.491  24.531  0.00  0.00    +0.000 A 
ATOM     22  C   UNL     1      -6.805  12.658  23.610  0.00  0.00    +0.000 A 
ATOM     23  C   UNL     1      -6.410  13.160  22.357  0.00  0.00    +0.000 A 
ATOM     24  C   UNL     1      -5.544  12.456  21.493  0.00  0.00    +0.000 A 
ENDBRANCH   2  15
BRANCH   1  25
ATOM     25  O   UNL     1      -2.345  12.992  21.461  0.00  0.00    +0.000 OA
BRANCH  25  29
ATOM     26  C   UNL     1      -2.414  16.457  22.710  0.00  0.00    +0.000 C 
ATOM     27  N   UNL     1      -2.705  15.034  22.542  0.00  0.00    +0.000 N 
ATOM     28  C   UNL     1      -3.169  14.321  23.730  0.00  0.00    +0.000 C 
ATOM     29  C   UNL     1      -2.155  14.373  21.454  0.00  0.00    +0.000 C 
ATOM     30  O   UNL     1      -1.552  14.948  20.556  0.00  0.00    +0.000 OA
ENDBRANCH  25  29
ENDBRANCH   1  25
TORSDOF 3
ENDMDL
