MODEL 1
REMARK VINA RESULT:      -8.0      0.000      0.000
REMARK  Name = 
REMARK  9 active torsions:
REMARK  status: ('A' for Active; 'I' for Inactive)
REMARK    1  A    between atoms: C_2  and  C_3
REMARK    2  A    between atoms: C_2  and  O_19
REMARK    3  A    between atoms: C_4  and  C_5
REMARK    4  A    between atoms: CA_6  and  C_7
REMARK    5  A    between atoms: C_7  and  OXT_9
REMARK    6  A    between atoms: O_19  and  C_20
REMARK    7  A    between atoms: C_20  and  C_21
REMARK    8  A    between atoms: C_21  and  C_22
REMARK    9  A    between atoms: C_22  and  C_23
REMARK                            x       y       z     vdW  Elec       q    Type
REMARK                         _______ _______ _______ _____ _____    ______ ____
ROOT
ATOM      1  C   UNL     1       3.408   5.537  18.540  0.00  0.00    +0.000 A 
ATOM      2  CA  UNL     1       3.301   4.335  19.244  0.00  0.00    +0.000 A 
ATOM      3  N   UNL     1       2.456   4.603  20.304  0.00  0.00    +0.000 N 
ATOM      4  C   UNL     1       2.032   5.905  20.307  0.00  0.00    +0.000 A 
ATOM      5  C   UNL     1       1.195   6.563  21.221  0.00  0.00    +0.000 A 
ATOM      6  C   UNL     1       0.908   7.909  20.987  0.00  0.00    +0.000 A 
ATOM      7 CL   UNL     1      -0.103   8.756  22.097  0.00  0.00    +0.000 Cl
ATOM      8  C   UNL     1       1.415   8.573  19.881  0.00  0.00    +0.000 A 
ATOM      9  C   UNL     1       2.246   7.888  18.992  0.00  0.00    +0.000 A 
ATOM     10 CL   UNL     1       2.873   8.681  17.611  0.00  0.00    +0.000 Cl
ATOM     11  C   UNL     1       2.588   6.527  19.188  0.00  0.00    +0.000 A 
ATOM     12  H   UNL     1       2.204   3.902  20.995  0.00  0.00    +0.000 HD
ENDROOT
BRANCH   1  14
ATOM     13  C   UNL     1       5.358   6.457  17.412  0.00  0.00    +0.000 C 
ATOM     14  C   UNL     1       4.217   5.744  17.382  0.00  0.00    +0.000 C 
BRANCH  13  16
ATOM     15  O   UNL     1       6.101   5.815  15.229  0.00  0.00    +0.000 OA
ATOM     16  C   UNL     1       6.274   6.456  16.251  0.00  0.00    +0.000 C 
BRANCH  16  17
ATOM     17  O   UNL     1       7.409   7.085  16.642  0.00  0.00    +0.000 OA
BRANCH  17  18
ATOM     18  C   UNL     1       7.748   6.941  18.028  0.00  0.00    +0.000 C 
BRANCH  18  19
ATOM     19  C   UNL     1       8.540   8.110  18.598  0.00  0.00    +0.000 C 
BRANCH  19  20
ATOM     20  C   UNL     1       8.236   9.438  17.904  0.00  0.00    +0.000 C 
BRANCH  20  21
ATOM     21  C   UNL     1       9.018  10.569  18.532  0.00  0.00    +0.000 A 
ATOM     22  C   UNL     1       9.516  10.446  19.835  0.00  0.00    +0.000 A 
ATOM     23  C   UNL     1      10.204  11.505  20.435  0.00  0.00    +0.000 A 
ATOM     24  C   UNL     1      10.396  12.696  19.739  0.00  0.00    +0.000 A 
ATOM     25  C   UNL     1       9.903  12.832  18.443  0.00  0.00    +0.000 A 
ATOM     26  C   UNL     1       9.216  11.775  17.841  0.00  0.00    +0.000 A 
ENDBRANCH  20  21
ENDBRANCH  19  20
ENDBRANCH  18  19
ENDBRANCH  17  18
ENDBRANCH  16  17
ENDBRANCH  13  16
ENDBRANCH   1  14
BRANCH   2  27
ATOM     27  C   UNL     1       3.840   2.997  19.141  0.00  0.00    +0.000 C 
ATOM     28  O   UNL     1       3.179   2.036  18.763  0.00  0.00    +0.000 OA
BRANCH  27  29
ATOM     29  OXT UNL     1       5.133   2.861  19.497  0.00  0.00    +0.000 OA
ATOM     30  HXT UNL     1       5.670   3.662  19.395  0.00  0.00    +0.000 HD
ENDBRANCH  27  29
ENDBRANCH   2  27
TORSDOF 9
ENDMDL
MODEL 2
REMARK VINA RESULT:      -8.0      0.575      1.074
REMARK  Name = 
REMARK  9 active torsions:
REMARK  status: ('A' for Active; 'I' for Inactive)
REMARK    1  A    between atoms: C_2  and  C_3
REMARK    2  A    between atoms: C_2  and  O_19
REMARK    3  A    between atoms: C_4  and  C_5
REMARK    4  A    between atoms: CA_6  and  C_7
REMARK    5  A    between atoms: C_7  and  OXT_9
REMARK    6  A    between atoms: O_19  and  C_20
REMARK    7  A    between atoms: C_20  and  C_21
REMARK    8  A    between atoms: C_21  and  C_22
REMARK    9  A    between atoms: C_22  and  C_23
REMARK                            x       y       z     vdW  Elec       q    Type
REMARK                         _______ _______ _______ _____ _____    ______ ____
ROOT
ATOM      1  C   UNL     1       3.613   4.888  18.461  0.00  0.00    +0.000 A 
ATOM      2  CA  UNL     1       3.399   3.706  19.175  0.00  0.00    +0.000 A 
ATOM      3  N   UNL     1       2.526   4.043  20.191  0.00  0.00    +0.000 N 
ATOM      4  C   UNL     1       2.186   5.368  20.159  0.00  0.00    +0.000 A 
ATOM      5  C   UNL     1       1.352   6.091  21.026  0.00  0.00    +0.000 A 
ATOM      6  C   UNL     1       1.161   7.448  20.762  0.00  0.00    +0.000 A 
ATOM      7 CL   UNL     1       0.157   8.374  21.815  0.00  0.00    +0.000 Cl
ATOM      8  C   UNL     1       1.758   8.063  19.673  0.00  0.00    +0.000 A 
ATOM      9  C   UNL     1       2.583   7.314  18.832  0.00  0.00    +0.000 A 
ATOM     10 CL   UNL     1       3.321   8.046  17.472  0.00  0.00    +0.000 Cl
ATOM     11  C   UNL     1       2.830   5.938  19.060  0.00  0.00    +0.000 A 
ATOM     12  H   UNL     1       2.199   3.369  20.878  0.00  0.00    +0.000 HD
ENDROOT
BRANCH   1  14
ATOM     13  C   UNL     1       5.499   5.912  17.313  0.00  0.00    +0.000 C 
ATOM     14  C   UNL     1       4.485   5.027  17.340  0.00  0.00    +0.000 C 
BRANCH  13  16
ATOM     15  O   UNL     1       6.455   5.129  15.263  0.00  0.00    +0.000 OA
ATOM     16  C   UNL     1       6.509   5.865  16.234  0.00  0.00    +0.000 C 
BRANCH  16  17
ATOM     17  O   UNL     1       7.573   6.591  16.654  0.00  0.00    +0.000 OA
BRANCH  17  18
ATOM     18  C   UNL     1       7.716   6.708  18.076  0.00  0.00    +0.000 C 
BRANCH  18  19
ATOM     19  C   UNL     1       8.512   7.927  18.521  0.00  0.00    +0.000 C 
BRANCH  19  20
ATOM     20  C   UNL     1       8.113   9.207  17.786  0.00  0.00    +0.000 C 
BRANCH  20  21
ATOM     21  C   UNL     1       8.778  10.416  18.402  0.00  0.00    +0.000 A 
ATOM     22  C   UNL     1       8.794  11.640  17.721  0.00  0.00    +0.000 A 
ATOM     23  C   UNL     1       9.443  12.750  18.269  0.00  0.00    +0.000 A 
ATOM     24  C   UNL     1      10.087  12.645  19.500  0.00  0.00    +0.000 A 
ATOM     25  C   UNL     1      10.081  11.432  20.186  0.00  0.00    +0.000 A 
ATOM     26  C   UNL     1       9.431  10.322  19.641  0.00  0.00    +0.000 A 
ENDBRANCH  20  21
ENDBRANCH  19  20
ENDBRANCH  18  19
ENDBRANCH  17  18
ENDBRANCH  16  17
ENDBRANCH  13  16
ENDBRANCH   1  14
BRANCH   2  27
ATOM     27  C   UNL     1       3.856   2.335  19.113  0.00  0.00    +0.000 C 
ATOM     28  O   UNL     1       3.290   1.470  18.454  0.00  0.00    +0.000 OA
BRANCH  27  29
ATOM     29  OXT UNL     1       4.958   2.056  19.838  0.00  0.00    +0.000 OA
ATOM     30  HXT UNL     1       4.784   1.757  20.744  0.00  0.00    +0.000 HD
ENDBRANCH  27  29
ENDBRANCH   2  27
TORSDOF 9
ENDMDL
MODEL 3
REMARK VINA RESULT:      -7.9      4.116      7.705
REMARK  Name = 
REMARK  9 active torsions:
REMARK  status: ('A' for Active; 'I' for Inactive)
REMARK    1  A    between atoms: C_2  and  C_3
REMARK    2  A    between atoms: C_2  and  O_19
REMARK    3  A    between atoms: C_4  and  C_5
REMARK    4  A    between atoms: CA_6  and  C_7
REMARK    5  A    between atoms: C_7  and  OXT_9
REMARK    6  A    between atoms: O_19  and  C_20
REMARK    7  A    between atoms: C_20  and  C_21
REMARK    8  A    between atoms: C_21  and  C_22
REMARK    9  A    between atoms: C_22  and  C_23
REMARK                            x       y       z     vdW  Elec       q    Type
REMARK                         _______ _______ _______ _____ _____    ______ ____
ROOT
ATOM      1  C   UNL     1       6.070   4.515  18.112  0.00  0.00    +0.000 A 
ATOM      2  CA  UNL     1       7.188   5.330  18.308  0.00  0.00    +0.000 A 
ATOM      3  N   UNL     1       7.688   5.578  17.044  0.00  0.00    +0.000 N 
ATOM      4  C   UNL     1       6.951   4.959  16.069  0.00  0.00    +0.000 A 
ATOM      5  C   UNL     1       7.150   4.949  14.680  0.00  0.00    +0.000 A 
ATOM      6  C   UNL     1       6.237   4.239  13.898  0.00  0.00    +0.000 A 
ATOM      7 CL   UNL     1       6.459   4.188  12.189  0.00  0.00    +0.000 Cl
ATOM      8  C   UNL     1       5.159   3.580  14.468  0.00  0.00    +0.000 A 
ATOM      9  C   UNL     1       4.993   3.610  15.854  0.00  0.00    +0.000 A 
ATOM     10 CL   UNL     1       3.661   2.817  16.580  0.00  0.00    +0.000 Cl
ATOM     11  C   UNL     1       5.897   4.297  16.699  0.00  0.00    +0.000 A 
ATOM     12  H   UNL     1       8.516   6.145  16.884  0.00  0.00    +0.000 HD
ENDROOT
BRANCH   1  14
ATOM     13  C   UNL     1       5.184   2.654  19.406  0.00  0.00    +0.000 C 
ATOM     14  C   UNL     1       5.254   3.973  19.151  0.00  0.00    +0.000 C 
BRANCH  13  16
ATOM     15  O   UNL     1       5.072   1.611  21.558  0.00  0.00    +0.000 OA
ATOM     16  C   UNL     1       4.510   2.159  20.626  0.00  0.00    +0.000 C 
BRANCH  16  17
ATOM     17  O   UNL     1       3.176   2.216  20.392  0.00  0.00    +0.000 OA
BRANCH  17  18
ATOM     18  C   UNL     1       2.368   2.582  21.519  0.00  0.00    +0.000 C 
BRANCH  18  19
ATOM     19  C   UNL     1       1.039   3.225  21.146  0.00  0.00    +0.000 C 
BRANCH  19  20
ATOM     20  C   UNL     1       0.915   3.527  19.652  0.00  0.00    +0.000 C 
BRANCH  20  21
ATOM     21  C   UNL     1       1.546   4.858  19.314  0.00  0.00    +0.000 A 
ATOM     22  C   UNL     1       2.006   5.113  18.015  0.00  0.00    +0.000 A 
ATOM     23  C   UNL     1       2.628   6.327  17.708  0.00  0.00    +0.000 A 
ATOM     24  C   UNL     1       2.799   7.294  18.696  0.00  0.00    +0.000 A 
ATOM     25  C   UNL     1       2.348   7.050  19.992  0.00  0.00    +0.000 A 
ATOM     26  C   UNL     1       1.726   5.838  20.301  0.00  0.00    +0.000 A 
ENDBRANCH  20  21
ENDBRANCH  19  20
ENDBRANCH  18  19
ENDBRANCH  17  18
ENDBRANCH  16  17
ENDBRANCH  13  16
ENDBRANCH   1  14
BRANCH   2  27
ATOM     27  C   UNL     1       7.893   5.908  19.431  0.00  0.00    +0.000 C 
ATOM     28  O   UNL     1       7.927   5.387  20.539  0.00  0.00    +0.000 OA
BRANCH  27  29
ATOM     29  OXT UNL     1       8.516   7.078  19.186  0.00  0.00    +0.000 OA
ATOM     30  HXT UNL     1       9.327   7.005  18.660  0.00  0.00    +0.000 HD
ENDBRANCH  27  29
ENDBRANCH   2  27
TORSDOF 9
ENDMDL
MODEL 4
REMARK VINA RESULT:      -7.8      2.530      3.417
REMARK  Name = 
REMARK  9 active torsions:
REMARK  status: ('A' for Active; 'I' for Inactive)
REMARK    1  A    between atoms: C_2  and  C_3
REMARK    2  A    between atoms: C_2  and  O_19
REMARK    3  A    between atoms: C_4  and  C_5
REMARK    4  A    between atoms: CA_6  and  C_7
REMARK    5  A    between atoms: C_7  and  OXT_9
REMARK    6  A    between atoms: O_19  and  C_20
REMARK    7  A    between atoms: C_20  and  C_21
REMARK    8  A    between atoms: C_21  and  C_22
REMARK    9  A    between atoms: C_22  and  C_23
REMARK                            x       y       z     vdW  Elec       q    Type
REMARK                         _______ _______ _______ _____ _____    ______ ____
ROOT
ATOM      1  C   UNL     1       3.179   6.344  18.295  0.00  0.00    +0.000 A 
ATOM      2  CA  UNL     1       2.334   7.367  18.735  0.00  0.00    +0.000 A 
ATOM      3  N   UNL     1       1.622   6.829  19.790  0.00  0.00    +0.000 N 
ATOM      4  C   UNL     1       1.967   5.526  20.031  0.00  0.00    +0.000 A 
ATOM      5  C   UNL     1       1.458   4.637  20.990  0.00  0.00    +0.000 A 
ATOM      6  C   UNL     1       1.996   3.350  21.033  0.00  0.00    +0.000 A 
ATOM      7 CL   UNL     1       1.383   2.224  22.186  0.00  0.00    +0.000 Cl
ATOM      8  C   UNL     1       3.010   2.962  20.172  0.00  0.00    +0.000 A 
ATOM      9  C   UNL     1       3.492   3.872  19.229  0.00  0.00    +0.000 A 
ATOM     10 CL   UNL     1       4.755   3.423  18.165  0.00  0.00    +0.000 Cl
ATOM     11  C   UNL     1       2.973   5.186  19.125  0.00  0.00    +0.000 A 
ATOM     12  H   UNL     1       0.919   7.355  20.301  0.00  0.00    +0.000 HD
ENDROOT
BRANCH   1  14
ATOM     13  C   UNL     1       5.372   6.770  17.331  0.00  0.00    +0.000 C 
ATOM     14  C   UNL     1       4.077   6.436  17.189  0.00  0.00    +0.000 C 
BRANCH  13  16
ATOM     15  O   UNL     1       6.010   6.222  15.090  0.00  0.00    +0.000 OA
ATOM     16  C   UNL     1       6.312   6.631  16.198  0.00  0.00    +0.000 C 
BRANCH  16  17
ATOM     17  O   UNL     1       7.561   6.809  16.694  0.00  0.00    +0.000 OA
BRANCH  17  18
ATOM     18  C   UNL     1       7.633   7.058  18.105  0.00  0.00    +0.000 C 
BRANCH  18  19
ATOM     19  C   UNL     1       8.697   8.073  18.501  0.00  0.00    +0.000 C 
BRANCH  19  20
ATOM     20  C   UNL     1       8.331   9.508  18.124  0.00  0.00    +0.000 C 
BRANCH  20  21
ATOM     21  C   UNL     1       9.316  10.492  18.713  0.00  0.00    +0.000 A 
ATOM     22  C   UNL     1       9.338  10.730  20.094  0.00  0.00    +0.000 A 
ATOM     23  C   UNL     1      10.219  11.669  20.638  0.00  0.00    +0.000 A 
ATOM     24  C   UNL     1      11.083  12.380  19.808  0.00  0.00    +0.000 A 
ATOM     25  C   UNL     1      11.069  12.153  18.433  0.00  0.00    +0.000 A 
ATOM     26  C   UNL     1      10.189  11.215  17.887  0.00  0.00    +0.000 A 
ENDBRANCH  20  21
ENDBRANCH  19  20
ENDBRANCH  18  19
ENDBRANCH  17  18
ENDBRANCH  16  17
ENDBRANCH  13  16
ENDBRANCH   1  14
BRANCH   2  27
ATOM     27  C   UNL     1       2.045   8.734  18.362  0.00  0.00    +0.000 C 
ATOM     28  O   UNL     1       2.326   9.202  17.264  0.00  0.00    +0.000 OA
BRANCH  27  29
ATOM     29  OXT UNL     1       1.441   9.481  19.308  0.00  0.00    +0.000 OA
ATOM     30  HXT UNL     1       1.059   8.977  20.043  0.00  0.00    +0.000 HD
ENDBRANCH  27  29
ENDBRANCH   2  27
TORSDOF 9
ENDMDL
MODEL 5
REMARK VINA RESULT:      -7.8      1.086      1.343
REMARK  Name = 
REMARK  9 active torsions:
REMARK  status: ('A' for Active; 'I' for Inactive)
REMARK    1  A    between atoms: C_2  and  C_3
REMARK    2  A    between atoms: C_2  and  O_19
REMARK    3  A    between atoms: C_4  and  C_5
REMARK    4  A    between atoms: CA_6  and  C_7
REMARK    5  A    between atoms: C_7  and  OXT_9
REMARK    6  A    between atoms: O_19  and  C_20
REMARK    7  A    between atoms: C_20  and  C_21
REMARK    8  A    between atoms: C_21  and  C_22
REMARK    9  A    between atoms: C_22  and  C_23
REMARK                            x       y       z     vdW  Elec       q    Type
REMARK                         _______ _______ _______ _____ _____    ______ ____
ROOT
ATOM      1  C   UNL     1       3.229   4.653  18.069  0.00  0.00    +0.000 A 
ATOM      2  CA  UNL     1       2.747   3.469  18.633  0.00  0.00    +0.000 A 
ATOM      3  N   UNL     1       1.944   3.863  19.687  0.00  0.00    +0.000 N 
ATOM      4  C   UNL     1       1.901   5.225  19.819  0.00  0.00    +0.000 A 
ATOM      5  C   UNL     1       1.225   6.003  20.771  0.00  0.00    +0.000 A 
ATOM      6  C   UNL     1       1.340   7.391  20.677  0.00  0.00    +0.000 A 
ATOM      7 CL   UNL     1       0.538   8.379  21.840  0.00  0.00    +0.000 Cl
ATOM      8  C   UNL     1       2.082   7.987  19.669  0.00  0.00    +0.000 A 
ATOM      9  C   UNL     1       2.743   7.182  18.739  0.00  0.00    +0.000 A 
ATOM     10 CL   UNL     1       3.654   7.894  17.476  0.00  0.00    +0.000 Cl
ATOM     11  C   UNL     1       2.679   5.768  18.795  0.00  0.00    +0.000 A 
ATOM     12  H   UNL     1       1.463   3.199  20.287  0.00  0.00    +0.000 HD
ENDROOT
BRANCH   1  14
ATOM     13  C   UNL     1       5.425   5.091  17.116  0.00  0.00    +0.000 C 
ATOM     14  C   UNL     1       4.136   4.732  16.970  0.00  0.00    +0.000 C 
BRANCH  13  16
ATOM     15  O   UNL     1       6.428   3.977  15.249  0.00  0.00    +0.000 OA
ATOM     16  C   UNL     1       6.377   4.940  15.995  0.00  0.00    +0.000 C 
BRANCH  16  17
ATOM     17  O   UNL     1       7.296   5.929  16.120  0.00  0.00    +0.000 OA
BRANCH  17  18
ATOM     18  C   UNL     1       7.438   6.474  17.439  0.00  0.00    +0.000 C 
BRANCH  18  19
ATOM     19  C   UNL     1       7.774   7.960  17.462  0.00  0.00    +0.000 C 
BRANCH  19  20
ATOM     20  C   UNL     1       8.568   8.377  18.700  0.00  0.00    +0.000 C 
BRANCH  20  21
ATOM     21  C   UNL     1       8.852   9.862  18.686  0.00  0.00    +0.000 A 
ATOM     22  C   UNL     1       9.582  10.453  19.726  0.00  0.00    +0.000 A 
ATOM     23  C   UNL     1       9.812  11.831  19.738  0.00  0.00    +0.000 A 
ATOM     24  C   UNL     1       9.311  12.632  18.714  0.00  0.00    +0.000 A 
ATOM     25  C   UNL     1       8.581  12.056  17.676  0.00  0.00    +0.000 A 
ATOM     26  C   UNL     1       8.351  10.679  17.661  0.00  0.00    +0.000 A 
ENDBRANCH  20  21
ENDBRANCH  19  20
ENDBRANCH  18  19
ENDBRANCH  17  18
ENDBRANCH  16  17
ENDBRANCH  13  16
ENDBRANCH   1  14
BRANCH   2  27
ATOM     27  C   UNL     1       2.896   2.049  18.401  0.00  0.00    +0.000 C 
ATOM     28  O   UNL     1       3.853   1.565  17.808  0.00  0.00    +0.000 OA
BRANCH  27  29
ATOM     29  OXT UNL     1       1.902   1.273  18.879  0.00  0.00    +0.000 OA
ATOM     30  HXT UNL     1       2.076   0.875  19.745  0.00  0.00    +0.000 HD
ENDBRANCH  27  29
ENDBRANCH   2  27
TORSDOF 9
ENDMDL
MODEL 6
REMARK VINA RESULT:      -7.8      4.820      8.146
REMARK  Name = 
REMARK  9 active torsions:
REMARK  status: ('A' for Active; 'I' for Inactive)
REMARK    1  A    between atoms: C_2  and  C_3
REMARK    2  A    between atoms: C_2  and  O_19
REMARK    3  A    between atoms: C_4  and  C_5
REMARK    4  A    between atoms: CA_6  and  C_7
REMARK    5  A    between atoms: C_7  and  OXT_9
REMARK    6  A    between atoms: O_19  and  C_20
REMARK    7  A    between atoms: C_20  and  C_21
REMARK    8  A    between atoms: C_21  and  C_22
REMARK    9  A    between atoms: C_22  and  C_23
REMARK                            x       y       z     vdW  Elec       q    Type
REMARK                         _______ _______ _______ _____ _____    ______ ____
ROOT
ATOM      1  C   UNL     1       2.419   5.419  19.705  0.00  0.00    +0.000 A 
ATOM      2  CA  UNL     1       2.489   4.100  20.160  0.00  0.00    +0.000 A 
ATOM      3  N   UNL     1       3.356   3.458  19.297  0.00  0.00    +0.000 N 
ATOM      4  C   UNL     1       3.828   4.298  18.324  0.00  0.00    +0.000 A 
ATOM      5  C   UNL     1       4.701   4.021  17.260  0.00  0.00    +0.000 A 
ATOM      6  C   UNL     1       5.036   5.071  16.405  0.00  0.00    +0.000 A 
ATOM      7 CL   UNL     1       6.091   4.765  15.075  0.00  0.00    +0.000 Cl
ATOM      8  C   UNL     1       4.541   6.350  16.604  0.00  0.00    +0.000 A 
ATOM      9  C   UNL     1       3.674   6.590  17.672  0.00  0.00    +0.000 A 
ATOM     10 CL   UNL     1       3.062   8.165  17.949  0.00  0.00    +0.000 Cl
ATOM     11  C   UNL     1       3.283   5.560  18.562  0.00  0.00    +0.000 A 
ATOM     12  H   UNL     1       3.589   2.473  19.386  0.00  0.00    +0.000 HD
ENDROOT
BRANCH   1  14
ATOM     13  C   UNL     1       2.086   7.363  21.132  0.00  0.00    +0.000 C 
ATOM     14  C   UNL     1       1.605   6.445  20.274  0.00  0.00    +0.000 C 
BRANCH  13  16
ATOM     15  O   UNL     1       1.203   8.998  22.641  0.00  0.00    +0.000 OA
ATOM     16  C   UNL     1       1.269   8.533  21.516  0.00  0.00    +0.000 C 
BRANCH  16  17
ATOM     17  O   UNL     1       0.458   8.812  20.465  0.00  0.00    +0.000 OA
BRANCH  17  18
ATOM     18  C   UNL     1       0.738  10.041  19.781  0.00  0.00    +0.000 C 
BRANCH  18  19
ATOM     19  C   UNL     1      -0.484  10.685  19.140  0.00  0.00    +0.000 C 
BRANCH  19  20
ATOM     20  C   UNL     1      -0.790  10.141  17.744  0.00  0.00    +0.000 C 
BRANCH  20  21
ATOM     21  C   UNL     1      -2.158  10.584  17.278  0.00  0.00    +0.000 A 
ATOM     22  C   UNL     1      -3.052  11.183  18.176  0.00  0.00    +0.000 A 
ATOM     23  C   UNL     1      -4.332  11.556  17.759  0.00  0.00    +0.000 A 
ATOM     24  C   UNL     1      -4.733  11.330  16.444  0.00  0.00    +0.000 A 
ATOM     25  C   UNL     1      -3.853  10.734  15.542  0.00  0.00    +0.000 A 
ATOM     26  C   UNL     1      -2.572  10.360  15.956  0.00  0.00    +0.000 A 
ENDBRANCH  20  21
ENDBRANCH  19  20
ENDBRANCH  18  19
ENDBRANCH  17  18
ENDBRANCH  16  17
ENDBRANCH  13  16
ENDBRANCH   1  14
BRANCH   2  27
ATOM     27  C   UNL     1       1.898   3.314  21.221  0.00  0.00    +0.000 C 
ATOM     28  O   UNL     1       2.498   3.020  22.249  0.00  0.00    +0.000 OA
BRANCH  27  29
ATOM     29  OXT UNL     1       0.630   2.910  21.010  0.00  0.00    +0.000 OA
ATOM     30  HXT UNL     1       0.258   3.167  20.152  0.00  0.00    +0.000 HD
ENDBRANCH  27  29
ENDBRANCH   2  27
TORSDOF 9
ENDMDL
MODEL 7
REMARK VINA RESULT:      -7.7      0.828      1.236
REMARK  Name = 
REMARK  9 active torsions:
REMARK  status: ('A' for Active; 'I' for Inactive)
REMARK    1  A    between atoms: C_2  and  C_3
REMARK    2  A    between atoms: C_2  and  O_19
REMARK    3  A    between atoms: C_4  and  C_5
REMARK    4  A    between atoms: CA_6  and  C_7
REMARK    5  A    between atoms: C_7  and  OXT_9
REMARK    6  A    between atoms: O_19  and  C_20
REMARK    7  A    between atoms: C_20  and  C_21
REMARK    8  A    between atoms: C_21  and  C_22
REMARK    9  A    between atoms: C_22  and  C_23
REMARK                            x       y       z     vdW  Elec       q    Type
REMARK                         _______ _______ _______ _____ _____    ______ ____
ROOT
ATOM      1  C   UNL     1       3.107   6.114  18.938  0.00  0.00    +0.000 A 
ATOM      2  CA  UNL     1       3.009   4.986  19.756  0.00  0.00    +0.000 A 
ATOM      3  N   UNL     1       2.141   5.341  20.771  0.00  0.00    +0.000 N 
ATOM      4  C   UNL     1       1.695   6.628  20.638  0.00  0.00    +0.000 A 
ATOM      5  C   UNL     1       0.830   7.357  21.470  0.00  0.00    +0.000 A 
ATOM      6  C   UNL     1       0.523   8.667  21.099  0.00  0.00    +0.000 A 
ATOM      7 CL   UNL     1      -0.521   9.600  22.105  0.00  0.00    +0.000 Cl
ATOM      8  C   UNL     1       1.038   9.229  19.941  0.00  0.00    +0.000 A 
ATOM      9  C   UNL     1       1.896   8.475  19.138  0.00  0.00    +0.000 A 
ATOM     10 CL   UNL     1       2.533   9.141  17.695  0.00  0.00    +0.000 Cl
ATOM     11  C   UNL     1       2.259   7.148  19.473  0.00  0.00    +0.000 A 
ATOM     12  H   UNL     1       1.890   4.706  21.524  0.00  0.00    +0.000 HD
ENDROOT
BRANCH   1  14
ATOM     13  C   UNL     1       5.254   6.467  17.848  0.00  0.00    +0.000 C 
ATOM     14  C   UNL     1       3.932   6.222  17.778  0.00  0.00    +0.000 C 
BRANCH  13  16
ATOM     15  O   UNL     1       6.253   5.322  15.998  0.00  0.00    +0.000 OA
ATOM     16  C   UNL     1       6.104   6.345  16.644  0.00  0.00    +0.000 C 
BRANCH  16  17
ATOM     17  O   UNL     1       6.838   7.481  16.560  0.00  0.00    +0.000 OA
BRANCH  17  18
ATOM     18  C   UNL     1       7.793   7.676  17.612  0.00  0.00    +0.000 C 
BRANCH  18  19
ATOM     19  C   UNL     1       8.146   9.136  17.865  0.00  0.00    +0.000 C 
BRANCH  19  20
ATOM     20  C   UNL     1       8.902   9.354  19.177  0.00  0.00    +0.000 C 
BRANCH  20  21
ATOM     21  C   UNL     1       9.641  10.672  19.164  0.00  0.00    +0.000 A 
ATOM     22  C   UNL     1      10.026  11.256  17.949  0.00  0.00    +0.000 A 
ATOM     23  C   UNL     1      10.745  12.454  17.934  0.00  0.00    +0.000 A 
ATOM     24  C   UNL     1      11.090  13.077  19.131  0.00  0.00    +0.000 A 
ATOM     25  C   UNL     1      10.716  12.505  20.346  0.00  0.00    +0.000 A 
ATOM     26  C   UNL     1       9.996  11.308  20.363  0.00  0.00    +0.000 A 
ENDBRANCH  20  21
ENDBRANCH  19  20
ENDBRANCH  18  19
ENDBRANCH  17  18
ENDBRANCH  16  17
ENDBRANCH  13  16
ENDBRANCH   1  14
BRANCH   2  27
ATOM     27  C   UNL     1       3.573   3.654  19.794  0.00  0.00    +0.000 C 
ATOM     28  O   UNL     1       2.893   2.643  19.926  0.00  0.00    +0.000 OA
BRANCH  27  29
ATOM     29  OXT UNL     1       4.915   3.587  19.681  0.00  0.00    +0.000 OA
ATOM     30  HXT UNL     1       5.390   3.491  20.520  0.00  0.00    +0.000 HD
ENDBRANCH  27  29
ENDBRANCH   2  27
TORSDOF 9
ENDMDL
MODEL 8
REMARK VINA RESULT:      -7.7      2.583      3.562
REMARK  Name = 
REMARK  9 active torsions:
REMARK  status: ('A' for Active; 'I' for Inactive)
REMARK    1  A    between atoms: C_2  and  C_3
REMARK    2  A    between atoms: C_2  and  O_19
REMARK    3  A    between atoms: C_4  and  C_5
REMARK    4  A    between atoms: CA_6  and  C_7
REMARK    5  A    between atoms: C_7  and  OXT_9
REMARK    6  A    between atoms: O_19  and  C_20
REMARK    7  A    between atoms: C_20  and  C_21
REMARK    8  A    between atoms: C_21  and  C_22
REMARK    9  A    between atoms: C_22  and  C_23
REMARK                            x       y       z     vdW  Elec       q    Type
REMARK                         _______ _______ _______ _____ _____    ______ ____
ROOT
ATOM      1  C   UNL     1       3.607   6.019  18.353  0.00  0.00    +0.000 A 
ATOM      2  CA  UNL     1       2.690   7.059  18.530  0.00  0.00    +0.000 A 
ATOM      3  N   UNL     1       1.806   6.609  19.492  0.00  0.00    +0.000 N 
ATOM      4  C   UNL     1       2.112   5.346  19.922  0.00  0.00    +0.000 A 
ATOM      5  C   UNL     1       1.447   4.543  20.861  0.00  0.00    +0.000 A 
ATOM      6  C   UNL     1       1.978   3.280  21.129  0.00  0.00    +0.000 A 
ATOM      7 CL   UNL     1       1.179   2.258  22.264  0.00  0.00    +0.000 Cl
ATOM      8  C   UNL     1       3.133   2.835  20.504  0.00  0.00    +0.000 A 
ATOM      9  C   UNL     1       3.768   3.660  19.573  0.00  0.00    +0.000 A 
ATOM     10 CL   UNL     1       5.204   3.140  18.799  0.00  0.00    +0.000 Cl
ATOM     11  C   UNL     1       3.265   4.943  19.246  0.00  0.00    +0.000 A 
ATOM     12  H   UNL     1       1.020   7.165  19.816  0.00  0.00    +0.000 HD
ENDROOT
BRANCH   1  14
ATOM     13  C   UNL     1       5.975   6.109  17.798  0.00  0.00    +0.000 C 
ATOM     14  C   UNL     1       4.687   6.024  17.419  0.00  0.00    +0.000 C 
BRANCH  13  16
ATOM     15  O   UNL     1       7.482   4.788  16.489  0.00  0.00    +0.000 OA
ATOM     16  C   UNL     1       7.062   5.883  16.821  0.00  0.00    +0.000 C 
BRANCH  16  17
ATOM     17  O   UNL     1       7.631   7.088  16.575  0.00  0.00    +0.000 OA
BRANCH  17  18
ATOM     18  C   UNL     1       7.339   8.114  17.533  0.00  0.00    +0.000 C 
BRANCH  18  19
ATOM     19  C   UNL     1       8.571   8.835  18.065  0.00  0.00    +0.000 C 
BRANCH  19  20
ATOM     20  C   UNL     1       8.342  10.329  18.295  0.00  0.00    +0.000 C 
BRANCH  20  21
ATOM     21  C   UNL     1       9.597  10.997  18.807  0.00  0.00    +0.000 A 
ATOM     22  C   UNL     1      10.665  11.257  17.938  0.00  0.00    +0.000 A 
ATOM     23  C   UNL     1      11.844  11.837  18.415  0.00  0.00    +0.000 A 
ATOM     24  C   UNL     1      11.967  12.158  19.765  0.00  0.00    +0.000 A 
ATOM     25  C   UNL     1      10.913  11.903  20.639  0.00  0.00    +0.000 A 
ATOM     26  C   UNL     1       9.733  11.324  20.164  0.00  0.00    +0.000 A 
ENDBRANCH  20  21
ENDBRANCH  19  20
ENDBRANCH  18  19
ENDBRANCH  17  18
ENDBRANCH  16  17
ENDBRANCH  13  16
ENDBRANCH   1  14
BRANCH   2  27
ATOM     27  C   UNL     1       2.461   8.374  17.975  0.00  0.00    +0.000 C 
ATOM     28  O   UNL     1       3.104   8.824  17.033  0.00  0.00    +0.000 OA
BRANCH  27  29
ATOM     29  OXT UNL     1       1.487   9.095  18.566  0.00  0.00    +0.000 OA
ATOM     30  HXT UNL     1       1.712  10.023  18.735  0.00  0.00    +0.000 HD
ENDBRANCH  27  29
ENDBRANCH   2  27
TORSDOF 9
ENDMDL
MODEL 9
REMARK VINA RESULT:      -7.7      2.552      3.517
REMARK  Name = 
REMARK  9 active torsions:
REMARK  status: ('A' for Active; 'I' for Inactive)
REMARK    1  A    between atoms: C_2  and  C_3
REMARK    2  A    between atoms: C_2  and  O_19
REMARK    3  A    between atoms: C_4  and  C_5
REMARK    4  A    between atoms: CA_6  and  C_7
REMARK    5  A    between atoms: C_7  and  OXT_9
REMARK    6  A    between atoms: O_19  and  C_20
REMARK    7  A    between atoms: C_20  and  C_21
REMARK    8  A    between atoms: C_21  and  C_22
REMARK    9  A    between atoms: C_22  and  C_23
REMARK                            x       y       z     vdW  Elec       q    Type
REMARK                         _______ _______ _______ _____ _____    ______ ____
ROOT
ATOM      1  C   UNL     1       3.590   6.231  18.265  0.00  0.00    +0.000 A 
ATOM      2  CA  UNL     1       2.631   7.233  18.438  0.00  0.00    +0.000 A 
ATOM      3  N   UNL     1       1.750   6.739  19.381  0.00  0.00    +0.000 N 
ATOM      4  C   UNL     1       2.097   5.484  19.802  0.00  0.00    +0.000 A 
ATOM      5  C   UNL     1       1.449   4.646  20.723  0.00  0.00    +0.000 A 
ATOM      6  C   UNL     1       2.024   3.402  20.986  0.00  0.00    +0.000 A 
ATOM      7 CL   UNL     1       1.247   2.337  22.097  0.00  0.00    +0.000 Cl
ATOM      8  C   UNL     1       3.204   3.008  20.375  0.00  0.00    +0.000 A 
ATOM      9  C   UNL     1       3.822   3.867  19.463  0.00  0.00    +0.000 A 
ATOM     10 CL   UNL     1       5.289   3.411  18.707  0.00  0.00    +0.000 Cl
ATOM     11  C   UNL     1       3.276   5.133  19.142  0.00  0.00    +0.000 A 
ATOM     12  H   UNL     1       0.937   7.261  19.698  0.00  0.00    +0.000 HD
ENDROOT
BRANCH   1  14
ATOM     13  C   UNL     1       5.922   6.663  17.718  0.00  0.00    +0.000 C 
ATOM     14  C   UNL     1       4.683   6.287  17.348  0.00  0.00    +0.000 C 
BRANCH  13  16
ATOM     15  O   UNL     1       7.430   5.422  16.334  0.00  0.00    +0.000 OA
ATOM     16  C   UNL     1       7.065   6.489  16.796  0.00  0.00    +0.000 C 
BRANCH  16  17
ATOM     17  O   UNL     1       7.737   7.666  16.771  0.00  0.00    +0.000 OA
BRANCH  17  18
ATOM     18  C   UNL     1       8.064   8.215  18.055  0.00  0.00    +0.000 C 
BRANCH  18  19
ATOM     19  C   UNL     1       8.401   9.700  18.027  0.00  0.00    +0.000 C 
BRANCH  19  20
ATOM     20  C   UNL     1       9.226  10.153  19.232  0.00  0.00    +0.000 C 
BRANCH  20  21
ATOM     21  C   UNL     1      10.246  11.194  18.830  0.00  0.00    +0.000 A 
ATOM     22  C   UNL     1      11.408  11.377  19.590  0.00  0.00    +0.000 A 
ATOM     23  C   UNL     1      12.333  12.366  19.245  0.00  0.00    +0.000 A 
ATOM     24  C   UNL     1      12.103  13.184  18.142  0.00  0.00    +0.000 A 
ATOM     25  C   UNL     1      10.949  13.014  17.379  0.00  0.00    +0.000 A 
ATOM     26  C   UNL     1      10.023  12.025  17.721  0.00  0.00    +0.000 A 
ENDBRANCH  20  21
ENDBRANCH  19  20
ENDBRANCH  18  19
ENDBRANCH  17  18
ENDBRANCH  16  17
ENDBRANCH  13  16
ENDBRANCH   1  14
BRANCH   2  27
ATOM     27  C   UNL     1       2.361   8.545  17.893  0.00  0.00    +0.000 C 
ATOM     28  O   UNL     1       1.232   9.017  17.813  0.00  0.00    +0.000 OA
BRANCH  27  29
ATOM     29  OXT UNL     1       3.439   9.230  17.463  0.00  0.00    +0.000 OA
ATOM     30  HXT UNL     1       3.252  10.129  17.151  0.00  0.00    +0.000 HD
ENDBRANCH  27  29
ENDBRANCH   2  27
TORSDOF 9
ENDMDL
