MODEL 1
REMARK VINA RESULT:      -8.5      0.000      0.000
REMARK  Name = 
REMARK  11 active torsions:
REMARK  status: ('A' for Active; 'I' for Inactive)
REMARK    1  A    between atoms: C_1  and  C_2
REMARK    2  A    between atoms: C_3  and  C_4
REMARK    3  A    between atoms: C_7  and  C_8
REMARK    4  A    between atoms: C_8  and  N_9
REMARK    5  A    between atoms: C_10  and  C_12
REMARK    6  A    between atoms: C_13  and  C_14
REMARK    7  A    between atoms: C_17  and  O_18
REMARK    8  A    between atoms: C_19  and  O_20
REMARK    9  A    between atoms: C_22  and  O_23
REMARK   10  A    between atoms: C_26  and  C_27
REMARK   11  A    between atoms: C_26  and  C_28
REMARK                            x       y       z     vdW  Elec       q    Type
REMARK                         _______ _______ _______ _____ _____    ______ ____
ROOT
ATOM      1  C   UNL     1       2.036   7.562  19.074  0.00  0.00    +0.000 C 
ENDROOT
BRANCH   1   8
ATOM      2  C   UNL     1       2.050   3.145  21.469  0.00  0.00    +0.000 C 
ATOM      3  C   UNL     1       2.747   4.035  20.471  0.00  0.00    +0.000 A 
ATOM      4  C   UNL     1       3.896   3.668  19.747  0.00  0.00    +0.000 A 
ATOM      5  C   UNL     1       4.575   2.329  19.887  0.00  0.00    +0.000 C 
ATOM      6  C   UNL     1       4.449   4.592  18.829  0.00  0.00    +0.000 A 
ATOM      7  C   UNL     1       3.920   5.890  18.663  0.00  0.00    +0.000 A 
ATOM      8  C   UNL     1       2.750   6.256  19.368  0.00  0.00    +0.000 A 
ATOM      9  C   UNL     1       2.197   5.314  20.256  0.00  0.00    +0.000 A 
ATOM     10  C   UNL     1       4.583   6.849  17.704  0.00  0.00    +0.000 C 
ATOM     11  C   UNL     1       5.942   6.354  17.243  0.00  0.00    +0.000 C 
ATOM     12  C   UNL     1       5.882   4.862  16.920  0.00  0.00    +0.000 C 
ATOM     13  C   UNL     1       4.907   4.518  15.781  0.00  0.00    +0.000 C 
ATOM     14  C   UNL     1       7.283   4.390  16.507  0.00  0.00    +0.000 C 
ATOM     15  O   UNL     1       5.530   4.130  18.105  0.00  0.00    +0.000 OA
BRANCH   9  16
ATOM     16  O   UNL     1       1.070   5.624  20.977  0.00  0.00    +0.000 OA
ATOM     17  H   UNL     1       0.845   6.545  20.748  0.00  0.00    +0.000 HD
ENDBRANCH   9  16
ENDBRANCH   1   8
BRANCH   1  18
ATOM     18  N   UNL     1       1.955   8.470  20.211  0.00  0.00    +0.000 N 
ATOM     19  C   UNL     1       1.037   9.469  20.381  0.00  0.00    +0.000 C 
ATOM     20  O   UNL     1       0.875  10.007  21.468  0.00  0.00    +0.000 OA
ATOM     21  H   UNL     1       2.351   8.147  21.087  0.00  0.00    +0.000 HD
BRANCH  19  22
ATOM     22  C   UNL     1       0.246   9.825  19.190  0.00  0.00    +0.000 C 
ATOM     23  C   UNL     1      -1.015  10.246  19.360  0.00  0.00    +0.000 C 
BRANCH  23  24
ATOM     24  C   UNL     1      -1.955  10.438  18.248  0.00  0.00    +0.000 A 
ATOM     25  C   UNL     1      -1.740   9.729  17.053  0.00  0.00    +0.000 A 
ATOM     26  C   UNL     1      -2.587   9.897  15.951  0.00  0.00    +0.000 A 
ATOM     27  C   UNL     1      -3.660  10.775  16.052  0.00  0.00    +0.000 A 
ATOM     28  C   UNL     1      -3.886  11.470  17.234  0.00  0.00    +0.000 A 
ATOM     29  C   UNL     1      -3.055  11.304  18.333  0.00  0.00    +0.000 A 
BRANCH  27  30
ATOM     30  O   UNL     1      -4.519  10.988  15.013  0.00  0.00    +0.000 OA
ATOM     31  H   UNL     1      -4.387  11.894  14.687  0.00  0.00    +0.000 HD
ENDBRANCH  27  30
BRANCH  28  32
ATOM     32  O   UNL     1      -4.941  12.331  17.329  0.00  0.00    +0.000 OA
ATOM     33  H   UNL     1      -4.979  12.575  18.274  0.00  0.00    +0.000 HD
ENDBRANCH  28  32
ENDBRANCH  23  24
ENDBRANCH  19  22
ENDBRANCH   1  18
TORSDOF 7
ENDMDL
MODEL 2
REMARK VINA RESULT:      -8.2      0.833      1.436
REMARK  Name = 
REMARK  11 active torsions:
REMARK  status: ('A' for Active; 'I' for Inactive)
REMARK    1  A    between atoms: C_1  and  C_2
REMARK    2  A    between atoms: C_3  and  C_4
REMARK    3  A    between atoms: C_7  and  C_8
REMARK    4  A    between atoms: C_8  and  N_9
REMARK    5  A    between atoms: C_10  and  C_12
REMARK    6  A    between atoms: C_13  and  C_14
REMARK    7  A    between atoms: C_17  and  O_18
REMARK    8  A    between atoms: C_19  and  O_20
REMARK    9  A    between atoms: C_22  and  O_23
REMARK   10  A    between atoms: C_26  and  C_27
REMARK   11  A    between atoms: C_26  and  C_28
REMARK                            x       y       z     vdW  Elec       q    Type
REMARK                         _______ _______ _______ _____ _____    ______ ____
ROOT
ATOM      1  C   UNL     1       2.200   7.357  19.454  0.00  0.00    +0.000 C 
ENDROOT
BRANCH   1   8
ATOM      2  C   UNL     1       1.740   2.552  20.852  0.00  0.00    +0.000 C 
ATOM      3  C   UNL     1       2.562   3.569  20.101  0.00  0.00    +0.000 A 
ATOM      4  C   UNL     1       3.726   3.266  19.371  0.00  0.00    +0.000 A 
ATOM      5  C   UNL     1       4.296   1.874  19.255  0.00  0.00    +0.000 C 
ATOM      6  C   UNL     1       4.403   4.311  18.697  0.00  0.00    +0.000 A 
ATOM      7  C   UNL     1       3.981   5.655  18.787  0.00  0.00    +0.000 A 
ATOM      8  C   UNL     1       2.797   5.963  19.498  0.00  0.00    +0.000 A 
ATOM      9  C   UNL     1       2.122   4.907  20.137  0.00  0.00    +0.000 A 
ATOM     10  C   UNL     1       4.772   6.733  18.087  0.00  0.00    +0.000 C 
ATOM     11  C   UNL     1       6.118   6.232  17.596  0.00  0.00    +0.000 C 
ATOM     12  C   UNL     1       5.971   4.852  16.960  0.00  0.00    +0.000 C 
ATOM     13  C   UNL     1       5.049   4.836  15.730  0.00  0.00    +0.000 C 
ATOM     14  C   UNL     1       7.358   4.359  16.524  0.00  0.00    +0.000 C 
ATOM     15  O   UNL     1       5.491   3.921  17.944  0.00  0.00    +0.000 OA
BRANCH   9  16
ATOM     16  O   UNL     1       0.975   5.153  20.853  0.00  0.00    +0.000 OA
ATOM     17  H   UNL     1       0.758   4.321  21.313  0.00  0.00    +0.000 HD
ENDBRANCH   9  16
ENDBRANCH   1   8
BRANCH   1  18
ATOM     18  N   UNL     1       2.169   8.036  20.744  0.00  0.00    +0.000 N 
ATOM     19  C   UNL     1       1.100   8.700  21.280  0.00  0.00    +0.000 C 
ATOM     20  O   UNL     1       1.073   9.012  22.463  0.00  0.00    +0.000 OA
ATOM     21  H   UNL     1       2.827   7.719  21.447  0.00  0.00    +0.000 HD
BRANCH  19  22
ATOM     22  C   UNL     1      -0.012   8.981  20.356  0.00  0.00    +0.000 C 
ATOM     23  C   UNL     1       0.040  10.090  19.607  0.00  0.00    +0.000 C 
BRANCH  23  24
ATOM     24  C   UNL     1      -1.092  10.572  18.803  0.00  0.00    +0.000 A 
ATOM     25  C   UNL     1      -1.936  11.555  19.348  0.00  0.00    +0.000 A 
ATOM     26  C   UNL     1      -3.046  12.028  18.639  0.00  0.00    +0.000 A 
ATOM     27  C   UNL     1      -3.305  11.516  17.372  0.00  0.00    +0.000 A 
ATOM     28  C   UNL     1      -2.468  10.554  16.822  0.00  0.00    +0.000 A 
ATOM     29  C   UNL     1      -1.362  10.084  17.516  0.00  0.00    +0.000 A 
BRANCH  27  30
ATOM     30  O   UNL     1      -4.374  11.931  16.631  0.00  0.00    +0.000 OA
ATOM     31  H   UNL     1      -4.069  12.106  15.725  0.00  0.00    +0.000 HD
ENDBRANCH  27  30
BRANCH  28  32
ATOM     32  O   UNL     1      -2.726  10.054  15.578  0.00  0.00    +0.000 OA
ATOM     33  H   UNL     1      -3.677  10.225  15.433  0.00  0.00    +0.000 HD
ENDBRANCH  28  32
ENDBRANCH  23  24
ENDBRANCH  19  22
ENDBRANCH   1  18
TORSDOF 7
ENDMDL
MODEL 3
REMARK VINA RESULT:      -7.9      1.466      3.209
REMARK  Name = 
REMARK  11 active torsions:
REMARK  status: ('A' for Active; 'I' for Inactive)
REMARK    1  A    between atoms: C_1  and  C_2
REMARK    2  A    between atoms: C_3  and  C_4
REMARK    3  A    between atoms: C_7  and  C_8
REMARK    4  A    between atoms: C_8  and  N_9
REMARK    5  A    between atoms: C_10  and  C_12
REMARK    6  A    between atoms: C_13  and  C_14
REMARK    7  A    between atoms: C_17  and  O_18
REMARK    8  A    between atoms: C_19  and  O_20
REMARK    9  A    between atoms: C_22  and  O_23
REMARK   10  A    between atoms: C_26  and  C_27
REMARK   11  A    between atoms: C_26  and  C_28
REMARK                            x       y       z     vdW  Elec       q    Type
REMARK                         _______ _______ _______ _____ _____    ______ ____
ROOT
ATOM      1  C   UNL     1       1.292   6.651  20.366  0.00  0.00    +0.000 C 
ENDROOT
BRANCH   1   8
ATOM      2  C   UNL     1       4.543   7.643  16.664  0.00  0.00    +0.000 C 
ATOM      3  C   UNL     1       3.889   6.580  17.512  0.00  0.00    +0.000 A 
ATOM      4  C   UNL     1       4.188   5.208  17.432  0.00  0.00    +0.000 A 
ATOM      5  C   UNL     1       5.205   4.632  16.479  0.00  0.00    +0.000 C 
ATOM      6  C   UNL     1       3.513   4.310  18.293  0.00  0.00    +0.000 A 
ATOM      7  C   UNL     1       2.507   4.742  19.184  0.00  0.00    +0.000 A 
ATOM      8  C   UNL     1       2.219   6.123  19.287  0.00  0.00    +0.000 A 
ATOM      9  C   UNL     1       2.921   7.004  18.443  0.00  0.00    +0.000 A 
ATOM     10  C   UNL     1       1.786   3.731  20.042  0.00  0.00    +0.000 C 
ATOM     11  C   UNL     1       2.066   2.304  19.608  0.00  0.00    +0.000 C 
ATOM     12  C   UNL     1       3.550   2.126  19.293  0.00  0.00    +0.000 C 
ATOM     13  C   UNL     1       4.470   2.381  20.499  0.00  0.00    +0.000 C 
ATOM     14  C   UNL     1       3.783   0.688  18.810  0.00  0.00    +0.000 C 
ATOM     15  O   UNL     1       3.915   2.993  18.206  0.00  0.00    +0.000 OA
BRANCH   9  16
ATOM     16  O   UNL     1       2.671   8.354  18.492  0.00  0.00    +0.000 OA
ATOM     17  H   UNL     1       3.146   8.746  17.736  0.00  0.00    +0.000 HD
ENDBRANCH   9  16
ENDBRANCH   1   8
BRANCH   1  18
ATOM     18  N   UNL     1       1.876   7.694  21.199  0.00  0.00    +0.000 N 
ATOM     19  C   UNL     1       1.267   8.859  21.577  0.00  0.00    +0.000 C 
ATOM     20  O   UNL     1       1.720   9.551  22.479  0.00  0.00    +0.000 OA
ATOM     21  H   UNL     1       2.621   7.418  21.829  0.00  0.00    +0.000 HD
BRANCH  19  22
ATOM     22  C   UNL     1       0.028   9.201  20.857  0.00  0.00    +0.000 C 
ATOM     23  C   UNL     1       0.119   9.916  19.728  0.00  0.00    +0.000 C 
BRANCH  23  24
ATOM     24  C   UNL     1      -1.049  10.480  19.036  0.00  0.00    +0.000 A 
ATOM     25  C   UNL     1      -1.339  10.038  17.733  0.00  0.00    +0.000 A 
ATOM     26  C   UNL     1      -2.421  10.562  17.017  0.00  0.00    +0.000 A 
ATOM     27  C   UNL     1      -3.220  11.531  17.615  0.00  0.00    +0.000 A 
ATOM     28  C   UNL     1      -2.947  11.963  18.907  0.00  0.00    +0.000 A 
ATOM     29  C   UNL     1      -1.880  11.443  19.625  0.00  0.00    +0.000 A 
BRANCH  27  30
ATOM     30  O   UNL     1      -4.286  12.087  16.968  0.00  0.00    +0.000 OA
ATOM     31  H   UNL     1      -4.464  12.956  17.364  0.00  0.00    +0.000 HD
ENDBRANCH  27  30
BRANCH  28  32
ATOM     32  O   UNL     1      -3.734  12.913  19.490  0.00  0.00    +0.000 OA
ATOM     33  H   UNL     1      -3.822  13.613  18.814  0.00  0.00    +0.000 HD
ENDBRANCH  28  32
ENDBRANCH  23  24
ENDBRANCH  19  22
ENDBRANCH   1  18
TORSDOF 7
ENDMDL
MODEL 4
REMARK VINA RESULT:      -7.8      1.440      3.345
REMARK  Name = 
REMARK  11 active torsions:
REMARK  status: ('A' for Active; 'I' for Inactive)
REMARK    1  A    between atoms: C_1  and  C_2
REMARK    2  A    between atoms: C_3  and  C_4
REMARK    3  A    between atoms: C_7  and  C_8
REMARK    4  A    between atoms: C_8  and  N_9
REMARK    5  A    between atoms: C_10  and  C_12
REMARK    6  A    between atoms: C_13  and  C_14
REMARK    7  A    between atoms: C_17  and  O_18
REMARK    8  A    between atoms: C_19  and  O_20
REMARK    9  A    between atoms: C_22  and  O_23
REMARK   10  A    between atoms: C_26  and  C_27
REMARK   11  A    between atoms: C_26  and  C_28
REMARK                            x       y       z     vdW  Elec       q    Type
REMARK                         _______ _______ _______ _____ _____    ______ ____
ROOT
ATOM      1  C   UNL     1       1.313   6.578  20.363  0.00  0.00    +0.000 C 
ENDROOT
BRANCH   1   8
ATOM      2  C   UNL     1       4.574   7.621  16.684  0.00  0.00    +0.000 C 
ATOM      3  C   UNL     1       3.922   6.547  17.519  0.00  0.00    +0.000 A 
ATOM      4  C   UNL     1       4.228   5.177  17.428  0.00  0.00    +0.000 A 
ATOM      5  C   UNL     1       5.252   4.614  16.474  0.00  0.00    +0.000 C 
ATOM      6  C   UNL     1       3.554   4.268  18.278  0.00  0.00    +0.000 A 
ATOM      7  C   UNL     1       2.542   4.687  19.168  0.00  0.00    +0.000 A 
ATOM      8  C   UNL     1       2.247   6.066  19.283  0.00  0.00    +0.000 A 
ATOM      9  C   UNL     1       2.948   6.958  18.450  0.00  0.00    +0.000 A 
ATOM     10  C   UNL     1       1.822   3.665  20.014  0.00  0.00    +0.000 C 
ATOM     11  C   UNL     1       2.111   2.243  19.568  0.00  0.00    +0.000 C 
ATOM     12  C   UNL     1       3.597   2.075  19.257  0.00  0.00    +0.000 C 
ATOM     13  C   UNL     1       4.510   2.323  20.469  0.00  0.00    +0.000 C 
ATOM     14  C   UNL     1       3.839   0.642  18.762  0.00  0.00    +0.000 C 
ATOM     15  O   UNL     1       3.962   2.953  18.180  0.00  0.00    +0.000 OA
BRANCH   9  16
ATOM     16  O   UNL     1       2.691   8.306  18.511  0.00  0.00    +0.000 OA
ATOM     17  H   UNL     1       2.351   8.557  17.632  0.00  0.00    +0.000 HD
ENDBRANCH   9  16
ENDBRANCH   1   8
BRANCH   1  18
ATOM     18  N   UNL     1       1.878   7.638  21.189  0.00  0.00    +0.000 N 
ATOM     19  C   UNL     1       1.268   8.818  21.515  0.00  0.00    +0.000 C 
ATOM     20  O   UNL     1       1.696   9.528  22.415  0.00  0.00    +0.000 OA
ATOM     21  H   UNL     1       2.597   7.371  21.852  0.00  0.00    +0.000 HD
BRANCH  19  22
ATOM     22  C   UNL     1       0.058   9.152  20.743  0.00  0.00    +0.000 C 
ATOM     23  C   UNL     1       0.179   9.958  19.681  0.00  0.00    +0.000 C 
BRANCH  23  24
ATOM     24  C   UNL     1      -0.974  10.515  18.959  0.00  0.00    +0.000 A 
ATOM     25  C   UNL     1      -1.779  11.469  19.607  0.00  0.00    +0.000 A 
ATOM     26  C   UNL     1      -2.906  12.010  18.978  0.00  0.00    +0.000 A 
ATOM     27  C   UNL     1      -3.223  11.596  17.689  0.00  0.00    +0.000 A 
ATOM     28  C   UNL     1      -2.425  10.663  17.038  0.00  0.00    +0.000 A 
ATOM     29  C   UNL     1      -1.303  10.127  17.652  0.00  0.00    +0.000 A 
BRANCH  27  30
ATOM     30  O   UNL     1      -4.312  12.080  17.023  0.00  0.00    +0.000 OA
ATOM     31  H   UNL     1      -4.971  11.370  16.957  0.00  0.00    +0.000 HD
ENDBRANCH  27  30
BRANCH  28  32
ATOM     32  O   UNL     1      -2.741  10.260  15.772  0.00  0.00    +0.000 OA
ATOM     33  H   UNL     1      -2.721   9.285  15.810  0.00  0.00    +0.000 HD
ENDBRANCH  28  32
ENDBRANCH  23  24
ENDBRANCH  19  22
ENDBRANCH   1  18
TORSDOF 7
ENDMDL
MODEL 5
REMARK VINA RESULT:      -7.7      2.858      9.824
REMARK  Name = 
REMARK  11 active torsions:
REMARK  status: ('A' for Active; 'I' for Inactive)
REMARK    1  A    between atoms: C_1  and  C_2
REMARK    2  A    between atoms: C_3  and  C_4
REMARK    3  A    between atoms: C_7  and  C_8
REMARK    4  A    between atoms: C_8  and  N_9
REMARK    5  A    between atoms: C_10  and  C_12
REMARK    6  A    between atoms: C_13  and  C_14
REMARK    7  A    between atoms: C_17  and  O_18
REMARK    8  A    between atoms: C_19  and  O_20
REMARK    9  A    between atoms: C_22  and  O_23
REMARK   10  A    between atoms: C_26  and  C_27
REMARK   11  A    between atoms: C_26  and  C_28
REMARK                            x       y       z     vdW  Elec       q    Type
REMARK                         _______ _______ _______ _____ _____    ______ ____
ROOT
ATOM      1  C   UNL     1       0.145  10.061  19.747  0.00  0.00    +0.000 C 
ENDROOT
BRANCH   1   8
ATOM      2  C   UNL     1      -4.099  11.165  17.292  0.00  0.00    +0.000 C 
ATOM      3  C   UNL     1      -3.234  11.445  18.496  0.00  0.00    +0.000 A 
ATOM      4  C   UNL     1      -3.577  12.337  19.528  0.00  0.00    +0.000 A 
ATOM      5  C   UNL     1      -4.861  13.128  19.552  0.00  0.00    +0.000 C 
ATOM      6  C   UNL     1      -2.683  12.503  20.613  0.00  0.00    +0.000 A 
ATOM      7  C   UNL     1      -1.433  11.848  20.659  0.00  0.00    +0.000 A 
ATOM      8  C   UNL     1      -1.093  10.931  19.637  0.00  0.00    +0.000 A 
ATOM      9  C   UNL     1      -2.007  10.758  18.580  0.00  0.00    +0.000 A 
ATOM     10  C   UNL     1      -0.499  12.103  21.817  0.00  0.00    +0.000 C 
ATOM     11  C   UNL     1      -0.940  13.285  22.662  0.00  0.00    +0.000 C 
ATOM     12  C   UNL     1      -2.450  13.244  22.886  0.00  0.00    +0.000 C 
ATOM     13  C   UNL     1      -2.926  11.993  23.643  0.00  0.00    +0.000 C 
ATOM     14  C   UNL     1      -2.863  14.479  23.699  0.00  0.00    +0.000 C 
ATOM     15  O   UNL     1      -3.124  13.337  21.620  0.00  0.00    +0.000 OA
BRANCH   9  16
ATOM     16  O   UNL     1      -1.721   9.890  17.555  0.00  0.00    +0.000 OA
ATOM     17  H   UNL     1      -1.091   9.240  17.918  0.00  0.00    +0.000 HD
ENDBRANCH   9  16
ENDBRANCH   1   8
BRANCH   1  18
ATOM     18  N   UNL     1       1.035  10.138  18.595  0.00  0.00    +0.000 N 
ATOM     19  C   UNL     1       1.883   9.156  18.164  0.00  0.00    +0.000 C 
ATOM     20  O   UNL     1       2.394   9.198  17.054  0.00  0.00    +0.000 OA
ATOM     21  H   UNL     1       0.782  10.789  17.860  0.00  0.00    +0.000 HD
BRANCH  19  22
ATOM     22  C   UNL     1       2.107   8.042  19.102  0.00  0.00    +0.000 C 
ATOM     23  C   UNL     1       2.686   6.924  18.644  0.00  0.00    +0.000 C 
BRANCH  23  24
ATOM     24  C   UNL     1       2.780   5.686  19.431  0.00  0.00    +0.000 A 
ATOM     25  C   UNL     1       1.828   5.455  20.439  0.00  0.00    +0.000 A 
ATOM     26  C   UNL     1       1.887   4.307  21.238  0.00  0.00    +0.000 A 
ATOM     27  C   UNL     1       2.904   3.385  21.019  0.00  0.00    +0.000 A 
ATOM     28  C   UNL     1       3.841   3.601  20.016  0.00  0.00    +0.000 A 
ATOM     29  C   UNL     1       3.784   4.733  19.216  0.00  0.00    +0.000 A 
BRANCH  27  30
ATOM     30  O   UNL     1       3.022   2.249  21.768  0.00  0.00    +0.000 OA
ATOM     31  H   UNL     1       3.508   1.588  21.247  0.00  0.00    +0.000 HD
ENDBRANCH  27  30
BRANCH  28  32
ATOM     32  O   UNL     1       4.837   2.692  19.805  0.00  0.00    +0.000 OA
ATOM     33  H   UNL     1       5.663   3.182  19.981  0.00  0.00    +0.000 HD
ENDBRANCH  28  32
ENDBRANCH  23  24
ENDBRANCH  19  22
ENDBRANCH   1  18
TORSDOF 7
ENDMDL
MODEL 6
REMARK VINA RESULT:      -7.7      2.297      2.953
REMARK  Name = 
REMARK  11 active torsions:
REMARK  status: ('A' for Active; 'I' for Inactive)
REMARK    1  A    between atoms: C_1  and  C_2
REMARK    2  A    between atoms: C_3  and  C_4
REMARK    3  A    between atoms: C_7  and  C_8
REMARK    4  A    between atoms: C_8  and  N_9
REMARK    5  A    between atoms: C_10  and  C_12
REMARK    6  A    between atoms: C_13  and  C_14
REMARK    7  A    between atoms: C_17  and  O_18
REMARK    8  A    between atoms: C_19  and  O_20
REMARK    9  A    between atoms: C_22  and  O_23
REMARK   10  A    between atoms: C_26  and  C_27
REMARK   11  A    between atoms: C_26  and  C_28
REMARK                            x       y       z     vdW  Elec       q    Type
REMARK                         _______ _______ _______ _____ _____    ______ ____
ROOT
ATOM      1  C   UNL     1       2.271   7.236  19.620  0.00  0.00    +0.000 C 
ENDROOT
BRANCH   1   8
ATOM      2  C   UNL     1       1.154   2.337  19.607  0.00  0.00    +0.000 C 
ATOM      3  C   UNL     1       2.136   3.403  19.191  0.00  0.00    +0.000 A 
ATOM      4  C   UNL     1       3.298   3.160  18.435  0.00  0.00    +0.000 A 
ATOM      5  C   UNL     1       3.703   1.790  17.949  0.00  0.00    +0.000 C 
ATOM      6  C   UNL     1       4.135   4.250  18.098  0.00  0.00    +0.000 A 
ATOM      7  C   UNL     1       3.872   5.562  18.549  0.00  0.00    +0.000 A 
ATOM      8  C   UNL     1       2.693   5.817  19.287  0.00  0.00    +0.000 A 
ATOM      9  C   UNL     1       1.858   4.725  19.589  0.00  0.00    +0.000 A 
ATOM     10  C   UNL     1       4.828   6.676  18.199  0.00  0.00    +0.000 C 
ATOM     11  C   UNL     1       6.132   6.156  17.621  0.00  0.00    +0.000 C 
ATOM     12  C   UNL     1       5.860   5.034  16.622  0.00  0.00    +0.000 C 
ATOM     13  C   UNL     1       5.019   5.478  15.413  0.00  0.00    +0.000 C 
ATOM     14  C   UNL     1       7.202   4.501  16.100  0.00  0.00    +0.000 C 
ATOM     15  O   UNL     1       5.212   3.941  17.294  0.00  0.00    +0.000 OA
BRANCH   9  16
ATOM     16  O   UNL     1       0.707   4.915  20.315  0.00  0.00    +0.000 OA
ATOM     17  H   UNL     1      -0.019   4.555  19.773  0.00  0.00    +0.000 HD
ENDBRANCH   9  16
ENDBRANCH   1   8
BRANCH   1  18
ATOM     18  N   UNL     1       1.867   7.431  21.007  0.00  0.00    +0.000 N 
ATOM     19  C   UNL     1       1.103   8.459  21.487  0.00  0.00    +0.000 C 
ATOM     20  O   UNL     1       0.596   8.409  22.600  0.00  0.00    +0.000 OA
ATOM     21  H   UNL     1       1.833   6.607  21.597  0.00  0.00    +0.000 HD
BRANCH  19  22
ATOM     22  C   UNL     1       0.908   9.598  20.574  0.00  0.00    +0.000 C 
ATOM     23  C   UNL     1       0.923  10.837  21.082  0.00  0.00    +0.000 C 
BRANCH  23  24
ATOM     24  C   UNL     1       0.546  12.028  20.307  0.00  0.00    +0.000 A 
ATOM     25  C   UNL     1       0.826  13.297  20.845  0.00  0.00    +0.000 A 
ATOM     26  C   UNL     1       0.463  14.465  20.164  0.00  0.00    +0.000 A 
ATOM     27  C   UNL     1      -0.179  14.358  18.935  0.00  0.00    +0.000 A 
ATOM     28  C   UNL     1      -0.447  13.107  18.393  0.00  0.00    +0.000 A 
ATOM     29  C   UNL     1      -0.084  11.945  19.058  0.00  0.00    +0.000 A 
BRANCH  27  30
ATOM     30  O   UNL     1      -0.565  15.458  18.224  0.00  0.00    +0.000 OA
ATOM     31  H   UNL     1      -1.127  16.009  18.794  0.00  0.00    +0.000 HD
ENDBRANCH  27  30
BRANCH  28  32
ATOM     32  O   UNL     1      -1.077  13.007  17.186  0.00  0.00    +0.000 OA
ATOM     33  H   UNL     1      -1.302  13.926  16.946  0.00  0.00    +0.000 HD
ENDBRANCH  28  32
ENDBRANCH  23  24
ENDBRANCH  19  22
ENDBRANCH   1  18
TORSDOF 7
ENDMDL
MODEL 7
REMARK VINA RESULT:      -7.7      7.573     11.518
REMARK  Name = 
REMARK  11 active torsions:
REMARK  status: ('A' for Active; 'I' for Inactive)
REMARK    1  A    between atoms: C_1  and  C_2
REMARK    2  A    between atoms: C_3  and  C_4
REMARK    3  A    between atoms: C_7  and  C_8
REMARK    4  A    between atoms: C_8  and  N_9
REMARK    5  A    between atoms: C_10  and  C_12
REMARK    6  A    between atoms: C_13  and  C_14
REMARK    7  A    between atoms: C_17  and  O_18
REMARK    8  A    between atoms: C_19  and  O_20
REMARK    9  A    between atoms: C_22  and  O_23
REMARK   10  A    between atoms: C_26  and  C_27
REMARK   11  A    between atoms: C_26  and  C_28
REMARK                            x       y       z     vdW  Elec       q    Type
REMARK                         _______ _______ _______ _____ _____    ______ ____
ROOT
ATOM      1  C   UNL     1       9.894  11.881  20.541  0.00  0.00    +0.000 C 
ENDROOT
BRANCH   1   8
ATOM      2  C   UNL     1      10.990  16.599  21.880  0.00  0.00    +0.000 C 
ATOM      3  C   UNL     1      10.199  15.355  22.196  0.00  0.00    +0.000 A 
ATOM      4  C   UNL     1       9.280  15.247  23.256  0.00  0.00    +0.000 A 
ATOM      5  C   UNL     1       8.977  16.374  24.212  0.00  0.00    +0.000 C 
ATOM      6  C   UNL     1       8.589  14.026  23.441  0.00  0.00    +0.000 A 
ATOM      7  C   UNL     1       8.840  12.896  22.633  0.00  0.00    +0.000 A 
ATOM      8  C   UNL     1       9.744  13.004  21.550  0.00  0.00    +0.000 A 
ATOM      9  C   UNL     1      10.400  14.236  21.365  0.00  0.00    +0.000 A 
ATOM     10  C   UNL     1       8.109  11.604  22.909  0.00  0.00    +0.000 C 
ATOM     11  C   UNL     1       7.383  11.628  24.242  0.00  0.00    +0.000 C 
ATOM     12  C   UNL     1       6.678  12.968  24.439  0.00  0.00    +0.000 C 
ATOM     13  C   UNL     1       5.604  13.260  23.377  0.00  0.00    +0.000 C 
ATOM     14  C   UNL     1       6.000  12.972  25.817  0.00  0.00    +0.000 C 
ATOM     15  O   UNL     1       7.653  14.024  24.454  0.00  0.00    +0.000 OA
BRANCH   9  16
ATOM     16  O   UNL     1      11.298  14.392  20.337  0.00  0.00    +0.000 OA
ATOM     17  H   UNL     1      10.929  15.083  19.756  0.00  0.00    +0.000 HD
ENDBRANCH   9  16
ENDBRANCH   1   8
BRANCH   1  18
ATOM     18  N   UNL     1       9.592  12.266  19.168  0.00  0.00    +0.000 N 
ATOM     19  C   UNL     1       8.904  11.517  18.254  0.00  0.00    +0.000 C 
ATOM     20  O   UNL     1       8.470  12.012  17.222  0.00  0.00    +0.000 OA
ATOM     21  H   UNL     1       9.564  13.259  18.963  0.00  0.00    +0.000 HD
BRANCH  19  22
ATOM     22  C   UNL     1       8.695  10.102  18.607  0.00  0.00    +0.000 C 
ATOM     23  C   UNL     1       8.292   9.255  17.651  0.00  0.00    +0.000 C 
BRANCH  23  24
ATOM     24  C   UNL     1       7.864   7.876  17.926  0.00  0.00    +0.000 A 
ATOM     25  C   UNL     1       6.992   7.248  17.020  0.00  0.00    +0.000 A 
ATOM     26  C   UNL     1       6.529   5.947  17.248  0.00  0.00    +0.000 A 
ATOM     27  C   UNL     1       6.950   5.271  18.388  0.00  0.00    +0.000 A 
ATOM     28  C   UNL     1       7.822   5.881  19.281  0.00  0.00    +0.000 A 
ATOM     29  C   UNL     1       8.290   7.168  19.058  0.00  0.00    +0.000 A 
BRANCH  27  30
ATOM     30  O   UNL     1       6.532   4.003  18.671  0.00  0.00    +0.000 OA
ATOM     31  H   UNL     1       5.850   4.053  19.363  0.00  0.00    +0.000 HD
ENDBRANCH  27  30
BRANCH  28  32
ATOM     32  O   UNL     1       8.233   5.214  20.398  0.00  0.00    +0.000 OA
ATOM     33  H   UNL     1       7.748   5.636  21.133  0.00  0.00    +0.000 HD
ENDBRANCH  28  32
ENDBRANCH  23  24
ENDBRANCH  19  22
ENDBRANCH   1  18
TORSDOF 7
ENDMDL
MODEL 8
REMARK VINA RESULT:      -7.6      3.154      9.721
REMARK  Name = 
REMARK  11 active torsions:
REMARK  status: ('A' for Active; 'I' for Inactive)
REMARK    1  A    between atoms: C_1  and  C_2
REMARK    2  A    between atoms: C_3  and  C_4
REMARK    3  A    between atoms: C_7  and  C_8
REMARK    4  A    between atoms: C_8  and  N_9
REMARK    5  A    between atoms: C_10  and  C_12
REMARK    6  A    between atoms: C_13  and  C_14
REMARK    7  A    between atoms: C_17  and  O_18
REMARK    8  A    between atoms: C_19  and  O_20
REMARK    9  A    between atoms: C_22  and  O_23
REMARK   10  A    between atoms: C_26  and  C_27
REMARK   11  A    between atoms: C_26  and  C_28
REMARK                            x       y       z     vdW  Elec       q    Type
REMARK                         _______ _______ _______ _____ _____    ______ ____
ROOT
ATOM      1  C   UNL     1       0.160  10.580  20.229  0.00  0.00    +0.000 C 
ENDROOT
BRANCH   1   8
ATOM      2  C   UNL     1      -3.976  11.404  17.496  0.00  0.00    +0.000 C 
ATOM      3  C   UNL     1      -3.227  11.716  18.768  0.00  0.00    +0.000 A 
ATOM      4  C   UNL     1      -3.718  12.542  19.795  0.00  0.00    +0.000 A 
ATOM      5  C   UNL     1      -5.064  13.221  19.745  0.00  0.00    +0.000 C 
ATOM      6  C   UNL     1      -2.922  12.746  20.947  0.00  0.00    +0.000 A 
ATOM      7  C   UNL     1      -1.627  12.198  21.068  0.00  0.00    +0.000 A 
ATOM      8  C   UNL     1      -1.137  11.347  20.051  0.00  0.00    +0.000 A 
ATOM      9  C   UNL     1      -1.955  11.132  18.925  0.00  0.00    +0.000 A 
ATOM     10  C   UNL     1      -0.804  12.492  22.299  0.00  0.00    +0.000 C 
ATOM     11  C   UNL     1      -1.404  13.605  23.140  0.00  0.00    +0.000 C 
ATOM     12  C   UNL     1      -2.917  13.430  23.250  0.00  0.00    +0.000 C 
ATOM     13  C   UNL     1      -3.337  12.120  23.937  0.00  0.00    +0.000 C 
ATOM     14  C   UNL     1      -3.492  14.600  24.062  0.00  0.00    +0.000 C 
ATOM     15  O   UNL     1      -3.504  13.507  21.940  0.00  0.00    +0.000 OA
BRANCH   9  16
ATOM     16  O   UNL     1      -1.522  10.325  17.901  0.00  0.00    +0.000 OA
ATOM     17  H   UNL     1      -0.597  10.095  18.109  0.00  0.00    +0.000 HD
ENDBRANCH   9  16
ENDBRANCH   1   8
BRANCH   1  18
ATOM     18  N   UNL     1       1.120  10.767  19.148  0.00  0.00    +0.000 N 
ATOM     19  C   UNL     1       1.766   9.776  18.463  0.00  0.00    +0.000 C 
ATOM     20  O   UNL     1       2.346  10.003  17.410  0.00  0.00    +0.000 OA
ATOM     21  H   UNL     1       1.059  11.633  18.623  0.00  0.00    +0.000 HD
BRANCH  19  22
ATOM     22  C   UNL     1       1.687   8.429  19.054  0.00  0.00    +0.000 C 
ATOM     23  C   UNL     1       2.365   7.432  18.470  0.00  0.00    +0.000 C 
BRANCH  23  24
ATOM     24  C   UNL     1       2.206   6.021  18.850  0.00  0.00    +0.000 A 
ATOM     25  C   UNL     1       2.066   5.701  20.212  0.00  0.00    +0.000 A 
ATOM     26  C   UNL     1       1.942   4.372  20.632  0.00  0.00    +0.000 A 
ATOM     27  C   UNL     1       1.951   3.359  19.679  0.00  0.00    +0.000 A 
ATOM     28  C   UNL     1       2.076   3.669  18.330  0.00  0.00    +0.000 A 
ATOM     29  C   UNL     1       2.193   4.985  17.906  0.00  0.00    +0.000 A 
BRANCH  27  30
ATOM     30  O   UNL     1       1.839   2.043  20.023  0.00  0.00    +0.000 OA
ATOM     31  H   UNL     1       2.515   1.843  20.692  0.00  0.00    +0.000 HD
ENDBRANCH  27  30
BRANCH  28  32
ATOM     32  O   UNL     1       2.083   2.672  17.398  0.00  0.00    +0.000 OA
ATOM     33  H   UNL     1       2.786   2.061  17.694  0.00  0.00    +0.000 HD
ENDBRANCH  28  32
ENDBRANCH  23  24
ENDBRANCH  19  22
ENDBRANCH   1  18
TORSDOF 7
ENDMDL
MODEL 9
REMARK VINA RESULT:      -7.6      2.552      9.163
REMARK  Name = 
REMARK  11 active torsions:
REMARK  status: ('A' for Active; 'I' for Inactive)
REMARK    1  A    between atoms: C_1  and  C_2
REMARK    2  A    between atoms: C_3  and  C_4
REMARK    3  A    between atoms: C_7  and  C_8
REMARK    4  A    between atoms: C_8  and  N_9
REMARK    5  A    between atoms: C_10  and  C_12
REMARK    6  A    between atoms: C_13  and  C_14
REMARK    7  A    between atoms: C_17  and  O_18
REMARK    8  A    between atoms: C_19  and  O_20
REMARK    9  A    between atoms: C_22  and  O_23
REMARK   10  A    between atoms: C_26  and  C_27
REMARK   11  A    between atoms: C_26  and  C_28
REMARK                            x       y       z     vdW  Elec       q    Type
REMARK                         _______ _______ _______ _____ _____    ______ ____
ROOT
ATOM      1  C   UNL     1       0.837  11.146  19.736  0.00  0.00    +0.000 C 
ENDROOT
BRANCH   1   8
ATOM      2  C   UNL     1      -2.907   9.803  16.664  0.00  0.00    +0.000 C 
ATOM      3  C   UNL     1      -2.477  10.682  17.812  0.00  0.00    +0.000 A 
ATOM      4  C   UNL     1      -3.332  11.563  18.500  0.00  0.00    +0.000 A 
ATOM      5  C   UNL     1      -4.793  11.735  18.167  0.00  0.00    +0.000 C 
ATOM      6  C   UNL     1      -2.808  12.326  19.571  0.00  0.00    +0.000 A 
ATOM      7  C   UNL     1      -1.444  12.277  19.927  0.00  0.00    +0.000 A 
ATOM      8  C   UNL     1      -0.584  11.376  19.256  0.00  0.00    +0.000 A 
ATOM      9  C   UNL     1      -1.129  10.603  18.213  0.00  0.00    +0.000 A 
ATOM     10  C   UNL     1      -0.932  13.152  21.046  0.00  0.00    +0.000 C 
ATOM     11  C   UNL     1      -1.945  14.204  21.461  0.00  0.00    +0.000 C 
ATOM     12  C   UNL     1      -3.343  13.595  21.539  0.00  0.00    +0.000 C 
ATOM     13  C   UNL     1      -3.466  12.469  22.579  0.00  0.00    +0.000 C 
ATOM     14  C   UNL     1      -4.343  14.699  21.911  0.00  0.00    +0.000 C 
ATOM     15  O   UNL     1      -3.725  13.109  20.242  0.00  0.00    +0.000 OA
BRANCH   9  16
ATOM     16  O   UNL     1      -0.335   9.723  17.519  0.00  0.00    +0.000 OA
ATOM     17  H   UNL     1      -0.811   8.871  17.518  0.00  0.00    +0.000 HD
ENDBRANCH   9  16
ENDBRANCH   1   8
BRANCH   1  18
ATOM     18  N   UNL     1       0.945  10.822  21.153  0.00  0.00    +0.000 N 
ATOM     19  C   UNL     1       1.192   9.585  21.680  0.00  0.00    +0.000 C 
ATOM     20  O   UNL     1       1.525   9.446  22.849  0.00  0.00    +0.000 OA
ATOM     21  H   UNL     1       1.207  11.575  21.779  0.00  0.00    +0.000 HD
BRANCH  19  22
ATOM     22  C   UNL     1       1.064   8.451  20.748  0.00  0.00    +0.000 C 
ATOM     23  C   UNL     1       1.713   7.313  21.030  0.00  0.00    +0.000 C 
BRANCH  23  24
ATOM     24  C   UNL     1       1.819   6.193  20.085  0.00  0.00    +0.000 A 
ATOM     25  C   UNL     1       2.463   6.409  18.853  0.00  0.00    +0.000 A 
ATOM     26  C   UNL     1       2.566   5.386  17.904  0.00  0.00    +0.000 A 
ATOM     27  C   UNL     1       2.027   4.138  18.195  0.00  0.00    +0.000 A 
ATOM     28  C   UNL     1       1.401   3.914  19.415  0.00  0.00    +0.000 A 
ATOM     29  C   UNL     1       1.300   4.921  20.364  0.00  0.00    +0.000 A 
BRANCH  27  30
ATOM     30  O   UNL     1       2.089   3.101  17.310  0.00  0.00    +0.000 OA
ATOM     31  H   UNL     1       3.007   3.013  17.004  0.00  0.00    +0.000 HD
ENDBRANCH  27  30
BRANCH  28  32
ATOM     32  O   UNL     1       0.873   2.687  19.696  0.00  0.00    +0.000 OA
ATOM     33  H   UNL     1       0.458   2.790  20.574  0.00  0.00    +0.000 HD
ENDBRANCH  28  32
ENDBRANCH  23  24
ENDBRANCH  19  22
ENDBRANCH   1  18
TORSDOF 7
ENDMDL
