MODEL 1
REMARK VINA RESULT:      -7.4      0.000      0.000
REMARK  Name = 
REMARK  5 active torsions:
REMARK  status: ('A' for Active; 'I' for Inactive)
REMARK    1  A    between atoms: C_1  and  N_2
REMARK    2  A    between atoms: N_2  and  C_3
REMARK    3  A    between atoms: C_4  and  C_6
REMARK    4  A    between atoms: C_11  and  S_12
REMARK    5  A    between atoms: S_12  and  N_15
REMARK                            x       y       z     vdW  Elec       q    Type
REMARK                         _______ _______ _______ _____ _____    ______ ____
ROOT
ATOM      1  C   UNL     1       5.785   5.114  15.388  0.00  0.00    +0.000 A 
ATOM      2  C   UNL     1       5.157   6.357  15.463  0.00  0.00    +0.000 A 
ATOM      3  C   UNL     1       4.545   6.752  16.650  0.00  0.00    +0.000 A 
ATOM      4  C   UNL     1       4.425   5.855  17.714  0.00  0.00    +0.000 A 
ATOM      5 CL   UNL     1       3.939   6.507  19.234  0.00  0.00    +0.000 Cl
ATOM      6  C   UNL     1       4.798   4.526  17.526  0.00  0.00    +0.000 A 
ATOM      7  C   UNL     1       5.514   4.157  16.370  0.00  0.00    +0.000 A 
ENDROOT
BRANCH   1  11
ATOM      8  C   UNL     1       7.294   3.859  12.113  0.00  0.00    +0.000 C 
ATOM      9  N   UNL     1       6.346   4.020  13.206  0.00  0.00    +0.000 N 
ATOM     10  C   UNL     1       4.975   3.605  12.931  0.00  0.00    +0.000 C 
ATOM     11  C   UNL     1       6.760   4.802  14.305  0.00  0.00    +0.000 C 
ATOM     12  O   UNL     1       7.881   5.306  14.369  0.00  0.00    +0.000 OA
ENDBRANCH   1  11
BRANCH   6  13
ATOM     13  S   UNL     1       4.130   3.251  18.563  0.00  0.00    +0.000 S 
ATOM     14  O   UNL     1       3.781   2.124  17.729  0.00  0.00    +0.000 OA
ATOM     15  O   UNL     1       5.052   3.056  19.660  0.00  0.00    +0.000 OA
BRANCH  13  16
ATOM     16  N   UNL     1       2.695   3.904  19.217  0.00  0.00    +0.000 NA
ATOM     17  C   UNL     1       2.450   3.642  20.662  0.00  0.00    +0.000 C 
ATOM     18  C   UNL     1       1.486   2.472  20.690  0.00  0.00    +0.000 C 
ATOM     19  C   UNL     1       0.585   2.735  19.502  0.00  0.00    +0.000 C 
ATOM     20  C   UNL     1       1.471   3.444  18.483  0.00  0.00    +0.000 C 
ENDBRANCH  13  16
ENDBRANCH   6  13
TORSDOF 3
ENDMDL
MODEL 2
REMARK VINA RESULT:      -7.0      3.281      5.086
REMARK  Name = 
REMARK  5 active torsions:
REMARK  status: ('A' for Active; 'I' for Inactive)
REMARK    1  A    between atoms: C_1  and  N_2
REMARK    2  A    between atoms: N_2  and  C_3
REMARK    3  A    between atoms: C_4  and  C_6
REMARK    4  A    between atoms: C_11  and  S_12
REMARK    5  A    between atoms: S_12  and  N_15
REMARK                            x       y       z     vdW  Elec       q    Type
REMARK                         _______ _______ _______ _____ _____    ______ ____
ROOT
ATOM      1  C   UNL     1       2.950   7.589  17.955  0.00  0.00    +0.000 A 
ATOM      2  C   UNL     1       4.266   7.746  17.519  0.00  0.00    +0.000 A 
ATOM      3  C   UNL     1       4.953   6.656  16.990  0.00  0.00    +0.000 A 
ATOM      4  C   UNL     1       4.390   5.379  17.030  0.00  0.00    +0.000 A 
ATOM      5 CL   UNL     1       5.159   4.155  16.091  0.00  0.00    +0.000 Cl
ATOM      6  C   UNL     1       3.199   5.185  17.728  0.00  0.00    +0.000 A 
ATOM      7  C   UNL     1       2.455   6.299  18.165  0.00  0.00    +0.000 A 
ENDROOT
BRANCH   1  11
ATOM      8  C   UNL     1       0.650  10.148  19.610  0.00  0.00    +0.000 C 
ATOM      9  N   UNL     1       1.399   8.916  19.406  0.00  0.00    +0.000 N 
ATOM     10  C   UNL     1       1.632   8.103  20.595  0.00  0.00    +0.000 C 
ATOM     11  C   UNL     1       2.059   8.764  18.168  0.00  0.00    +0.000 C 
ATOM     12  O   UNL     1       1.988   9.609  17.276  0.00  0.00    +0.000 OA
ENDBRANCH   1  11
BRANCH   6  13
ATOM     13  S   UNL     1       2.765   3.574  18.332  0.00  0.00    +0.000 S 
ATOM     14  O   UNL     1       2.109   2.852  17.266  0.00  0.00    +0.000 OA
ATOM     15  O   UNL     1       3.947   3.007  18.943  0.00  0.00    +0.000 OA
BRANCH  13  16
ATOM     16  N   UNL     1       1.632   3.847  19.578  0.00  0.00    +0.000 NA
ATOM     17  C   UNL     1       2.148   4.512  20.805  0.00  0.00    +0.000 C 
ATOM     18  C   UNL     1       2.396   3.384  21.788  0.00  0.00    +0.000 C 
ATOM     19  C   UNL     1       1.255   2.427  21.512  0.00  0.00    +0.000 C 
ATOM     20  C   UNL     1       0.958   2.584  20.025  0.00  0.00    +0.000 C 
ENDBRANCH  13  16
ENDBRANCH   6  13
TORSDOF 3
ENDMDL
MODEL 3
REMARK VINA RESULT:      -6.9      2.793      3.589
REMARK  Name = 
REMARK  5 active torsions:
REMARK  status: ('A' for Active; 'I' for Inactive)
REMARK    1  A    between atoms: C_1  and  N_2
REMARK    2  A    between atoms: N_2  and  C_3
REMARK    3  A    between atoms: C_4  and  C_6
REMARK    4  A    between atoms: C_11  and  S_12
REMARK    5  A    between atoms: S_12  and  N_15
REMARK                            x       y       z     vdW  Elec       q    Type
REMARK                         _______ _______ _______ _____ _____    ______ ____
ROOT
ATOM      1  C   UNL     1       6.398   4.965  18.101  0.00  0.00    +0.000 A 
ATOM      2  C   UNL     1       6.001   4.857  16.768  0.00  0.00    +0.000 A 
ATOM      3  C   UNL     1       4.773   4.279  16.457  0.00  0.00    +0.000 A 
ATOM      4  C   UNL     1       4.004   3.675  17.454  0.00  0.00    +0.000 A 
ATOM      5 CL   UNL     1       2.381   3.262  17.046  0.00  0.00    +0.000 Cl
ATOM      6  C   UNL     1       4.542   3.533  18.731  0.00  0.00    +0.000 A 
ATOM      7  C   UNL     1       5.730   4.211  19.070  0.00  0.00    +0.000 A 
ENDROOT
BRANCH   1  11
ATOM      8  C   UNL     1       8.526   8.105  18.527  0.00  0.00    +0.000 C 
ATOM      9  N   UNL     1       7.519   7.201  17.991  0.00  0.00    +0.000 N 
ATOM     10  C   UNL     1       6.467   7.816  17.189  0.00  0.00    +0.000 C 
ATOM     11  C   UNL     1       7.490   5.890  18.513  0.00  0.00    +0.000 C 
ATOM     12  O   UNL     1       8.294   5.502  19.360  0.00  0.00    +0.000 OA
ENDBRANCH   1  11
BRANCH   6  13
ATOM     13  S   UNL     1       3.923   2.286  19.832  0.00  0.00    +0.000 S 
ATOM     14  O   UNL     1       3.119   1.363  19.065  0.00  0.00    +0.000 OA
ATOM     15  O   UNL     1       5.047   1.780  20.589  0.00  0.00    +0.000 OA
BRANCH  13  16
ATOM     16  N   UNL     1       2.906   3.111  20.926  0.00  0.00    +0.000 NA
ATOM     17  C   UNL     1       1.521   2.582  21.067  0.00  0.00    +0.000 C 
ATOM     18  C   UNL     1       0.670   3.473  20.183  0.00  0.00    +0.000 C 
ATOM     19  C   UNL     1       1.296   4.840  20.363  0.00  0.00    +0.000 C 
ATOM     20  C   UNL     1       2.778   4.569  20.598  0.00  0.00    +0.000 C 
ENDBRANCH  13  16
ENDBRANCH   6  13
TORSDOF 3
ENDMDL
MODEL 4
REMARK VINA RESULT:      -6.8      0.871      1.052
REMARK  Name = 
REMARK  5 active torsions:
REMARK  status: ('A' for Active; 'I' for Inactive)
REMARK    1  A    between atoms: C_1  and  N_2
REMARK    2  A    between atoms: N_2  and  C_3
REMARK    3  A    between atoms: C_4  and  C_6
REMARK    4  A    between atoms: C_11  and  S_12
REMARK    5  A    between atoms: S_12  and  N_15
REMARK                            x       y       z     vdW  Elec       q    Type
REMARK                         _______ _______ _______ _____ _____    ______ ____
ROOT
ATOM      1  C   UNL     1       5.568   5.152  15.308  0.00  0.00    +0.000 A 
ATOM      2  C   UNL     1       5.227   6.492  15.492  0.00  0.00    +0.000 A 
ATOM      3  C   UNL     1       4.515   6.874  16.627  0.00  0.00    +0.000 A 
ATOM      4  C   UNL     1       4.012   5.909  17.503  0.00  0.00    +0.000 A 
ATOM      5 CL   UNL     1       3.418   6.467  19.021  0.00  0.00    +0.000 Cl
ATOM      6  C   UNL     1       4.110   4.563  17.156  0.00  0.00    +0.000 A 
ATOM      7  C   UNL     1       4.922   4.176  16.072  0.00  0.00    +0.000 A 
ENDROOT
BRANCH   1  11
ATOM      8  C   UNL     1       7.322   3.720  12.234  0.00  0.00    +0.000 C 
ATOM      9  N   UNL     1       6.277   3.972  13.216  0.00  0.00    +0.000 N 
ATOM     10  C   UNL     1       4.916   3.649  12.801  0.00  0.00    +0.000 C 
ATOM     11  C   UNL     1       6.628   4.748  14.341  0.00  0.00    +0.000 C 
ATOM     12  O   UNL     1       7.769   5.172  14.519  0.00  0.00    +0.000 OA
ENDBRANCH   1  11
BRANCH   6  13
ATOM     13  S   UNL     1       3.002   3.372  17.865  0.00  0.00    +0.000 S 
ATOM     14  O   UNL     1       1.752   3.429  17.142  0.00  0.00    +0.000 OA
ATOM     15  O   UNL     1       3.712   2.114  17.946  0.00  0.00    +0.000 OA
BRANCH  13  16
ATOM     16  N   UNL     1       2.728   3.902  19.463  0.00  0.00    +0.000 NA
ATOM     17  C   UNL     1       3.391   3.119  20.542  0.00  0.00    +0.000 C 
ATOM     18  C   UNL     1       2.317   2.185  21.065  0.00  0.00    +0.000 C 
ATOM     19  C   UNL     1       1.061   3.029  21.000  0.00  0.00    +0.000 C 
ATOM     20  C   UNL     1       1.268   3.955  19.806  0.00  0.00    +0.000 C 
ENDBRANCH  13  16
ENDBRANCH   6  13
TORSDOF 3
ENDMDL
MODEL 5
REMARK VINA RESULT:      -6.8      3.066      6.369
REMARK  Name = 
REMARK  5 active torsions:
REMARK  status: ('A' for Active; 'I' for Inactive)
REMARK    1  A    between atoms: C_1  and  N_2
REMARK    2  A    between atoms: N_2  and  C_3
REMARK    3  A    between atoms: C_4  and  C_6
REMARK    4  A    between atoms: C_11  and  S_12
REMARK    5  A    between atoms: S_12  and  N_15
REMARK                            x       y       z     vdW  Elec       q    Type
REMARK                         _______ _______ _______ _____ _____    ______ ____
ROOT
ATOM      1  C   UNL     1       2.913   3.993  18.380  0.00  0.00    +0.000 A 
ATOM      2  C   UNL     1       2.790   3.018  17.391  0.00  0.00    +0.000 A 
ATOM      3  C   UNL     1       3.711   2.972  16.347  0.00  0.00    +0.000 A 
ATOM      4  C   UNL     1       4.665   3.982  16.202  0.00  0.00    +0.000 A 
ATOM      5 CL   UNL     1       5.944   3.694  15.083  0.00  0.00    +0.000 Cl
ATOM      6  C   UNL     1       4.595   5.103  17.027  0.00  0.00    +0.000 A 
ATOM      7  C   UNL     1       3.739   5.097  18.146  0.00  0.00    +0.000 A 
ENDROOT
BRANCH   1  11
ATOM      8  C   UNL     1       2.107   3.031  21.985  0.00  0.00    +0.000 C 
ATOM      9  N   UNL     1       2.753   3.018  20.681  0.00  0.00    +0.000 N 
ATOM     10  C   UNL     1       4.054   2.361  20.617  0.00  0.00    +0.000 C 
ATOM     11  C   UNL     1       2.213   3.863  19.688  0.00  0.00    +0.000 C 
ATOM     12  O   UNL     1       1.220   4.562  19.889  0.00  0.00    +0.000 OA
ENDBRANCH   1  11
BRANCH   6  13
ATOM     13  S   UNL     1       5.337   6.635  16.524  0.00  0.00    +0.000 S 
ATOM     14  O   UNL     1       5.131   6.793  15.103  0.00  0.00    +0.000 OA
ATOM     15  O   UNL     1       4.860   7.663  17.423  0.00  0.00    +0.000 OA
BRANCH  13  16
ATOM     16  N   UNL     1       7.008   6.445  16.811  0.00  0.00    +0.000 NA
ATOM     17  C   UNL     1       7.398   5.354  17.746  0.00  0.00    +0.000 C 
ATOM     18  C   UNL     1       7.627   6.042  19.077  0.00  0.00    +0.000 C 
ATOM     19  C   UNL     1       8.255   7.362  18.683  0.00  0.00    +0.000 C 
ATOM     20  C   UNL     1       7.645   7.702  17.327  0.00  0.00    +0.000 C 
ENDBRANCH  13  16
ENDBRANCH   6  13
TORSDOF 3
ENDMDL
MODEL 6
REMARK VINA RESULT:      -6.7      2.987      6.365
REMARK  Name = 
REMARK  5 active torsions:
REMARK  status: ('A' for Active; 'I' for Inactive)
REMARK    1  A    between atoms: C_1  and  N_2
REMARK    2  A    between atoms: N_2  and  C_3
REMARK    3  A    between atoms: C_4  and  C_6
REMARK    4  A    between atoms: C_11  and  S_12
REMARK    5  A    between atoms: S_12  and  N_15
REMARK                            x       y       z     vdW  Elec       q    Type
REMARK                         _______ _______ _______ _____ _____    ______ ____
ROOT
ATOM      1  C   UNL     1       3.671   3.462  18.636  0.00  0.00    +0.000 A 
ATOM      2  C   UNL     1       3.348   2.639  17.556  0.00  0.00    +0.000 A 
ATOM      3  C   UNL     1       3.955   2.851  16.320  0.00  0.00    +0.000 A 
ATOM      4  C   UNL     1       4.768   3.968  16.115  0.00  0.00    +0.000 A 
ATOM      5 CL   UNL     1       5.714   3.991  14.675  0.00  0.00    +0.000 Cl
ATOM      6  C   UNL     1       4.852   4.937  17.112  0.00  0.00    +0.000 A 
ATOM      7  C   UNL     1       4.330   4.670  18.394  0.00  0.00    +0.000 A 
ENDROOT
BRANCH   1  11
ATOM      8  C   UNL     1       1.811   2.909  21.923  0.00  0.00    +0.000 C 
ATOM      9  N   UNL     1       2.123   3.439  20.604  0.00  0.00    +0.000 N 
ATOM     10  C   UNL     1       1.018   4.066  19.886  0.00  0.00    +0.000 C 
ATOM     11  C   UNL     1       3.358   3.061  20.036  0.00  0.00    +0.000 C 
ATOM     12  O   UNL     1       4.162   2.342  20.628  0.00  0.00    +0.000 OA
ENDBRANCH   1  11
BRANCH   6  13
ATOM     13  S   UNL     1       5.331   6.598  16.711  0.00  0.00    +0.000 S 
ATOM     14  O   UNL     1       4.976   6.853  15.334  0.00  0.00    +0.000 OA
ATOM     15  O   UNL     1       4.805   7.462  17.745  0.00  0.00    +0.000 OA
BRANCH  13  16
ATOM     16  N   UNL     1       7.032   6.624  16.846  0.00  0.00    +0.000 NA
ATOM     17  C   UNL     1       7.648   5.526  17.639  0.00  0.00    +0.000 C 
ATOM     18  C   UNL     1       7.904   6.126  19.007  0.00  0.00    +0.000 C 
ATOM     19  C   UNL     1       8.311   7.550  18.691  0.00  0.00    +0.000 C 
ATOM     20  C   UNL     1       7.539   7.911  17.427  0.00  0.00    +0.000 C 
ENDBRANCH  13  16
ENDBRANCH   6  13
TORSDOF 3
ENDMDL
MODEL 7
REMARK VINA RESULT:      -6.7      3.229      6.509
REMARK  Name = 
REMARK  5 active torsions:
REMARK  status: ('A' for Active; 'I' for Inactive)
REMARK    1  A    between atoms: C_1  and  N_2
REMARK    2  A    between atoms: N_2  and  C_3
REMARK    3  A    between atoms: C_4  and  C_6
REMARK    4  A    between atoms: C_11  and  S_12
REMARK    5  A    between atoms: S_12  and  N_15
REMARK                            x       y       z     vdW  Elec       q    Type
REMARK                         _______ _______ _______ _____ _____    ______ ____
ROOT
ATOM      1  C   UNL     1       1.945   6.549  20.170  0.00  0.00    +0.000 A 
ATOM      2  C   UNL     1       1.090   5.547  20.629  0.00  0.00    +0.000 A 
ATOM      3  C   UNL     1       1.561   4.242  20.758  0.00  0.00    +0.000 A 
ATOM      4  C   UNL     1       2.832   3.901  20.290  0.00  0.00    +0.000 A 
ATOM      5 CL   UNL     1       3.449   2.362  20.758  0.00  0.00    +0.000 Cl
ATOM      6  C   UNL     1       3.565   4.843  19.572  0.00  0.00    +0.000 A 
ATOM      7  C   UNL     1       3.138   6.186  19.539  0.00  0.00    +0.000 A 
ENDROOT
BRANCH   1  11
ATOM      8  C   UNL     1       1.173  10.224  19.483  0.00  0.00    +0.000 C 
ATOM      9  N   UNL     1       1.621   8.858  19.256  0.00  0.00    +0.000 N 
ATOM     10  C   UNL     1       1.741   8.446  17.861  0.00  0.00    +0.000 C 
ATOM     11  C   UNL     1       1.627   7.991  20.369  0.00  0.00    +0.000 C 
ATOM     12  O   UNL     1       1.303   8.364  21.496  0.00  0.00    +0.000 OA
ENDBRANCH   1  11
BRANCH   6  13
ATOM     13  S   UNL     1       4.848   4.325  18.461  0.00  0.00    +0.000 S 
ATOM     14  O   UNL     1       6.028   4.026  19.239  0.00  0.00    +0.000 OA
ATOM     15  O   UNL     1       4.292   3.301  17.604  0.00  0.00    +0.000 OA
BRANCH  13  16
ATOM     16  N   UNL     1       5.175   5.683  17.480  0.00  0.00    +0.000 NA
ATOM     17  C   UNL     1       5.248   5.436  16.014  0.00  0.00    +0.000 C 
ATOM     18  C   UNL     1       6.729   5.327  15.709  0.00  0.00    +0.000 C 
ATOM     19  C   UNL     1       7.351   6.351  16.634  0.00  0.00    +0.000 C 
ATOM     20  C   UNL     1       6.452   6.371  17.865  0.00  0.00    +0.000 C 
ENDBRANCH  13  16
ENDBRANCH   6  13
TORSDOF 3
ENDMDL
MODEL 8
REMARK VINA RESULT:      -6.5      3.362      6.209
REMARK  Name = 
REMARK  5 active torsions:
REMARK  status: ('A' for Active; 'I' for Inactive)
REMARK    1  A    between atoms: C_1  and  N_2
REMARK    2  A    between atoms: N_2  and  C_3
REMARK    3  A    between atoms: C_4  and  C_6
REMARK    4  A    between atoms: C_11  and  S_12
REMARK    5  A    between atoms: S_12  and  N_15
REMARK                            x       y       z     vdW  Elec       q    Type
REMARK                         _______ _______ _______ _____ _____    ______ ____
ROOT
ATOM      1  C   UNL     1       2.539   7.067  18.295  0.00  0.00    +0.000 A 
ATOM      2  C   UNL     1       1.752   5.916  18.326  0.00  0.00    +0.000 A 
ATOM      3  C   UNL     1       2.328   4.693  18.661  0.00  0.00    +0.000 A 
ATOM      4  C   UNL     1       3.711   4.584  18.818  0.00  0.00    +0.000 A 
ATOM      5 CL   UNL     1       4.305   3.127  19.524  0.00  0.00    +0.000 Cl
ATOM      6  C   UNL     1       4.517   5.675  18.501  0.00  0.00    +0.000 A 
ATOM      7  C   UNL     1       3.931   6.935  18.271  0.00  0.00    +0.000 A 
ENDROOT
BRANCH   1  11
ATOM      8  C   UNL     1       0.886  10.280  19.526  0.00  0.00    +0.000 C 
ATOM      9  N   UNL     1       1.347   8.899  19.515  0.00  0.00    +0.000 N 
ATOM     10  C   UNL     1       1.426   8.240  20.815  0.00  0.00    +0.000 C 
ATOM     11  C   UNL     1       1.929   8.425  18.320  0.00  0.00    +0.000 C 
ATOM     12  O   UNL     1       2.020   9.123  17.311  0.00  0.00    +0.000 OA
ENDBRANCH   1  11
BRANCH   6  13
ATOM     13  S   UNL     1       6.228   5.438  18.090  0.00  0.00    +0.000 S 
ATOM     14  O   UNL     1       6.728   6.662  17.508  0.00  0.00    +0.000 OA
ATOM     15  O   UNL     1       6.883   4.896  19.260  0.00  0.00    +0.000 OA
BRANCH  13  16
ATOM     16  N   UNL     1       6.242   4.223  16.892  0.00  0.00    +0.000 NA
ATOM     17  C   UNL     1       7.400   4.232  15.957  0.00  0.00    +0.000 C 
ATOM     18  C   UNL     1       6.893   4.932  14.711  0.00  0.00    +0.000 C 
ATOM     19  C   UNL     1       5.460   4.454  14.605  0.00  0.00    +0.000 C 
ATOM     20  C   UNL     1       5.005   4.242  16.044  0.00  0.00    +0.000 C 
ENDBRANCH  13  16
ENDBRANCH   6  13
TORSDOF 3
ENDMDL
MODEL 9
REMARK VINA RESULT:      -6.5      3.393      5.244
REMARK  Name = 
REMARK  5 active torsions:
REMARK  status: ('A' for Active; 'I' for Inactive)
REMARK    1  A    between atoms: C_1  and  N_2
REMARK    2  A    between atoms: N_2  and  C_3
REMARK    3  A    between atoms: C_4  and  C_6
REMARK    4  A    between atoms: C_11  and  S_12
REMARK    5  A    between atoms: S_12  and  N_15
REMARK                            x       y       z     vdW  Elec       q    Type
REMARK                         _______ _______ _______ _____ _____    ______ ____
ROOT
ATOM      1  C   UNL     1       2.814   7.368  18.063  0.00  0.00    +0.000 A 
ATOM      2  C   UNL     1       4.202   7.393  17.924  0.00  0.00    +0.000 A 
ATOM      3  C   UNL     1       4.866   6.279  17.416  0.00  0.00    +0.000 A 
ATOM      4  C   UNL     1       4.173   5.089  17.186  0.00  0.00    +0.000 A 
ATOM      5 CL   UNL     1       4.991   3.872  16.280  0.00  0.00    +0.000 Cl
ATOM      6  C   UNL     1       2.846   4.986  17.599  0.00  0.00    +0.000 A 
ATOM      7  C   UNL     1       2.149   6.140  18.008  0.00  0.00    +0.000 A 
ENDROOT
BRANCH   1  11
ATOM      8  C   UNL     1       0.749  10.175  19.621  0.00  0.00    +0.000 C 
ATOM      9  N   UNL     1       1.387   8.877  19.462  0.00  0.00    +0.000 N 
ATOM     10  C   UNL     1       1.549   8.089  20.680  0.00  0.00    +0.000 C 
ATOM     11  C   UNL     1       2.029   8.623  18.231  0.00  0.00    +0.000 C 
ATOM     12  O   UNL     1       2.031   9.439  17.310  0.00  0.00    +0.000 OA
ENDBRANCH   1  11
BRANCH   6  13
ATOM     13  S   UNL     1       2.121   3.395  17.901  0.00  0.00    +0.000 S 
ATOM     14  O   UNL     1       0.694   3.566  18.043  0.00  0.00    +0.000 OA
ATOM     15  O   UNL     1       2.624   2.490  16.890  0.00  0.00    +0.000 OA
BRANCH  13  16
ATOM     16  N   UNL     1       2.757   2.884  19.400  0.00  0.00    +0.000 NA
ATOM     17  C   UNL     1       1.905   1.961  20.198  0.00  0.00    +0.000 C 
ATOM     18  C   UNL     1       1.216   2.847  21.217  0.00  0.00    +0.000 C 
ATOM     19  C   UNL     1       2.280   3.864  21.570  0.00  0.00    +0.000 C 
ATOM     20  C   UNL     1       3.101   4.036  20.297  0.00  0.00    +0.000 C 
ENDBRANCH  13  16
ENDBRANCH   6  13
TORSDOF 3
ENDMDL
