MODEL 1
REMARK VINA RESULT:      -8.2      0.000      0.000
REMARK  Name = 
REMARK  3 active torsions:
REMARK  status: ('A' for Active; 'I' for Inactive)
REMARK    1  A    between atoms: C_2  and  O_3
REMARK    2  A    between atoms: C_2  and  C_14
REMARK    3  A    between atoms: O_3  and  C_4
REMARK                            x       y       z     vdW  Elec       q    Type
REMARK                         _______ _______ _______ _____ _____    ______ ____
ROOT
ATOM      1  C   UNL     1       4.836   5.146  17.313  0.00  0.00    +0.000 A 
ATOM      2  C   UNL     1       4.689   6.538  17.331  0.00  0.00    +0.000 A 
ATOM      3  C   UNL     1       3.490   7.103  17.750  0.00  0.00    +0.000 A 
ATOM      4  C   UNL     1       2.427   6.282  18.123  0.00  0.00    +0.000 A 
ATOM      5  C   UNL     1       2.540   4.884  18.072  0.00  0.00    +0.000 A 
ATOM      6  C   UNL     1       1.448   4.072  18.417  0.00  0.00    +0.000 A 
ATOM      7  C   UNL     1       1.539   2.684  18.350  0.00  0.00    +0.000 A 
ATOM      8  C   UNL     1       2.728   2.088  17.944  0.00  0.00    +0.000 A 
ATOM      9  C   UNL     1       3.828   2.881  17.608  0.00  0.00    +0.000 A 
ATOM     10  C   UNL     1       3.761   4.290  17.659  0.00  0.00    +0.000 A 
ENDROOT
BRANCH   1  11
ATOM     11  O   UNL     1       6.041   4.570  16.838  0.00  0.00    +0.000 OA
BRANCH  11  13
ATOM     12  O   UNL     1       7.569   6.315  16.522  0.00  0.00    +0.000 OA
ATOM     13  C   UNL     1       6.915   5.367  16.110  0.00  0.00    +0.000 C 
BRANCH  13  14
ATOM     14  C   UNL     1       6.946   4.937  14.688  0.00  0.00    +0.000 A 
ATOM     15  C   UNL     1       6.080   3.928  14.281  0.00  0.00    +0.000 A 
ATOM     16  N   UNL     1       6.040   3.467  13.003  0.00  0.00    +0.000 NA
ATOM     17  C   UNL     1       6.906   4.057  12.150  0.00  0.00    +0.000 A 
ATOM     18  C   UNL     1       7.777   5.058  12.553  0.00  0.00    +0.000 A 
ATOM     19  N   UNL     1       7.821   5.523  13.825  0.00  0.00    +0.000 NA
ENDBRANCH  13  14
ENDBRANCH  11  13
ENDBRANCH   1  11
TORSDOF 3
ENDMDL
MODEL 2
REMARK VINA RESULT:      -7.8      2.375      3.960
REMARK  Name = 
REMARK  3 active torsions:
REMARK  status: ('A' for Active; 'I' for Inactive)
REMARK    1  A    between atoms: C_2  and  O_3
REMARK    2  A    between atoms: C_2  and  C_14
REMARK    3  A    between atoms: O_3  and  C_4
REMARK                            x       y       z     vdW  Elec       q    Type
REMARK                         _______ _______ _______ _____ _____    ______ ____
ROOT
ATOM      1  C   UNL     1       3.622   3.925  17.409  0.00  0.00    +0.000 A 
ATOM      2  C   UNL     1       3.669   2.530  17.512  0.00  0.00    +0.000 A 
ATOM      3  C   UNL     1       3.069   1.895  18.593  0.00  0.00    +0.000 A 
ATOM      4  C   UNL     1       2.449   2.649  19.587  0.00  0.00    +0.000 A 
ATOM      5  C   UNL     1       2.428   4.052  19.523  0.00  0.00    +0.000 A 
ATOM      6  C   UNL     1       1.830   4.798  20.551  0.00  0.00    +0.000 A 
ATOM      7  C   UNL     1       1.821   6.191  20.511  0.00  0.00    +0.000 A 
ATOM      8  C   UNL     1       2.404   6.855  19.438  0.00  0.00    +0.000 A 
ATOM      9  C   UNL     1       2.994   6.127  18.402  0.00  0.00    +0.000 A 
ATOM     10  C   UNL     1       3.024   4.716  18.421  0.00  0.00    +0.000 A 
ENDROOT
BRANCH   1  11
ATOM     11  O   UNL     1       4.278   4.574  16.332  0.00  0.00    +0.000 OA
BRANCH  11  13
ATOM     12  O   UNL     1       6.114   3.476  15.382  0.00  0.00    +0.000 OA
ATOM     13  C   UNL     1       5.627   4.318  16.125  0.00  0.00    +0.000 C 
BRANCH  13  14
ATOM     14  C   UNL     1       6.460   5.204  16.977  0.00  0.00    +0.000 A 
ATOM     15  C   UNL     1       7.050   4.666  18.116  0.00  0.00    +0.000 A 
ATOM     16  N   UNL     1       7.826   5.400  18.956  0.00  0.00    +0.000 NA
ATOM     17  C   UNL     1       7.982   6.698  18.612  0.00  0.00    +0.000 A 
ATOM     18  C   UNL     1       7.388   7.241  17.483  0.00  0.00    +0.000 A 
ATOM     19  N   UNL     1       6.615   6.514  16.639  0.00  0.00    +0.000 NA
ENDBRANCH  13  14
ENDBRANCH  11  13
ENDBRANCH   1  11
TORSDOF 3
ENDMDL
MODEL 3
REMARK VINA RESULT:      -7.8      2.568      4.061
REMARK  Name = 
REMARK  3 active torsions:
REMARK  status: ('A' for Active; 'I' for Inactive)
REMARK    1  A    between atoms: C_2  and  O_3
REMARK    2  A    between atoms: C_2  and  C_14
REMARK    3  A    between atoms: O_3  and  C_4
REMARK                            x       y       z     vdW  Elec       q    Type
REMARK                         _______ _______ _______ _____ _____    ______ ____
ROOT
ATOM      1  C   UNL     1       3.536   3.862  17.543  0.00  0.00    +0.000 A 
ATOM      2  C   UNL     1       3.535   2.467  17.665  0.00  0.00    +0.000 A 
ATOM      3  C   UNL     1       2.902   1.867  18.746  0.00  0.00    +0.000 A 
ATOM      4  C   UNL     1       2.295   2.655  19.722  0.00  0.00    +0.000 A 
ATOM      5  C   UNL     1       2.321   4.056  19.640  0.00  0.00    +0.000 A 
ATOM      6  C   UNL     1       1.735   4.836  20.650  0.00  0.00    +0.000 A 
ATOM      7  C   UNL     1       1.773   6.227  20.592  0.00  0.00    +0.000 A 
ATOM      8  C   UNL     1       2.390   6.858  19.518  0.00  0.00    +0.000 A 
ATOM      9  C   UNL     1       2.968   6.096  18.498  0.00  0.00    +0.000 A 
ATOM     10  C   UNL     1       2.952   4.686  18.536  0.00  0.00    +0.000 A 
ENDROOT
BRANCH   1  11
ATOM     11  O   UNL     1       4.226   4.475  16.466  0.00  0.00    +0.000 OA
BRANCH  11  13
ATOM     12  O   UNL     1       6.050   3.291  15.601  0.00  0.00    +0.000 OA
ATOM     13  C   UNL     1       5.571   4.183  16.288  0.00  0.00    +0.000 C 
BRANCH  13  14
ATOM     14  C   UNL     1       6.413   5.105  17.094  0.00  0.00    +0.000 A 
ATOM     15  C   UNL     1       6.593   6.406  16.638  0.00  0.00    +0.000 A 
ATOM     16  N   UNL     1       7.348   7.319  17.305  0.00  0.00    +0.000 NA
ATOM     17  C   UNL     1       7.919   6.872  18.446  0.00  0.00    +0.000 A 
ATOM     18  C   UNL     1       7.749   5.572  18.899  0.00  0.00    +0.000 A 
ATOM     19  N   UNL     1       6.996   4.658  18.240  0.00  0.00    +0.000 NA
ENDBRANCH  13  14
ENDBRANCH  11  13
ENDBRANCH   1  11
TORSDOF 3
ENDMDL
MODEL 4
REMARK VINA RESULT:      -7.6      1.842      3.565
REMARK  Name = 
REMARK  3 active torsions:
REMARK  status: ('A' for Active; 'I' for Inactive)
REMARK    1  A    between atoms: C_2  and  O_3
REMARK    2  A    between atoms: C_2  and  C_14
REMARK    3  A    between atoms: O_3  and  C_4
REMARK                            x       y       z     vdW  Elec       q    Type
REMARK                         _______ _______ _______ _____ _____    ______ ____
ROOT
ATOM      1  C   UNL     1       3.088   3.869  18.766  0.00  0.00    +0.000 A 
ATOM      2  C   UNL     1       2.802   2.703  19.486  0.00  0.00    +0.000 A 
ATOM      3  C   UNL     1       2.015   2.770  20.629  0.00  0.00    +0.000 A 
ATOM      4  C   UNL     1       1.536   4.002  21.073  0.00  0.00    +0.000 A 
ATOM      5  C   UNL     1       1.846   5.188  20.388  0.00  0.00    +0.000 A 
ATOM      6  C   UNL     1       1.385   6.424  20.869  0.00  0.00    +0.000 A 
ATOM      7  C   UNL     1       1.704   7.610  20.212  0.00  0.00    +0.000 A 
ATOM      8  C   UNL     1       2.482   7.575  19.061  0.00  0.00    +0.000 A 
ATOM      9  C   UNL     1       2.940   6.352  18.563  0.00  0.00    +0.000 A 
ATOM     10  C   UNL     1       2.639   5.136  19.213  0.00  0.00    +0.000 A 
ENDROOT
BRANCH   1  11
ATOM     11  O   UNL     1       3.934   3.806  17.630  0.00  0.00    +0.000 OA
BRANCH  11  13
ATOM     12  O   UNL     1       5.915   4.057  18.851  0.00  0.00    +0.000 OA
ATOM     13  C   UNL     1       5.291   4.046  17.798  0.00  0.00    +0.000 C 
BRANCH  13  14
ATOM     14  C   UNL     1       5.933   4.335  16.490  0.00  0.00    +0.000 A 
ATOM     15  C   UNL     1       6.961   5.271  16.449  0.00  0.00    +0.000 A 
ATOM     16  N   UNL     1       7.605   5.603  15.299  0.00  0.00    +0.000 NA
ATOM     17  C   UNL     1       7.172   4.962  14.190  0.00  0.00    +0.000 A 
ATOM     18  C   UNL     1       6.141   4.035  14.225  0.00  0.00    +0.000 A 
ATOM     19  N   UNL     1       5.497   3.698  15.369  0.00  0.00    +0.000 NA
ENDBRANCH  13  14
ENDBRANCH  11  13
ENDBRANCH   1  11
TORSDOF 3
ENDMDL
MODEL 5
REMARK VINA RESULT:      -7.6      1.876      3.527
REMARK  Name = 
REMARK  3 active torsions:
REMARK  status: ('A' for Active; 'I' for Inactive)
REMARK    1  A    between atoms: C_2  and  O_3
REMARK    2  A    between atoms: C_2  and  C_14
REMARK    3  A    between atoms: O_3  and  C_4
REMARK                            x       y       z     vdW  Elec       q    Type
REMARK                         _______ _______ _______ _____ _____    ______ ____
ROOT
ATOM      1  C   UNL     1       3.383   4.419  19.033  0.00  0.00    +0.000 A 
ATOM      2  C   UNL     1       2.979   3.669  20.144  0.00  0.00    +0.000 A 
ATOM      3  C   UNL     1       2.137   4.236  21.093  0.00  0.00    +0.000 A 
ATOM      4  C   UNL     1       1.722   5.559  20.953  0.00  0.00    +0.000 A 
ATOM      5  C   UNL     1       2.149   6.341  19.868  0.00  0.00    +0.000 A 
ATOM      6  C   UNL     1       1.749   7.682  19.761  0.00  0.00    +0.000 A 
ATOM      7  C   UNL     1       2.183   8.476  18.701  0.00  0.00    +0.000 A 
ATOM      8  C   UNL     1       3.017   7.934  17.729  0.00  0.00    +0.000 A 
ATOM      9  C   UNL     1       3.416   6.598  17.816  0.00  0.00    +0.000 A 
ATOM     10  C   UNL     1       2.998   5.774  18.882  0.00  0.00    +0.000 A 
ENDROOT
BRANCH   1  11
ATOM     11  O   UNL     1       4.282   3.856  18.091  0.00  0.00    +0.000 OA
BRANCH  11  13
ATOM     12  O   UNL     1       6.296   4.485  19.102  0.00  0.00    +0.000 OA
ATOM     13  C   UNL     1       5.608   4.264  18.115  0.00  0.00    +0.000 C 
BRANCH  13  14
ATOM     14  C   UNL     1       6.121   4.442  16.732  0.00  0.00    +0.000 A 
ATOM     15  C   UNL     1       7.077   5.425  16.502  0.00  0.00    +0.000 A 
ATOM     16  N   UNL     1       7.601   5.664  15.271  0.00  0.00    +0.000 NA
ATOM     17  C   UNL     1       7.124   4.880  14.278  0.00  0.00    +0.000 A 
ATOM     18  C   UNL     1       6.164   3.905  14.502  0.00  0.00    +0.000 A 
ATOM     19  N   UNL     1       5.638   3.661  15.727  0.00  0.00    +0.000 NA
ENDBRANCH  13  14
ENDBRANCH  11  13
ENDBRANCH   1  11
TORSDOF 3
ENDMDL
MODEL 6
REMARK VINA RESULT:      -7.6      1.614      2.459
REMARK  Name = 
REMARK  3 active torsions:
REMARK  status: ('A' for Active; 'I' for Inactive)
REMARK    1  A    between atoms: C_2  and  O_3
REMARK    2  A    between atoms: C_2  and  C_14
REMARK    3  A    between atoms: O_3  and  C_4
REMARK                            x       y       z     vdW  Elec       q    Type
REMARK                         _______ _______ _______ _____ _____    ______ ____
ROOT
ATOM      1  C   UNL     1       3.038   5.796  18.650  0.00  0.00    +0.000 A 
ATOM      2  C   UNL     1       2.689   6.828  19.528  0.00  0.00    +0.000 A 
ATOM      3  C   UNL     1       1.774   6.591  20.547  0.00  0.00    +0.000 A 
ATOM      4  C   UNL     1       1.183   5.335  20.673  0.00  0.00    +0.000 A 
ATOM      5  C   UNL     1       1.488   4.298  19.777  0.00  0.00    +0.000 A 
ATOM      6  C   UNL     1       0.857   3.050  19.896  0.00  0.00    +0.000 A 
ATOM      7  C   UNL     1       1.134   2.020  19.000  0.00  0.00    +0.000 A 
ATOM      8  C   UNL     1       2.052   2.223  17.976  0.00  0.00    +0.000 A 
ATOM      9  C   UNL     1       2.697   3.457  17.849  0.00  0.00    +0.000 A 
ATOM     10  C   UNL     1       2.429   4.519  18.738  0.00  0.00    +0.000 A 
ENDROOT
BRANCH   1  11
ATOM     11  O   UNL     1       3.932   6.053  17.580  0.00  0.00    +0.000 OA
BRANCH  11  13
ATOM     12  O   UNL     1       5.923   5.662  18.747  0.00  0.00    +0.000 OA
ATOM     13  C   UNL     1       5.260   5.672  17.719  0.00  0.00    +0.000 C 
BRANCH  13  14
ATOM     14  C   UNL     1       5.829   5.285  16.402  0.00  0.00    +0.000 A 
ATOM     15  C   UNL     1       7.098   5.746  16.068  0.00  0.00    +0.000 A 
ATOM     16  N   UNL     1       7.698   5.447  14.886  0.00  0.00    +0.000 NA
ATOM     17  C   UNL     1       6.972   4.671  14.050  0.00  0.00    +0.000 A 
ATOM     18  C   UNL     1       5.703   4.217  14.375  0.00  0.00    +0.000 A 
ATOM     19  N   UNL     1       5.100   4.510  15.553  0.00  0.00    +0.000 NA
ENDBRANCH  13  14
ENDBRANCH  11  13
ENDBRANCH   1  11
TORSDOF 3
ENDMDL
MODEL 7
REMARK VINA RESULT:      -7.5      1.850      2.305
REMARK  Name = 
REMARK  3 active torsions:
REMARK  status: ('A' for Active; 'I' for Inactive)
REMARK    1  A    between atoms: C_2  and  O_3
REMARK    2  A    between atoms: C_2  and  C_14
REMARK    3  A    between atoms: O_3  and  C_4
REMARK                            x       y       z     vdW  Elec       q    Type
REMARK                         _______ _______ _______ _____ _____    ______ ____
ROOT
ATOM      1  C   UNL     1       4.456   4.773  18.827  0.00  0.00    +0.000 A 
ATOM      2  C   UNL     1       4.340   6.016  18.195  0.00  0.00    +0.000 A 
ATOM      3  C   UNL     1       3.201   6.788  18.389  0.00  0.00    +0.000 A 
ATOM      4  C   UNL     1       2.164   6.310  19.188  0.00  0.00    +0.000 A 
ATOM      5  C   UNL     1       2.243   5.048  19.796  0.00  0.00    +0.000 A 
ATOM      6  C   UNL     1       1.174   4.566  20.568  0.00  0.00    +0.000 A 
ATOM      7  C   UNL     1       1.230   3.306  21.160  0.00  0.00    +0.000 A 
ATOM      8  C   UNL     1       2.360   2.513  20.993  0.00  0.00    +0.000 A 
ATOM      9  C   UNL     1       3.437   2.982  20.236  0.00  0.00    +0.000 A 
ATOM     10  C   UNL     1       3.404   4.251  19.619  0.00  0.00    +0.000 A 
ENDROOT
BRANCH   1  11
ATOM     11  O   UNL     1       5.596   3.964  18.588  0.00  0.00    +0.000 OA
BRANCH  11  13
ATOM     12  O   UNL     1       7.650   5.079  18.710  0.00  0.00    +0.000 OA
ATOM     13  C   UNL     1       6.739   4.563  18.077  0.00  0.00    +0.000 C 
BRANCH  13  14
ATOM     14  C   UNL     1       6.719   4.538  16.591  0.00  0.00    +0.000 A 
ATOM     15  C   UNL     1       7.506   5.453  15.902  0.00  0.00    +0.000 A 
ATOM     16  N   UNL     1       7.550   5.508  14.545  0.00  0.00    +0.000 NA
ATOM     17  C   UNL     1       6.767   4.609  13.906  0.00  0.00    +0.000 A 
ATOM     18  C   UNL     1       5.973   3.701  14.589  0.00  0.00    +0.000 A 
ATOM     19  N   UNL     1       5.927   3.640  15.943  0.00  0.00    +0.000 NA
ENDBRANCH  13  14
ENDBRANCH  11  13
ENDBRANCH   1  11
TORSDOF 3
ENDMDL
MODEL 8
REMARK VINA RESULT:      -7.5      0.975      1.508
REMARK  Name = 
REMARK  3 active torsions:
REMARK  status: ('A' for Active; 'I' for Inactive)
REMARK    1  A    between atoms: C_2  and  O_3
REMARK    2  A    between atoms: C_2  and  C_14
REMARK    3  A    between atoms: O_3  and  C_4
REMARK                            x       y       z     vdW  Elec       q    Type
REMARK                         _______ _______ _______ _____ _____    ______ ____
ROOT
ATOM      1  C   UNL     1       3.961   4.755  17.136  0.00  0.00    +0.000 A 
ATOM      2  C   UNL     1       4.133   6.142  17.200  0.00  0.00    +0.000 A 
ATOM      3  C   UNL     1       3.391   6.891  18.105  0.00  0.00    +0.000 A 
ATOM      4  C   UNL     1       2.455   6.264  18.925  0.00  0.00    +0.000 A 
ATOM      5  C   UNL     1       2.237   4.879  18.847  0.00  0.00    +0.000 A 
ATOM      6  C   UNL     1       1.265   4.269  19.655  0.00  0.00    +0.000 A 
ATOM      7  C   UNL     1       1.024   2.899  19.572  0.00  0.00    +0.000 A 
ATOM      8  C   UNL     1       1.757   2.121  18.684  0.00  0.00    +0.000 A 
ATOM      9  C   UNL     1       2.736   2.711  17.879  0.00  0.00    +0.000 A 
ATOM     10  C   UNL     1       2.995   4.097  17.937  0.00  0.00    +0.000 A 
ENDROOT
BRANCH   1  11
ATOM     11  O   UNL     1       4.683   3.998  16.177  0.00  0.00    +0.000 OA
BRANCH  11  13
ATOM     12  O   UNL     1       6.852   4.274  17.012  0.00  0.00    +0.000 OA
ATOM     13  C   UNL     1       6.056   4.179  16.087  0.00  0.00    +0.000 C 
BRANCH  13  14
ATOM     14  C   UNL     1       6.473   4.283  14.665  0.00  0.00    +0.000 A 
ATOM     15  C   UNL     1       7.418   5.243  14.320  0.00  0.00    +0.000 A 
ATOM     16  N   UNL     1       7.857   5.415  13.046  0.00  0.00    +0.000 NA
ATOM     17  C   UNL     1       7.307   4.587  12.129  0.00  0.00    +0.000 A 
ATOM     18  C   UNL     1       6.358   3.634  12.467  0.00  0.00    +0.000 A 
ATOM     19  N   UNL     1       5.917   3.457  13.736  0.00  0.00    +0.000 NA
ENDBRANCH  13  14
ENDBRANCH  11  13
ENDBRANCH   1  11
TORSDOF 3
ENDMDL
MODEL 9
REMARK VINA RESULT:      -7.5      2.745      3.497
REMARK  Name = 
REMARK  3 active torsions:
REMARK  status: ('A' for Active; 'I' for Inactive)
REMARK    1  A    between atoms: C_2  and  O_3
REMARK    2  A    between atoms: C_2  and  C_14
REMARK    3  A    between atoms: O_3  and  C_4
REMARK                            x       y       z     vdW  Elec       q    Type
REMARK                         _______ _______ _______ _____ _____    ______ ____
ROOT
ATOM      1  C   UNL     1       3.266   5.467  17.972  0.00  0.00    +0.000 A 
ATOM      2  C   UNL     1       3.267   6.745  18.544  0.00  0.00    +0.000 A 
ATOM      3  C   UNL     1       2.533   6.988  19.698  0.00  0.00    +0.000 A 
ATOM      4  C   UNL     1       1.773   5.968  20.267  0.00  0.00    +0.000 A 
ATOM      5  C   UNL     1       1.725   4.691  19.686  0.00  0.00    +0.000 A 
ATOM      6  C   UNL     1       0.925   3.686  20.252  0.00  0.00    +0.000 A 
ATOM      7  C   UNL     1       0.851   2.420  19.673  0.00  0.00    +0.000 A 
ATOM      8  C   UNL     1       1.582   2.143  18.523  0.00  0.00    +0.000 A 
ATOM      9  C   UNL     1       2.390   3.130  17.953  0.00  0.00    +0.000 A 
ATOM     10  C   UNL     1       2.478   4.422  18.514  0.00  0.00    +0.000 A 
ENDROOT
BRANCH   1  11
ATOM     11  O   UNL     1       3.974   5.233  16.766  0.00  0.00    +0.000 OA
BRANCH  11  13
ATOM     12  O   UNL     1       5.408   3.411  16.449  0.00  0.00    +0.000 OA
ATOM     13  C   UNL     1       5.182   4.552  16.828  0.00  0.00    +0.000 C 
BRANCH  13  14
ATOM     14  C   UNL     1       6.222   5.397  17.470  0.00  0.00    +0.000 A 
ATOM     15  C   UNL     1       6.613   6.568  16.830  0.00  0.00    +0.000 A 
ATOM     16  N   UNL     1       7.558   7.401  17.339  0.00  0.00    +0.000 NA
ATOM     17  C   UNL     1       8.100   7.010  18.514  0.00  0.00    +0.000 A 
ATOM     18  C   UNL     1       7.720   5.838  19.151  0.00  0.00    +0.000 A 
ATOM     19  N   UNL     1       6.776   5.004  18.650  0.00  0.00    +0.000 NA
ENDBRANCH  13  14
ENDBRANCH  11  13
ENDBRANCH   1  11
TORSDOF 3
ENDMDL
