MODEL 1
REMARK VINA RESULT:      -7.7      0.000      0.000
REMARK  Name = 
REMARK  16 active torsions:
REMARK  status: ('A' for Active; 'I' for Inactive)
REMARK    1  A    between atoms: C_1  and  C_2
REMARK    2  A    between atoms: C_2  and  C_3
REMARK    3  A    between atoms: C_3  and  C_4
REMARK    4  A    between atoms: C_4  and  O_6
REMARK    5  A    between atoms: O_6  and  C_7
REMARK    6  A    between atoms: C_7  and  C_8
REMARK    7  A    between atoms: C_8  and  C_9
REMARK    8  A    between atoms: C_9  and  O_10
REMARK    9  A    between atoms: O_10  and  C_11
REMARK   10  A    between atoms: C_11  and  C_13
REMARK   11  A    between atoms: C_16  and  C_17
REMARK   12  A    between atoms: N_19  and  C_20
REMARK   13  A    between atoms: C_26  and  C_27
REMARK   14  A    between atoms: C_26  and  C_28
REMARK   15  A    between atoms: C_31  and  C_32
REMARK   16  A    between atoms: C_31  and  C_33
REMARK                            x       y       z     vdW  Elec       q    Type
REMARK                         _______ _______ _______ _____ _____    ______ ____
ROOT
ATOM      1  C   UNL     1       3.396   6.958  18.160  0.00  0.00    +0.000 A 
ATOM      2  C   UNL     1       2.816   6.758  19.416  0.00  0.00    +0.000 A 
ATOM      3  C   UNL     1       1.862   7.654  19.912  0.00  0.00    +0.000 A 
ATOM      4  C   UNL     1       1.453   8.781  19.172  0.00  0.00    +0.000 A 
ATOM      5  C   UNL     1       2.066   9.013  17.934  0.00  0.00    +0.000 A 
ATOM      6  C   UNL     1       3.033   8.100  17.433  0.00  0.00    +0.000 A 
ENDROOT
BRANCH   4   7
ATOM      7  C   UNL     1       0.363   9.635  19.819  0.00  0.00    +0.000 C 
ATOM      8  O   UNL     1      -0.021   9.266  20.898  0.00  0.00    +0.000 OA
ATOM      9  N   UNL     1      -0.125  10.749  19.152  0.00  0.00    +0.000 N 
ATOM     10  H   UNL     1       0.351  11.093  18.329  0.00  0.00    +0.000 HD
BRANCH   9  11
ATOM     11  C   UNL     1      -1.161  11.625  19.693  0.00  0.00    +0.000 A 
ATOM     12  C   UNL     1      -2.443  11.873  19.168  0.00  0.00    +0.000 A 
ATOM     13  C   UNL     1      -3.435  12.672  19.848  0.00  0.00    +0.000 A 
ATOM     14  C   UNL     1      -3.204  13.212  21.129  0.00  0.00    +0.000 A 
ATOM     15  C   UNL     1      -1.886  12.979  21.589  0.00  0.00    +0.000 A 
ATOM     16  C   UNL     1      -0.879  12.224  20.890  0.00  0.00    +0.000 A 
ATOM     17  C   UNL     1      -1.481  13.497  22.998  0.00  0.00    +0.000 C 
ATOM     18  C   UNL     1      -1.215  14.872  22.136  0.00  0.00    +0.000 C 
ATOM     19  C   UNL     1      -2.090  12.035  23.478  0.00  0.00    +0.000 C 
ATOM     20  C   UNL     1      -2.320  14.226  24.043  0.00  0.00    +0.000 C 
ATOM     21  C   UNL     1      -3.761  14.382  23.573  0.00  0.00    +0.000 C 
ATOM     22  C   UNL     1      -4.248  13.883  22.103  0.00  0.00    +0.000 C 
ATOM     23  C   UNL     1      -5.378  12.834  22.256  0.00  0.00    +0.000 C 
ATOM     24  C   UNL     1      -4.981  15.158  21.600  0.00  0.00    +0.000 C 
ENDBRANCH   9  11
ENDBRANCH   4   7
BRANCH   1  25
ATOM     25  C   UNL     1       4.377   5.937  17.698  0.00  0.00    +0.000 C 
ATOM     26  O   UNL     1       4.483   5.586  16.524  0.00  0.00    +0.000 OA
BRANCH  25  27
ATOM     27  O   UNL     1       5.171   5.510  18.716  0.00  0.00    +0.000 OA
BRANCH  27  28
ATOM     28  C   UNL     1       5.441   4.095  18.730  0.00  0.00    +0.000 C 
BRANCH  28  29
ATOM     29  C   UNL     1       4.317   3.351  19.449  0.00  0.00    +0.000 C 
BRANCH  29  30
ATOM     30  C   UNL     1       3.768   2.196  18.622  0.00  0.00    +0.000 C 
BRANCH  30  31
ATOM     31  O   UNL     1       2.939   2.675  17.552  0.00  0.00    +0.000 OA
BRANCH  31  32
ATOM     32  C   UNL     1       1.755   3.246  17.923  0.00  0.00    +0.000 C 
ATOM     33  O   UNL     1       1.277   4.261  17.442  0.00  0.00    +0.000 OA
BRANCH  32  34
ATOM     34  C   UNL     1       1.089   2.413  18.991  0.00  0.00    +0.000 C 
BRANCH  34  36
ATOM     35  C   UNL     1       1.393   2.780  21.485  0.00  0.00    +0.000 C 
ATOM     36  C   UNL     1       0.711   3.250  20.209  0.00  0.00    +0.000 C 
ENDBRANCH  34  36
ENDBRANCH  32  34
ENDBRANCH  31  32
ENDBRANCH  30  31
ENDBRANCH  29  30
ENDBRANCH  28  29
ENDBRANCH  27  28
ENDBRANCH  25  27
ENDBRANCH   1  25
TORSDOF 11
ENDMDL
MODEL 2
REMARK VINA RESULT:      -7.7      0.953      1.316
REMARK  Name = 
REMARK  16 active torsions:
REMARK  status: ('A' for Active; 'I' for Inactive)
REMARK    1  A    between atoms: C_1  and  C_2
REMARK    2  A    between atoms: C_2  and  C_3
REMARK    3  A    between atoms: C_3  and  C_4
REMARK    4  A    between atoms: C_4  and  O_6
REMARK    5  A    between atoms: O_6  and  C_7
REMARK    6  A    between atoms: C_7  and  C_8
REMARK    7  A    between atoms: C_8  and  C_9
REMARK    8  A    between atoms: C_9  and  O_10
REMARK    9  A    between atoms: O_10  and  C_11
REMARK   10  A    between atoms: C_11  and  C_13
REMARK   11  A    between atoms: C_16  and  C_17
REMARK   12  A    between atoms: N_19  and  C_20
REMARK   13  A    between atoms: C_26  and  C_27
REMARK   14  A    between atoms: C_26  and  C_28
REMARK   15  A    between atoms: C_31  and  C_32
REMARK   16  A    between atoms: C_31  and  C_33
REMARK                            x       y       z     vdW  Elec       q    Type
REMARK                         _______ _______ _______ _____ _____    ______ ____
ROOT
ATOM      1  C   UNL     1       4.031   6.740  17.725  0.00  0.00    +0.000 A 
ATOM      2  C   UNL     1       3.476   7.873  17.122  0.00  0.00    +0.000 A 
ATOM      3  C   UNL     1       2.467   8.600  17.763  0.00  0.00    +0.000 A 
ATOM      4  C   UNL     1       1.975   8.222  19.028  0.00  0.00    +0.000 A 
ATOM      5  C   UNL     1       2.492   7.061  19.615  0.00  0.00    +0.000 A 
ATOM      6  C   UNL     1       3.518   6.325  18.963  0.00  0.00    +0.000 A 
ENDROOT
BRANCH   4   7
ATOM      7  C   UNL     1       0.913   9.147  19.625  0.00  0.00    +0.000 C 
ATOM      8  O   UNL     1       0.508   8.842  20.717  0.00  0.00    +0.000 OA
ATOM      9  N   UNL     1       0.474  10.247  18.904  0.00  0.00    +0.000 N 
ATOM     10  H   UNL     1       0.968  10.533  18.070  0.00  0.00    +0.000 HD
BRANCH   9  11
ATOM     11  C   UNL     1      -0.532  11.185  19.395  0.00  0.00    +0.000 A 
ATOM     12  C   UNL     1      -1.811  11.437  18.864  0.00  0.00    +0.000 A 
ATOM     13  C   UNL     1      -2.773  12.307  19.499  0.00  0.00    +0.000 A 
ATOM     14  C   UNL     1      -2.515  12.920  20.740  0.00  0.00    +0.000 A 
ATOM     15  C   UNL     1      -1.200  12.679  21.205  0.00  0.00    +0.000 A 
ATOM     16  C   UNL     1      -0.222  11.851  20.549  0.00  0.00    +0.000 A 
ATOM     17  C   UNL     1      -0.768  13.274  22.575  0.00  0.00    +0.000 C 
ATOM     18  C   UNL     1      -0.469  14.582  21.624  0.00  0.00    +0.000 C 
ATOM     19  C   UNL     1      -1.414  11.864  23.152  0.00  0.00    +0.000 C 
ATOM     20  C   UNL     1      -1.576  14.092  23.576  0.00  0.00    +0.000 C 
ATOM     21  C   UNL     1      -3.016  14.261  23.108  0.00  0.00    +0.000 C 
ATOM     22  C   UNL     1      -3.530  13.683  21.676  0.00  0.00    +0.000 C 
ATOM     23  C   UNL     1      -4.688  12.679  21.905  0.00  0.00    +0.000 C 
ATOM     24  C   UNL     1      -4.231  14.944  21.098  0.00  0.00    +0.000 C 
ENDBRANCH   9  11
ENDBRANCH   4   7
BRANCH   1  25
ATOM     25  C   UNL     1       5.123   6.047  16.987  0.00  0.00    +0.000 C 
ATOM     26  O   UNL     1       5.742   6.563  16.059  0.00  0.00    +0.000 OA
BRANCH  25  27
ATOM     27  O   UNL     1       5.384   4.821  17.515  0.00  0.00    +0.000 OA
BRANCH  27  28
ATOM     28  C   UNL     1       4.625   3.736  16.949  0.00  0.00    +0.000 C 
BRANCH  28  29
ATOM     29  C   UNL     1       4.123   2.811  18.057  0.00  0.00    +0.000 C 
BRANCH  29  30
ATOM     30  C   UNL     1       2.921   1.984  17.616  0.00  0.00    +0.000 C 
BRANCH  30  31
ATOM     31  O   UNL     1       1.810   2.173  18.506  0.00  0.00    +0.000 OA
BRANCH  31  32
ATOM     32  C   UNL     1       1.252   3.420  18.507  0.00  0.00    +0.000 C 
ATOM     33  O   UNL     1       1.123   4.139  17.529  0.00  0.00    +0.000 OA
BRANCH  32  34
ATOM     34  C   UNL     1       0.768   3.771  19.893  0.00  0.00    +0.000 C 
BRANCH  34  36
ATOM     35  C   UNL     1       1.737   2.519  21.877  0.00  0.00    +0.000 C 
ATOM     36  C   UNL     1       1.892   3.692  20.922  0.00  0.00    +0.000 C 
ENDBRANCH  34  36
ENDBRANCH  32  34
ENDBRANCH  31  32
ENDBRANCH  30  31
ENDBRANCH  29  30
ENDBRANCH  28  29
ENDBRANCH  27  28
ENDBRANCH  25  27
ENDBRANCH   1  25
TORSDOF 11
ENDMDL
MODEL 3
REMARK VINA RESULT:      -7.7      1.653      2.888
REMARK  Name = 
REMARK  16 active torsions:
REMARK  status: ('A' for Active; 'I' for Inactive)
REMARK    1  A    between atoms: C_1  and  C_2
REMARK    2  A    between atoms: C_2  and  C_3
REMARK    3  A    between atoms: C_3  and  C_4
REMARK    4  A    between atoms: C_4  and  O_6
REMARK    5  A    between atoms: O_6  and  C_7
REMARK    6  A    between atoms: C_7  and  C_8
REMARK    7  A    between atoms: C_8  and  C_9
REMARK    8  A    between atoms: C_9  and  O_10
REMARK    9  A    between atoms: O_10  and  C_11
REMARK   10  A    between atoms: C_11  and  C_13
REMARK   11  A    between atoms: C_16  and  C_17
REMARK   12  A    between atoms: N_19  and  C_20
REMARK   13  A    between atoms: C_26  and  C_27
REMARK   14  A    between atoms: C_26  and  C_28
REMARK   15  A    between atoms: C_31  and  C_32
REMARK   16  A    between atoms: C_31  and  C_33
REMARK                            x       y       z     vdW  Elec       q    Type
REMARK                         _______ _______ _______ _____ _____    ______ ____
ROOT
ATOM      1  C   UNL     1       2.366   7.648  19.172  0.00  0.00    +0.000 A 
ATOM      2  C   UNL     1       1.984   8.746  18.394  0.00  0.00    +0.000 A 
ATOM      3  C   UNL     1       1.170   9.750  18.928  0.00  0.00    +0.000 A 
ATOM      4  C   UNL     1       0.707   9.697  20.257  0.00  0.00    +0.000 A 
ATOM      5  C   UNL     1       1.045   8.577  21.027  0.00  0.00    +0.000 A 
ATOM      6  C   UNL     1       1.873   7.558  20.482  0.00  0.00    +0.000 A 
ENDROOT
BRANCH   4   7
ATOM      7  C   UNL     1      -0.126  10.895  20.715  0.00  0.00    +0.000 C 
ATOM      8  O   UNL     1      -0.526  11.619  19.841  0.00  0.00    +0.000 OA
ATOM      9  N   UNL     1      -0.365  11.090  22.066  0.00  0.00    +0.000 N 
ATOM     10  H   UNL     1      -0.139  10.361  22.729  0.00  0.00    +0.000 HD
BRANCH   9  11
ATOM     11  C   UNL     1      -1.150  12.202  22.595  0.00  0.00    +0.000 A 
ATOM     12  C   UNL     1      -0.738  13.532  22.798  0.00  0.00    +0.000 A 
ATOM     13  C   UNL     1      -1.634  14.582  23.222  0.00  0.00    +0.000 A 
ATOM     14  C   UNL     1      -3.013  14.355  23.400  0.00  0.00    +0.000 A 
ATOM     15  C   UNL     1      -3.367  12.995  23.236  0.00  0.00    +0.000 A 
ATOM     16  C   UNL     1      -2.465  11.937  22.862  0.00  0.00    +0.000 A 
ATOM     17  C   UNL     1      -4.861  12.586  23.382  0.00  0.00    +0.000 C 
ATOM     18  C   UNL     1      -4.430  12.550  24.970  0.00  0.00    +0.000 C 
ATOM     19  C   UNL     1      -4.904  12.970  21.774  0.00  0.00    +0.000 C 
ATOM     20  C   UNL     1      -6.083  13.456  23.656  0.00  0.00    +0.000 C 
ATOM     21  C   UNL     1      -5.699  14.929  23.734  0.00  0.00    +0.000 C 
ATOM     22  C   UNL     1      -4.154  15.424  23.612  0.00  0.00    +0.000 C 
ATOM     23  C   UNL     1      -4.012  16.396  22.413  0.00  0.00    +0.000 C 
ATOM     24  C   UNL     1      -4.052  16.345  24.860  0.00  0.00    +0.000 C 
ENDBRANCH   9  11
ENDBRANCH   4   7
BRANCH   1  25
ATOM     25  C   UNL     1       3.260   6.644  18.533  0.00  0.00    +0.000 C 
ATOM     26  O   UNL     1       3.553   6.666  17.339  0.00  0.00    +0.000 OA
BRANCH  25  27
ATOM     27  O   UNL     1       3.756   5.765  19.444  0.00  0.00    +0.000 OA
BRANCH  27  28
ATOM     28  C   UNL     1       5.000   5.138  19.075  0.00  0.00    +0.000 C 
BRANCH  28  29
ATOM     29  C   UNL     1       4.769   3.664  18.745  0.00  0.00    +0.000 C 
BRANCH  29  30
ATOM     30  C   UNL     1       4.494   2.831  19.990  0.00  0.00    +0.000 C 
BRANCH  30  31
ATOM     31  O   UNL     1       3.129   2.385  20.023  0.00  0.00    +0.000 OA
BRANCH  31  32
ATOM     32  C   UNL     1       2.393   2.793  21.099  0.00  0.00    +0.000 C 
ATOM     33  O   UNL     1       2.615   2.493  22.262  0.00  0.00    +0.000 OA
BRANCH  32  34
ATOM     34  C   UNL     1       1.284   3.713  20.651  0.00  0.00    +0.000 C 
BRANCH  34  36
ATOM     35  C   UNL     1       0.456   2.331  18.689  0.00  0.00    +0.000 C 
ATOM     36  C   UNL     1       1.069   3.648  19.143  0.00  0.00    +0.000 C 
ENDBRANCH  34  36
ENDBRANCH  32  34
ENDBRANCH  31  32
ENDBRANCH  30  31
ENDBRANCH  29  30
ENDBRANCH  28  29
ENDBRANCH  27  28
ENDBRANCH  25  27
ENDBRANCH   1  25
TORSDOF 11
ENDMDL
MODEL 4
REMARK VINA RESULT:      -7.6      1.554      2.747
REMARK  Name = 
REMARK  16 active torsions:
REMARK  status: ('A' for Active; 'I' for Inactive)
REMARK    1  A    between atoms: C_1  and  C_2
REMARK    2  A    between atoms: C_2  and  C_3
REMARK    3  A    between atoms: C_3  and  C_4
REMARK    4  A    between atoms: C_4  and  O_6
REMARK    5  A    between atoms: O_6  and  C_7
REMARK    6  A    between atoms: C_7  and  C_8
REMARK    7  A    between atoms: C_8  and  C_9
REMARK    8  A    between atoms: C_9  and  O_10
REMARK    9  A    between atoms: O_10  and  C_11
REMARK   10  A    between atoms: C_11  and  C_13
REMARK   11  A    between atoms: C_16  and  C_17
REMARK   12  A    between atoms: N_19  and  C_20
REMARK   13  A    between atoms: C_26  and  C_27
REMARK   14  A    between atoms: C_26  and  C_28
REMARK   15  A    between atoms: C_31  and  C_32
REMARK   16  A    between atoms: C_31  and  C_33
REMARK                            x       y       z     vdW  Elec       q    Type
REMARK                         _______ _______ _______ _____ _____    ______ ____
ROOT
ATOM      1  C   UNL     1       2.141   7.784  19.192  0.00  0.00    +0.000 A 
ATOM      2  C   UNL     1       1.714   9.050  18.778  0.00  0.00    +0.000 A 
ATOM      3  C   UNL     1       1.013   9.887  19.653  0.00  0.00    +0.000 A 
ATOM      4  C   UNL     1       0.713   9.491  20.971  0.00  0.00    +0.000 A 
ATOM      5  C   UNL     1       1.095   8.206  21.376  0.00  0.00    +0.000 A 
ATOM      6  C   UNL     1       1.808   7.358  20.485  0.00  0.00    +0.000 A 
ENDROOT
BRANCH   4   7
ATOM      7  C   UNL     1      -0.008  10.535  21.825  0.00  0.00    +0.000 C 
ATOM      8  O   UNL     1       0.114  10.412  23.016  0.00  0.00    +0.000 OA
ATOM      9  N   UNL     1      -0.752  11.531  21.212  0.00  0.00    +0.000 N 
ATOM     10  H   UNL     1      -0.680  11.671  20.213  0.00  0.00    +0.000 HD
BRANCH   9  11
ATOM     11  C   UNL     1      -1.469  12.571  21.945  0.00  0.00    +0.000 A 
ATOM     12  C   UNL     1      -1.013  13.857  22.290  0.00  0.00    +0.000 A 
ATOM     13  C   UNL     1      -1.851  14.850  22.920  0.00  0.00    +0.000 A 
ATOM     14  C   UNL     1      -3.216  14.617  23.176  0.00  0.00    +0.000 A 
ATOM     15  C   UNL     1      -3.612  13.295  22.860  0.00  0.00    +0.000 A 
ATOM     16  C   UNL     1      -2.765  12.287  22.277  0.00  0.00    +0.000 A 
ATOM     17  C   UNL     1      -5.098  12.888  23.069  0.00  0.00    +0.000 C 
ATOM     18  C   UNL     1      -4.547  12.633  24.597  0.00  0.00    +0.000 C 
ATOM     19  C   UNL     1      -5.257  13.486  21.534  0.00  0.00    +0.000 C 
ATOM     20  C   UNL     1      -6.276  13.727  23.552  0.00  0.00    +0.000 C 
ATOM     21  C   UNL     1      -5.855  15.171  23.796  0.00  0.00    +0.000 C 
ATOM     22  C   UNL     1      -4.313  15.661  23.618  0.00  0.00    +0.000 C 
ATOM     23  C   UNL     1      -4.243  16.783  22.552  0.00  0.00    +0.000 C 
ATOM     24  C   UNL     1      -4.095  16.404  24.966  0.00  0.00    +0.000 C 
ENDBRANCH   9  11
ENDBRANCH   4   7
BRANCH   1  25
ATOM     25  C   UNL     1       2.909   6.974  18.206  0.00  0.00    +0.000 C 
ATOM     26  O   UNL     1       3.490   7.463  17.238  0.00  0.00    +0.000 OA
BRANCH  25  27
ATOM     27  O   UNL     1       2.942   5.660  18.555  0.00  0.00    +0.000 OA
BRANCH  27  28
ATOM     28  C   UNL     1       4.218   5.014  18.388  0.00  0.00    +0.000 C 
BRANCH  28  29
ATOM     29  C   UNL     1       4.077   3.800  17.470  0.00  0.00    +0.000 C 
BRANCH  29  30
ATOM     30  C   UNL     1       2.627   3.530  17.090  0.00  0.00    +0.000 C 
BRANCH  30  31
ATOM     31  O   UNL     1       2.210   2.229  17.534  0.00  0.00    +0.000 OA
BRANCH  31  32
ATOM     32  C   UNL     1       1.291   2.210  18.545  0.00  0.00    +0.000 C 
ATOM     33  O   UNL     1       0.078   2.178  18.398  0.00  0.00    +0.000 OA
BRANCH  32  34
ATOM     34  C   UNL     1       1.989   2.185  19.882  0.00  0.00    +0.000 C 
BRANCH  34  36
ATOM     35  C   UNL     1       2.317   3.917  21.709  0.00  0.00    +0.000 C 
ATOM     36  C   UNL     1       1.318   3.115  20.888  0.00  0.00    +0.000 C 
ENDBRANCH  34  36
ENDBRANCH  32  34
ENDBRANCH  31  32
ENDBRANCH  30  31
ENDBRANCH  29  30
ENDBRANCH  28  29
ENDBRANCH  27  28
ENDBRANCH  25  27
ENDBRANCH   1  25
TORSDOF 11
ENDMDL
MODEL 5
REMARK VINA RESULT:      -7.5      1.507      2.802
REMARK  Name = 
REMARK  16 active torsions:
REMARK  status: ('A' for Active; 'I' for Inactive)
REMARK    1  A    between atoms: C_1  and  C_2
REMARK    2  A    between atoms: C_2  and  C_3
REMARK    3  A    between atoms: C_3  and  C_4
REMARK    4  A    between atoms: C_4  and  O_6
REMARK    5  A    between atoms: O_6  and  C_7
REMARK    6  A    between atoms: C_7  and  C_8
REMARK    7  A    between atoms: C_8  and  C_9
REMARK    8  A    between atoms: C_9  and  O_10
REMARK    9  A    between atoms: O_10  and  C_11
REMARK   10  A    between atoms: C_11  and  C_13
REMARK   11  A    between atoms: C_16  and  C_17
REMARK   12  A    between atoms: N_19  and  C_20
REMARK   13  A    between atoms: C_26  and  C_27
REMARK   14  A    between atoms: C_26  and  C_28
REMARK   15  A    between atoms: C_31  and  C_32
REMARK   16  A    between atoms: C_31  and  C_33
REMARK                            x       y       z     vdW  Elec       q    Type
REMARK                         _______ _______ _______ _____ _____    ______ ____
ROOT
ATOM      1  C   UNL     1       2.204   7.651  18.776  0.00  0.00    +0.000 A 
ATOM      2  C   UNL     1       1.756   8.753  18.041  0.00  0.00    +0.000 A 
ATOM      3  C   UNL     1       1.089   9.808  18.673  0.00  0.00    +0.000 A 
ATOM      4  C   UNL     1       0.845   9.802  20.060  0.00  0.00    +0.000 A 
ATOM      5  C   UNL     1       1.248   8.680  20.794  0.00  0.00    +0.000 A 
ATOM      6  C   UNL     1       1.926   7.610  20.150  0.00  0.00    +0.000 A 
ENDROOT
BRANCH   4   7
ATOM      7  C   UNL     1       0.156  11.050  20.615  0.00  0.00    +0.000 C 
ATOM      8  O   UNL     1       0.214  12.032  19.922  0.00  0.00    +0.000 OA
ATOM      9  N   UNL     1      -0.470  10.998  21.851  0.00  0.00    +0.000 N 
ATOM     10  H   UNL     1      -0.619  10.106  22.304  0.00  0.00    +0.000 HD
BRANCH   9  11
ATOM     11  C   UNL     1      -1.154  12.136  22.458  0.00  0.00    +0.000 A 
ATOM     12  C   UNL     1      -0.623  13.406  22.755  0.00  0.00    +0.000 A 
ATOM     13  C   UNL     1      -1.423  14.500  23.253  0.00  0.00    +0.000 A 
ATOM     14  C   UNL     1      -2.818  14.387  23.416  0.00  0.00    +0.000 A 
ATOM     15  C   UNL     1      -3.293  13.080  23.155  0.00  0.00    +0.000 A 
ATOM     16  C   UNL     1      -2.489  11.973  22.706  0.00  0.00    +0.000 A 
ATOM     17  C   UNL     1      -4.819  12.799  23.274  0.00  0.00    +0.000 C 
ATOM     18  C   UNL     1      -4.402  12.612  24.854  0.00  0.00    +0.000 C 
ATOM     19  C   UNL     1      -4.818  13.299  21.696  0.00  0.00    +0.000 C 
ATOM     20  C   UNL     1      -5.958  13.755  23.610  0.00  0.00    +0.000 C 
ATOM     21  C   UNL     1      -5.443  15.178  23.792  0.00  0.00    +0.000 C 
ATOM     22  C   UNL     1      -3.858  15.538  23.703  0.00  0.00    +0.000 C 
ATOM     23  C   UNL     1      -3.622  16.575  22.576  0.00  0.00    +0.000 C 
ATOM     24  C   UNL     1      -3.681  16.356  25.013  0.00  0.00    +0.000 C 
ENDBRANCH   9  11
ENDBRANCH   4   7
BRANCH   1  25
ATOM     25  C   UNL     1       2.933   6.590  18.028  0.00  0.00    +0.000 C 
ATOM     26  O   UNL     1       2.405   5.543  17.657  0.00  0.00    +0.000 OA
BRANCH  25  27
ATOM     27  O   UNL     1       4.211   6.962  17.752  0.00  0.00    +0.000 OA
BRANCH  27  28
ATOM     28  C   UNL     1       5.196   5.920  17.895  0.00  0.00    +0.000 C 
BRANCH  28  29
ATOM     29  C   UNL     1       5.005   5.195  19.227  0.00  0.00    +0.000 C 
BRANCH  29  30
ATOM     30  C   UNL     1       5.089   3.681  19.076  0.00  0.00    +0.000 C 
BRANCH  30  31
ATOM     31  O   UNL     1       4.014   3.032  19.775  0.00  0.00    +0.000 OA
BRANCH  31  32
ATOM     32  C   UNL     1       3.292   2.127  19.050  0.00  0.00    +0.000 C 
ATOM     33  O   UNL     1       3.753   1.342  18.236  0.00  0.00    +0.000 OA
BRANCH  32  34
ATOM     34  C   UNL     1       1.834   2.200  19.434  0.00  0.00    +0.000 C 
BRANCH  34  36
ATOM     35  C   UNL     1       0.927   4.298  20.538  0.00  0.00    +0.000 C 
ATOM     36  C   UNL     1       1.629   2.964  20.738  0.00  0.00    +0.000 C 
ENDBRANCH  34  36
ENDBRANCH  32  34
ENDBRANCH  31  32
ENDBRANCH  30  31
ENDBRANCH  29  30
ENDBRANCH  28  29
ENDBRANCH  27  28
ENDBRANCH  25  27
ENDBRANCH   1  25
TORSDOF 11
ENDMDL
MODEL 6
REMARK VINA RESULT:      -7.5      1.565      2.402
REMARK  Name = 
REMARK  16 active torsions:
REMARK  status: ('A' for Active; 'I' for Inactive)
REMARK    1  A    between atoms: C_1  and  C_2
REMARK    2  A    between atoms: C_2  and  C_3
REMARK    3  A    between atoms: C_3  and  C_4
REMARK    4  A    between atoms: C_4  and  O_6
REMARK    5  A    between atoms: O_6  and  C_7
REMARK    6  A    between atoms: C_7  and  C_8
REMARK    7  A    between atoms: C_8  and  C_9
REMARK    8  A    between atoms: C_9  and  O_10
REMARK    9  A    between atoms: O_10  and  C_11
REMARK   10  A    between atoms: C_11  and  C_13
REMARK   11  A    between atoms: C_16  and  C_17
REMARK   12  A    between atoms: N_19  and  C_20
REMARK   13  A    between atoms: C_26  and  C_27
REMARK   14  A    between atoms: C_26  and  C_28
REMARK   15  A    between atoms: C_31  and  C_32
REMARK   16  A    between atoms: C_31  and  C_33
REMARK                            x       y       z     vdW  Elec       q    Type
REMARK                         _______ _______ _______ _____ _____    ______ ____
ROOT
ATOM      1  C   UNL     1       3.091   7.336  18.224  0.00  0.00    +0.000 A 
ATOM      2  C   UNL     1       2.507   8.410  17.545  0.00  0.00    +0.000 A 
ATOM      3  C   UNL     1       1.564   9.227  18.178  0.00  0.00    +0.000 A 
ATOM      4  C   UNL     1       1.169   9.002  19.511  0.00  0.00    +0.000 A 
ATOM      5  C   UNL     1       1.714   7.900  20.181  0.00  0.00    +0.000 A 
ATOM      6  C   UNL     1       2.672   7.072  19.536  0.00  0.00    +0.000 A 
ENDROOT
BRANCH   4   7
ATOM      7  C   UNL     1       0.174  10.011  20.084  0.00  0.00    +0.000 C 
ATOM      8  O   UNL     1      -0.853  10.140  19.470  0.00  0.00    +0.000 OA
ATOM      9  N   UNL     1       0.493  10.715  21.236  0.00  0.00    +0.000 N 
ATOM     10  H   UNL     1       1.296  10.443  21.786  0.00  0.00    +0.000 HD
BRANCH   9  11
ATOM     11  C   UNL     1      -0.395  11.694  21.856  0.00  0.00    +0.000 A 
ATOM     12  C   UNL     1      -1.269  11.503  22.943  0.00  0.00    +0.000 A 
ATOM     13  C   UNL     1      -2.021  12.575  23.551  0.00  0.00    +0.000 A 
ATOM     14  C   UNL     1      -1.880  13.912  23.132  0.00  0.00    +0.000 A 
ATOM     15  C   UNL     1      -1.034  14.045  22.005  0.00  0.00    +0.000 A 
ATOM     16  C   UNL     1      -0.321  12.969  21.366  0.00  0.00    +0.000 A 
ATOM     17  C   UNL     1      -0.762  15.465  21.434  0.00  0.00    +0.000 C 
ATOM     18  C   UNL     1      -2.176  15.145  20.657  0.00  0.00    +0.000 C 
ATOM     19  C   UNL     1       0.451  15.455  22.559  0.00  0.00    +0.000 C 
ATOM     20  C   UNL     1      -1.254  16.821  21.929  0.00  0.00    +0.000 C 
ATOM     21  C   UNL     1      -2.084  16.671  23.198  0.00  0.00    +0.000 C 
ATOM     22  C   UNL     1      -2.425  15.214  23.838  0.00  0.00    +0.000 C 
ATOM     23  C   UNL     1      -1.875  15.138  25.285  0.00  0.00    +0.000 C 
ATOM     24  C   UNL     1      -3.963  15.340  24.023  0.00  0.00    +0.000 C 
ENDBRANCH   9  11
ENDBRANCH   4   7
BRANCH   1  25
ATOM     25  C   UNL     1       4.109   6.540  17.484  0.00  0.00    +0.000 C 
ATOM     26  O   UNL     1       4.678   6.948  16.474  0.00  0.00    +0.000 OA
BRANCH  25  27
ATOM     27  O   UNL     1       4.370   5.360  18.106  0.00  0.00    +0.000 OA
BRANCH  27  28
ATOM     28  C   UNL     1       4.529   4.228  17.229  0.00  0.00    +0.000 C 
BRANCH  28  29
ATOM     29  C   UNL     1       4.021   2.958  17.911  0.00  0.00    +0.000 C 
BRANCH  29  30
ATOM     30  C   UNL     1       2.649   2.538  17.398  0.00  0.00    +0.000 C 
BRANCH  30  31
ATOM     31  O   UNL     1       1.629   3.442  17.851  0.00  0.00    +0.000 OA
BRANCH  31  32
ATOM     32  C   UNL     1       0.837   2.988  18.868  0.00  0.00    +0.000 C 
ATOM     33  O   UNL     1       0.184   1.956  18.850  0.00  0.00    +0.000 OA
BRANCH  32  34
ATOM     34  C   UNL     1       0.919   3.925  20.048  0.00  0.00    +0.000 C 
BRANCH  34  36
ATOM     35  C   UNL     1       2.723   2.625  21.273  0.00  0.00    +0.000 C 
ATOM     36  C   UNL     1       1.312   3.192  21.327  0.00  0.00    +0.000 C 
ENDBRANCH  34  36
ENDBRANCH  32  34
ENDBRANCH  31  32
ENDBRANCH  30  31
ENDBRANCH  29  30
ENDBRANCH  28  29
ENDBRANCH  27  28
ENDBRANCH  25  27
ENDBRANCH   1  25
TORSDOF 11
ENDMDL
MODEL 7
REMARK VINA RESULT:      -7.4      1.748      3.614
REMARK  Name = 
REMARK  16 active torsions:
REMARK  status: ('A' for Active; 'I' for Inactive)
REMARK    1  A    between atoms: C_1  and  C_2
REMARK    2  A    between atoms: C_2  and  C_3
REMARK    3  A    between atoms: C_3  and  C_4
REMARK    4  A    between atoms: C_4  and  O_6
REMARK    5  A    between atoms: O_6  and  C_7
REMARK    6  A    between atoms: C_7  and  C_8
REMARK    7  A    between atoms: C_8  and  C_9
REMARK    8  A    between atoms: C_9  and  O_10
REMARK    9  A    between atoms: O_10  and  C_11
REMARK   10  A    between atoms: C_11  and  C_13
REMARK   11  A    between atoms: C_16  and  C_17
REMARK   12  A    between atoms: N_19  and  C_20
REMARK   13  A    between atoms: C_26  and  C_27
REMARK   14  A    between atoms: C_26  and  C_28
REMARK   15  A    between atoms: C_31  and  C_32
REMARK   16  A    between atoms: C_31  and  C_33
REMARK                            x       y       z     vdW  Elec       q    Type
REMARK                         _______ _______ _______ _____ _____    ______ ____
ROOT
ATOM      1  C   UNL     1       2.180   7.816  18.934  0.00  0.00    +0.000 A 
ATOM      2  C   UNL     1       1.974   7.655  20.308  0.00  0.00    +0.000 A 
ATOM      3  C   UNL     1       1.301   8.634  21.048  0.00  0.00    +0.000 A 
ATOM      4  C   UNL     1       0.810   9.808  20.443  0.00  0.00    +0.000 A 
ATOM      5  C   UNL     1       1.055   9.997  19.078  0.00  0.00    +0.000 A 
ATOM      6  C   UNL     1       1.738   9.000  18.329  0.00  0.00    +0.000 A 
ENDROOT
BRANCH   4   7
ATOM      7  C   UNL     1       0.047  10.757  21.368  0.00  0.00    +0.000 C 
ATOM      8  O   UNL     1       0.053  10.467  22.536  0.00  0.00    +0.000 OA
ATOM      9  N   UNL     1      -0.603  11.860  20.837  0.00  0.00    +0.000 N 
ATOM     10  H   UNL     1      -0.434  12.132  19.878  0.00  0.00    +0.000 HD
BRANCH   9  11
ATOM     11  C   UNL     1      -1.352  12.821  21.643  0.00  0.00    +0.000 A 
ATOM     12  C   UNL     1      -0.966  14.122  22.016  0.00  0.00    +0.000 A 
ATOM     13  C   UNL     1      -1.837  15.033  22.722  0.00  0.00    +0.000 A 
ATOM     14  C   UNL     1      -3.170  14.697  23.032  0.00  0.00    +0.000 A 
ATOM     15  C   UNL     1      -3.491  13.363  22.684  0.00  0.00    +0.000 A 
ATOM     16  C   UNL     1      -2.608  12.437  22.024  0.00  0.00    +0.000 A 
ATOM     17  C   UNL     1      -4.934  12.847  22.946  0.00  0.00    +0.000 C 
ATOM     18  C   UNL     1      -4.293  12.577  24.437  0.00  0.00    +0.000 C 
ATOM     19  C   UNL     1      -5.209  13.486  21.445  0.00  0.00    +0.000 C 
ATOM     20  C   UNL     1      -6.141  13.585  23.517  0.00  0.00    +0.000 C 
ATOM     21  C   UNL     1      -5.806  15.045  23.795  0.00  0.00    +0.000 C 
ATOM     22  C   UNL     1      -4.312  15.647  23.565  0.00  0.00    +0.000 C 
ATOM     23  C   UNL     1      -4.369  16.808  22.541  0.00  0.00    +0.000 C 
ATOM     24  C   UNL     1      -4.078  16.355  24.928  0.00  0.00    +0.000 C 
ENDBRANCH   9  11
ENDBRANCH   4   7
BRANCH   1  25
ATOM     25  C   UNL     1       2.877   6.709  18.221  0.00  0.00    +0.000 C 
ATOM     26  O   UNL     1       3.708   6.897  17.335  0.00  0.00    +0.000 OA
BRANCH  25  27
ATOM     27  O   UNL     1       2.530   5.494  18.723  0.00  0.00    +0.000 OA
BRANCH  27  28
ATOM     28  C   UNL     1       1.873   4.612  17.792  0.00  0.00    +0.000 C 
BRANCH  28  29
ATOM     29  C   UNL     1       2.852   3.547  17.297  0.00  0.00    +0.000 C 
BRANCH  29  30
ATOM     30  C   UNL     1       4.022   3.352  18.253  0.00  0.00    +0.000 C 
BRANCH  30  31
ATOM     31  O   UNL     1       5.225   3.929  17.722  0.00  0.00    +0.000 OA
BRANCH  31  32
ATOM     32  C   UNL     1       6.012   4.597  18.617  0.00  0.00    +0.000 C 
ATOM     33  O   UNL     1       5.723   4.825  19.782  0.00  0.00    +0.000 OA
BRANCH  32  34
ATOM     34  C   UNL     1       7.323   4.977  17.973  0.00  0.00    +0.000 C 
BRANCH  34  36
ATOM     35  C   UNL     1       7.500   7.464  17.499  0.00  0.00    +0.000 C 
ATOM     36  C   UNL     1       7.822   6.332  18.464  0.00  0.00    +0.000 C 
ENDBRANCH  34  36
ENDBRANCH  32  34
ENDBRANCH  31  32
ENDBRANCH  30  31
ENDBRANCH  29  30
ENDBRANCH  28  29
ENDBRANCH  27  28
ENDBRANCH  25  27
ENDBRANCH   1  25
TORSDOF 11
ENDMDL
MODEL 8
REMARK VINA RESULT:      -7.4      2.511      4.129
REMARK  Name = 
REMARK  16 active torsions:
REMARK  status: ('A' for Active; 'I' for Inactive)
REMARK    1  A    between atoms: C_1  and  C_2
REMARK    2  A    between atoms: C_2  and  C_3
REMARK    3  A    between atoms: C_3  and  C_4
REMARK    4  A    between atoms: C_4  and  O_6
REMARK    5  A    between atoms: O_6  and  C_7
REMARK    6  A    between atoms: C_7  and  C_8
REMARK    7  A    between atoms: C_8  and  C_9
REMARK    8  A    between atoms: C_9  and  O_10
REMARK    9  A    between atoms: O_10  and  C_11
REMARK   10  A    between atoms: C_11  and  C_13
REMARK   11  A    between atoms: C_16  and  C_17
REMARK   12  A    between atoms: N_19  and  C_20
REMARK   13  A    between atoms: C_26  and  C_27
REMARK   14  A    between atoms: C_26  and  C_28
REMARK   15  A    between atoms: C_31  and  C_32
REMARK   16  A    between atoms: C_31  and  C_33
REMARK                            x       y       z     vdW  Elec       q    Type
REMARK                         _______ _______ _______ _____ _____    ______ ____
ROOT
ATOM      1  C   UNL     1       3.552   5.875  18.522  0.00  0.00    +0.000 A 
ATOM      2  C   UNL     1       2.760   5.983  19.669  0.00  0.00    +0.000 A 
ATOM      3  C   UNL     1       2.012   7.141  19.913  0.00  0.00    +0.000 A 
ATOM      4  C   UNL     1       2.029   8.231  19.021  0.00  0.00    +0.000 A 
ATOM      5  C   UNL     1       2.857   8.148  17.895  0.00  0.00    +0.000 A 
ATOM      6  C   UNL     1       3.614   6.971  17.650  0.00  0.00    +0.000 A 
ENDROOT
BRANCH   4   7
ATOM      7  C   UNL     1       1.117   9.402  19.393  0.00  0.00    +0.000 C 
ATOM      8  O   UNL     1       0.375   9.783  18.526  0.00  0.00    +0.000 OA
ATOM      9  N   UNL     1       1.194   9.957  20.661  0.00  0.00    +0.000 N 
ATOM     10  H   UNL     1       1.720   9.488  21.386  0.00  0.00    +0.000 HD
BRANCH   9  11
ATOM     11  C   UNL     1       0.362  11.072  21.106  0.00  0.00    +0.000 A 
ATOM     12  C   UNL     1      -0.703  11.043  22.025  0.00  0.00    +0.000 A 
ATOM     13  C   UNL     1      -1.387  12.231  22.481  0.00  0.00    +0.000 A 
ATOM     14  C   UNL     1      -0.986  13.519  22.078  0.00  0.00    +0.000 A 
ATOM     15  C   UNL     1       0.052  13.492  21.116  0.00  0.00    +0.000 A 
ATOM     16  C   UNL     1       0.702  12.306  20.623  0.00  0.00    +0.000 A 
ATOM     17  C   UNL     1       0.618  14.840  20.586  0.00  0.00    +0.000 C 
ATOM     18  C   UNL     1      -0.673  14.693  19.577  0.00  0.00    +0.000 C 
ATOM     19  C   UNL     1       1.606  14.701  21.906  0.00  0.00    +0.000 C 
ATOM     20  C   UNL     1       0.248  16.268  20.972  0.00  0.00    +0.000 C 
ATOM     21  C   UNL     1      -0.800  16.280  22.079  0.00  0.00    +0.000 C 
ATOM     22  C   UNL     1      -1.452  14.909  22.664  0.00  0.00    +0.000 C 
ATOM     23  C   UNL     1      -1.175  14.808  24.185  0.00  0.00    +0.000 C 
ATOM     24  C   UNL     1      -2.964  15.254  22.576  0.00  0.00    +0.000 C 
ENDBRANCH   9  11
ENDBRANCH   4   7
BRANCH   1  25
ATOM     25  C   UNL     1       4.287   4.595  18.327  0.00  0.00    +0.000 C 
ATOM     26  O   UNL     1       3.967   3.754  17.488  0.00  0.00    +0.000 OA
BRANCH  25  27
ATOM     27  O   UNL     1       5.379   4.517  19.133  0.00  0.00    +0.000 OA
BRANCH  27  28
ATOM     28  C   UNL     1       6.645   4.476  18.447  0.00  0.00    +0.000 C 
BRANCH  28  29
ATOM     29  C   UNL     1       7.119   5.894  18.131  0.00  0.00    +0.000 C 
BRANCH  29  30
ATOM     30  C   UNL     1       7.273   6.131  16.634  0.00  0.00    +0.000 C 
BRANCH  30  31
ATOM     31  O   UNL     1       7.305   4.888  15.915  0.00  0.00    +0.000 OA
BRANCH  31  32
ATOM     32  C   UNL     1       7.115   4.974  14.565  0.00  0.00    +0.000 C 
ATOM     33  O   UNL     1       7.801   5.625  13.793  0.00  0.00    +0.000 OA
BRANCH  32  34
ATOM     34  C   UNL     1       5.953   4.105  14.148  0.00  0.00    +0.000 C 
BRANCH  34  36
ATOM     35  C   UNL     1       4.873   3.294  11.999  0.00  0.00    +0.000 C 
ATOM     36  C   UNL     1       6.170   3.493  12.768  0.00  0.00    +0.000 C 
ENDBRANCH  34  36
ENDBRANCH  32  34
ENDBRANCH  31  32
ENDBRANCH  30  31
ENDBRANCH  29  30
ENDBRANCH  28  29
ENDBRANCH  27  28
ENDBRANCH  25  27
ENDBRANCH   1  25
TORSDOF 11
ENDMDL
MODEL 9
REMARK VINA RESULT:      -7.4      3.282      5.147
REMARK  Name = 
REMARK  16 active torsions:
REMARK  status: ('A' for Active; 'I' for Inactive)
REMARK    1  A    between atoms: C_1  and  C_2
REMARK    2  A    between atoms: C_2  and  C_3
REMARK    3  A    between atoms: C_3  and  C_4
REMARK    4  A    between atoms: C_4  and  O_6
REMARK    5  A    between atoms: O_6  and  C_7
REMARK    6  A    between atoms: C_7  and  C_8
REMARK    7  A    between atoms: C_8  and  C_9
REMARK    8  A    between atoms: C_9  and  O_10
REMARK    9  A    between atoms: O_10  and  C_11
REMARK   10  A    between atoms: C_11  and  C_13
REMARK   11  A    between atoms: C_16  and  C_17
REMARK   12  A    between atoms: N_19  and  C_20
REMARK   13  A    between atoms: C_26  and  C_27
REMARK   14  A    between atoms: C_26  and  C_28
REMARK   15  A    between atoms: C_31  and  C_32
REMARK   16  A    between atoms: C_31  and  C_33
REMARK                            x       y       z     vdW  Elec       q    Type
REMARK                         _______ _______ _______ _____ _____    ______ ____
ROOT
ATOM      1  C   UNL     1       2.172   5.441  19.486  0.00  0.00    +0.000 A 
ATOM      2  C   UNL     1       2.233   5.956  18.187  0.00  0.00    +0.000 A 
ATOM      3  C   UNL     1       2.049   7.324  17.954  0.00  0.00    +0.000 A 
ATOM      4  C   UNL     1       1.796   8.225  19.006  0.00  0.00    +0.000 A 
ATOM      5  C   UNL     1       1.686   7.708  20.303  0.00  0.00    +0.000 A 
ATOM      6  C   UNL     1       1.875   6.319  20.538  0.00  0.00    +0.000 A 
ENDROOT
BRANCH   4   7
ATOM      7  C   UNL     1       1.674   9.695  18.601  0.00  0.00    +0.000 C 
ATOM      8  O   UNL     1       2.103   9.975  17.512  0.00  0.00    +0.000 OA
ATOM      9  N   UNL     1       1.105  10.605  19.479  0.00  0.00    +0.000 N 
ATOM     10  H   UNL     1       0.623  10.276  20.304  0.00  0.00    +0.000 HD
BRANCH   9  11
ATOM     11  C   UNL     1       0.944  12.025  19.178  0.00  0.00    +0.000 A 
ATOM     12  C   UNL     1      -0.238  12.705  18.829  0.00  0.00    +0.000 A 
ATOM     13  C   UNL     1      -0.305  14.138  18.662  0.00  0.00    +0.000 A 
ATOM     14  C   UNL     1       0.808  14.967  18.902  0.00  0.00    +0.000 A 
ATOM     15  C   UNL     1       1.981  14.233  19.198  0.00  0.00    +0.000 A 
ATOM     16  C   UNL     1       2.062  12.800  19.316  0.00  0.00    +0.000 A 
ATOM     17  C   UNL     1       3.294  15.009  19.507  0.00  0.00    +0.000 C 
ATOM     18  C   UNL     1       3.387  14.995  17.865  0.00  0.00    +0.000 C 
ATOM     19  C   UNL     1       2.690  14.993  21.047  0.00  0.00    +0.000 C 
ATOM     20  C   UNL     1       3.538  16.512  19.583  0.00  0.00    +0.000 C 
ATOM     21  C   UNL     1       2.245  17.287  19.359  0.00  0.00    +0.000 C 
ATOM     22  C   UNL     1       0.842  16.541  19.010  0.00  0.00    +0.000 C 
ATOM     23  C   UNL     1      -0.215  16.886  20.089  0.00  0.00    +0.000 C 
ATOM     24  C   UNL     1       0.391  17.355  17.765  0.00  0.00    +0.000 C 
ENDBRANCH   9  11
ENDBRANCH   4   7
BRANCH   1  25
ATOM     25  C   UNL     1       2.412   3.980  19.646  0.00  0.00    +0.000 C 
ATOM     26  O   UNL     1       1.556   3.196  20.050  0.00  0.00    +0.000 OA
BRANCH  25  27
ATOM     27  O   UNL     1       3.656   3.629  19.223  0.00  0.00    +0.000 OA
BRANCH  27  28
ATOM     28  C   UNL     1       3.708   2.996  17.930  0.00  0.00    +0.000 C 
BRANCH  28  29
ATOM     29  C   UNL     1       4.797   3.640  17.072  0.00  0.00    +0.000 C 
BRANCH  29  30
ATOM     30  C   UNL     1       5.651   4.621  17.867  0.00  0.00    +0.000 C 
BRANCH  30  31
ATOM     31  O   UNL     1       7.000   4.647  17.375  0.00  0.00    +0.000 OA
BRANCH  31  32
ATOM     32  C   UNL     1       7.436   5.848  16.892  0.00  0.00    +0.000 C 
ATOM     33  O   UNL     1       7.652   6.102  15.717  0.00  0.00    +0.000 OA
BRANCH  32  34
ATOM     34  C   UNL     1       7.571   6.843  18.018  0.00  0.00    +0.000 C 
BRANCH  34  36
ATOM     35  C   UNL     1       8.454   9.215  18.208  0.00  0.00    +0.000 C 
ATOM     36  C   UNL     1       7.471   8.281  17.519  0.00  0.00    +0.000 C 
ENDBRANCH  34  36
ENDBRANCH  32  34
ENDBRANCH  31  32
ENDBRANCH  30  31
ENDBRANCH  29  30
ENDBRANCH  28  29
ENDBRANCH  27  28
ENDBRANCH  25  27
ENDBRANCH   1  25
TORSDOF 11
ENDMDL
