MODEL 1
REMARK VINA RESULT:      -8.7      0.000      0.000
REMARK  Name = 
REMARK  6 active torsions:
REMARK  status: ('A' for Active; 'I' for Inactive)
REMARK    1  A    between atoms: C_1  and  O_2
REMARK    2  A    between atoms: O_2  and  C_3
REMARK    3  A    between atoms: C_6  and  N_7
REMARK    4  A    between atoms: N_10  and  S_11
REMARK    5  A    between atoms: S_11  and  C_14
REMARK    6  A    between atoms: N_24  and  C_25
REMARK                            x       y       z     vdW  Elec       q    Type
REMARK                         _______ _______ _______ _____ _____    ______ ____
ROOT
ATOM      1  S   UNL     1       1.185  10.121  18.467  0.00  0.00    +0.000 S 
ATOM      2  O   UNL     1      -0.201   9.876  18.160  0.00  0.00    +0.000 OA
ATOM      3  O   UNL     1       2.061  10.717  17.467  0.00  0.00    +0.000 OA
ENDROOT
BRANCH   1   4
ATOM      4  C   UNL     1       1.907   8.488  18.875  0.00  0.00    +0.000 A 
ATOM      5  C   UNL     1       1.579   8.031  20.155  0.00  0.00    +0.000 A 
ATOM      6  C   UNL     1       1.980   6.775  20.557  0.00  0.00    +0.000 A 
ATOM      7  C   UNL     1       2.647   5.990  19.622  0.00  0.00    +0.000 A 
ATOM      8  O   UNL     1       1.772   4.836  19.280  0.00  0.00    +0.000 OA
ATOM      9  C   UNL     1       1.884   4.391  17.953  0.00  0.00    +0.000 A 
ATOM     10  O   UNL     1       0.944   4.212  17.201  0.00  0.00    +0.000 OA
ATOM     11  C   UNL     1       3.283   4.213  17.623  0.00  0.00    +0.000 A 
ATOM     12  N   UNL     1       3.872   3.047  18.095  0.00  0.00    +0.000 NA
ATOM     13  C   UNL     1       4.973   3.459  18.681  0.00  0.00    +0.000 A 
ATOM     14  N   UNL     1       5.334   4.688  18.167  0.00  0.00    +0.000 N 
ATOM     15  C   UNL     1       6.600   4.606  17.427  0.00  0.00    +0.000 C 
ATOM     16  C   UNL     1       4.125   5.358  17.767  0.00  0.00    +0.000 A 
ATOM     17  C   UNL     1       3.385   6.495  18.530  0.00  0.00    +0.000 A 
ATOM     18  C   UNL     1       2.898   7.764  18.085  0.00  0.00    +0.000 A 
ENDBRANCH   1   4
BRANCH   1  22
ATOM     19  N   UNL     1      -1.267  12.052  21.309  0.00  0.00    +0.000 N 
ATOM     20  C   UNL     1      -0.908  12.712  20.034  0.00  0.00    +0.000 C 
ATOM     21  C   UNL     1       0.629  12.602  19.758  0.00  0.00    +0.000 C 
ATOM     22  N   UNL     1       1.214  11.204  19.824  0.00  0.00    +0.000 NA
ATOM     23  C   UNL     1       0.719  10.570  21.132  0.00  0.00    +0.000 C 
ATOM     24  C   UNL     1      -0.817  10.640  21.323  0.00  0.00    +0.000 C 
BRANCH  19  28
ATOM     25  C   UNL     1      -4.912  13.010  23.339  0.00  0.00    +0.000 A 
ATOM     26  C   UNL     1      -3.822  12.498  24.043  0.00  0.00    +0.000 A 
ATOM     27  C   UNL     1      -2.606  12.184  23.391  0.00  0.00    +0.000 A 
ATOM     28  C   UNL     1      -2.435  12.368  22.012  0.00  0.00    +0.000 A 
ATOM     29  C   UNL     1      -3.564  12.853  21.323  0.00  0.00    +0.000 A 
ATOM     30  C   UNL     1      -4.782  13.164  21.965  0.00  0.00    +0.000 A 
BRANCH  25  32
ATOM     31  C   UNL     1      -7.129  13.855  23.368  0.00  0.00    +0.000 C 
ATOM     32  O   UNL     1      -6.039  13.265  24.074  0.00  0.00    +0.000 OA
ENDBRANCH  25  32
ENDBRANCH  19  28
ENDBRANCH   1  22
TORSDOF 4
ENDMDL
MODEL 2
REMARK VINA RESULT:      -8.5      2.730     10.964
REMARK  Name = 
REMARK  6 active torsions:
REMARK  status: ('A' for Active; 'I' for Inactive)
REMARK    1  A    between atoms: C_1  and  O_2
REMARK    2  A    between atoms: O_2  and  C_3
REMARK    3  A    between atoms: C_6  and  N_7
REMARK    4  A    between atoms: N_10  and  S_11
REMARK    5  A    between atoms: S_11  and  C_14
REMARK    6  A    between atoms: N_24  and  C_25
REMARK                            x       y       z     vdW  Elec       q    Type
REMARK                         _______ _______ _______ _____ _____    ______ ____
ROOT
ATOM      1  S   UNL     1       0.014  11.019  21.796  0.00  0.00    +0.000 S 
ATOM      2  O   UNL     1       0.056  10.418  23.105  0.00  0.00    +0.000 OA
ATOM      3  O   UNL     1       1.190  11.695  21.264  0.00  0.00    +0.000 OA
ENDROOT
BRANCH   1   4
ATOM      4  C   UNL     1      -1.316  12.277  21.862  0.00  0.00    +0.000 A 
ATOM      5  C   UNL     1      -1.995  12.442  20.651  0.00  0.00    +0.000 A 
ATOM      6  C   UNL     1      -3.079  13.291  20.584  0.00  0.00    +0.000 A 
ATOM      7  C   UNL     1      -3.485  13.898  21.767  0.00  0.00    +0.000 A 
ATOM      8  O   UNL     1      -4.821  13.353  22.132  0.00  0.00    +0.000 OA
ATOM      9  C   UNL     1      -5.052  13.249  23.513  0.00  0.00    +0.000 A 
ATOM     10  O   UNL     1      -5.453  12.246  24.074  0.00  0.00    +0.000 OA
ATOM     11  C   UNL     1      -4.711  14.503  24.152  0.00  0.00    +0.000 A 
ATOM     12  N   UNL     1      -5.656  15.515  24.041  0.00  0.00    +0.000 NA
ATOM     13  C   UNL     1      -4.965  16.553  23.628  0.00  0.00    +0.000 A 
ATOM     14  N   UNL     1      -3.637  16.384  23.965  0.00  0.00    +0.000 N 
ATOM     15  C   UNL     1      -3.206  17.382  24.954  0.00  0.00    +0.000 C 
ATOM     16  C   UNL     1      -3.373  14.970  23.973  0.00  0.00    +0.000 A 
ATOM     17  C   UNL     1      -2.643  14.144  22.874  0.00  0.00    +0.000 A 
ATOM     18  C   UNL     1      -1.572  13.202  22.961  0.00  0.00    +0.000 A 
ENDBRANCH   1   4
BRANCH   1  22
ATOM     19  N   UNL     1       1.766   7.984  19.442  0.00  0.00    +0.000 N 
ATOM     20  C   UNL     1       1.516   9.334  18.888  0.00  0.00    +0.000 C 
ATOM     21  C   UNL     1       0.061   9.814  19.212  0.00  0.00    +0.000 C 
ATOM     22  N   UNL     1      -0.347   9.747  20.672  0.00  0.00    +0.000 NA
ATOM     23  C   UNL     1       0.028   8.347  21.180  0.00  0.00    +0.000 C 
ATOM     24  C   UNL     1       1.498   7.949  20.899  0.00  0.00    +0.000 C 
BRANCH  19  28
ATOM     25  C   UNL     1       4.784   5.313  17.999  0.00  0.00    +0.000 A 
ATOM     26  C   UNL     1       4.455   6.465  17.284  0.00  0.00    +0.000 A 
ATOM     27  C   UNL     1       3.468   7.365  17.749  0.00  0.00    +0.000 A 
ATOM     28  C   UNL     1       2.770   7.146  18.945  0.00  0.00    +0.000 A 
ATOM     29  C   UNL     1       3.098   5.957  19.627  0.00  0.00    +0.000 A 
ATOM     30  C   UNL     1       4.079   5.052  19.167  0.00  0.00    +0.000 A 
BRANCH  25  32
ATOM     31  C   UNL     1       7.099   4.899  17.686  0.00  0.00    +0.000 C 
ATOM     32  O   UNL     1       5.747   4.513  17.444  0.00  0.00    +0.000 OA
ENDBRANCH  25  32
ENDBRANCH  19  28
ENDBRANCH   1  22
TORSDOF 4
ENDMDL
MODEL 3
REMARK VINA RESULT:      -8.1      1.532      1.715
REMARK  Name = 
REMARK  6 active torsions:
REMARK  status: ('A' for Active; 'I' for Inactive)
REMARK    1  A    between atoms: C_1  and  O_2
REMARK    2  A    between atoms: O_2  and  C_3
REMARK    3  A    between atoms: C_6  and  N_7
REMARK    4  A    between atoms: N_10  and  S_11
REMARK    5  A    between atoms: S_11  and  C_14
REMARK    6  A    between atoms: N_24  and  C_25
REMARK                            x       y       z     vdW  Elec       q    Type
REMARK                         _______ _______ _______ _____ _____    ______ ____
ROOT
ATOM      1  S   UNL     1       0.725   9.927  19.466  0.00  0.00    +0.000 S 
ATOM      2  O   UNL     1      -0.683   9.626  19.532  0.00  0.00    +0.000 OA
ATOM      3  O   UNL     1       1.267  10.639  18.316  0.00  0.00    +0.000 OA
ENDROOT
BRANCH   1   4
ATOM      4  C   UNL     1       1.589   8.313  19.524  0.00  0.00    +0.000 A 
ATOM      5  C   UNL     1       1.382   7.607  20.714  0.00  0.00    +0.000 A 
ATOM      6  C   UNL     1       1.899   6.336  20.854  0.00  0.00    +0.000 A 
ATOM      7  C   UNL     1       2.555   5.792  19.755  0.00  0.00    +0.000 A 
ATOM      8  O   UNL     1       1.744   4.650  19.253  0.00  0.00    +0.000 OA
ATOM      9  C   UNL     1       1.797   4.462  17.862  0.00  0.00    +0.000 A 
ATOM     10  O   UNL     1       0.823   4.344  17.142  0.00  0.00    +0.000 OA
ATOM     11  C   UNL     1       3.180   4.464  17.431  0.00  0.00    +0.000 A 
ATOM     12  N   UNL     1       3.882   3.284  17.646  0.00  0.00    +0.000 NA
ATOM     13  C   UNL     1       4.987   3.674  18.238  0.00  0.00    +0.000 A 
ATOM     14  N   UNL     1       5.223   5.002  17.942  0.00  0.00    +0.000 N 
ATOM     15  C   UNL     1       6.439   5.160  17.132  0.00  0.00    +0.000 C 
ATOM     16  C   UNL     1       3.945   5.630  17.739  0.00  0.00    +0.000 A 
ATOM     17  C   UNL     1       3.179   6.545  18.737  0.00  0.00    +0.000 A 
ATOM     18  C   UNL     1       2.573   7.828  18.562  0.00  0.00    +0.000 A 
ENDBRANCH   1   4
BRANCH   1  22
ATOM     19  N   UNL     1      -0.917  12.750  22.141  0.00  0.00    +0.000 N 
ATOM     20  C   UNL     1      -0.204  13.180  20.917  0.00  0.00    +0.000 C 
ATOM     21  C   UNL     1       1.160  12.427  20.767  0.00  0.00    +0.000 C 
ATOM     22  N   UNL     1       1.092  10.913  20.846  0.00  0.00    +0.000 NA
ATOM     23  C   UNL     1       0.264  10.565  22.093  0.00  0.00    +0.000 C 
ATOM     24  C   UNL     1      -1.108  11.281  22.157  0.00  0.00    +0.000 C 
BRANCH  19  28
ATOM     25  C   UNL     1      -3.814  15.240  24.073  0.00  0.00    +0.000 A 
ATOM     26  C   UNL     1      -4.143  14.537  22.915  0.00  0.00    +0.000 A 
ATOM     27  C   UNL     1      -3.203  13.702  22.267  0.00  0.00    +0.000 A 
ATOM     28  C   UNL     1      -1.898  13.540  22.752  0.00  0.00    +0.000 A 
ATOM     29  C   UNL     1      -1.583  14.289  23.903  0.00  0.00    +0.000 A 
ATOM     30  C   UNL     1      -2.515  15.128  24.552  0.00  0.00    +0.000 A 
BRANCH  25  32
ATOM     31  C   UNL     1      -4.396  17.299  25.098  0.00  0.00    +0.000 C 
ATOM     32  O   UNL     1      -4.803  16.024  24.605  0.00  0.00    +0.000 OA
ENDBRANCH  25  32
ENDBRANCH  19  28
ENDBRANCH   1  22
TORSDOF 4
ENDMDL
MODEL 4
REMARK VINA RESULT:      -8.1      2.396     10.457
REMARK  Name = 
REMARK  6 active torsions:
REMARK  status: ('A' for Active; 'I' for Inactive)
REMARK    1  A    between atoms: C_1  and  O_2
REMARK    2  A    between atoms: O_2  and  C_3
REMARK    3  A    between atoms: C_6  and  N_7
REMARK    4  A    between atoms: N_10  and  S_11
REMARK    5  A    between atoms: S_11  and  C_14
REMARK    6  A    between atoms: N_24  and  C_25
REMARK                            x       y       z     vdW  Elec       q    Type
REMARK                         _______ _______ _______ _____ _____    ______ ____
ROOT
ATOM      1  S   UNL     1      -1.431  11.531  18.662  0.00  0.00    +0.000 S 
ATOM      2  O   UNL     1      -1.091  12.424  17.583  0.00  0.00    +0.000 OA
ATOM      3  O   UNL     1      -1.964  10.207  18.374  0.00  0.00    +0.000 OA
ENDROOT
BRANCH   1   4
ATOM      4  C   UNL     1      -2.709  12.396  19.648  0.00  0.00    +0.000 A 
ATOM      5  C   UNL     1      -4.019  12.077  19.276  0.00  0.00    +0.000 A 
ATOM      6  C   UNL     1      -5.079  12.586  19.996  0.00  0.00    +0.000 A 
ATOM      7  C   UNL     1      -4.776  13.353  21.116  0.00  0.00    +0.000 A 
ATOM      8  O   UNL     1      -5.224  12.604  22.322  0.00  0.00    +0.000 OA
ATOM      9  C   UNL     1      -4.424  12.799  23.460  0.00  0.00    +0.000 A 
ATOM     10  O   UNL     1      -3.962  11.902  24.142  0.00  0.00    +0.000 OA
ATOM     11  C   UNL     1      -4.218  14.217  23.665  0.00  0.00    +0.000 A 
ATOM     12  N   UNL     1      -5.273  14.903  24.254  0.00  0.00    +0.000 NA
ATOM     13  C   UNL     1      -5.457  15.940  23.471  0.00  0.00    +0.000 A 
ATOM     14  N   UNL     1      -4.298  16.195  22.766  0.00  0.00    +0.000 N 
ATOM     15  C   UNL     1      -3.710  17.485  23.154  0.00  0.00    +0.000 C 
ATOM     16  C   UNL     1      -3.619  14.939  22.588  0.00  0.00    +0.000 A 
ATOM     17  C   UNL     1      -3.574  14.070  21.298  0.00  0.00    +0.000 A 
ATOM     18  C   UNL     1      -2.476  13.476  20.602  0.00  0.00    +0.000 A 
ENDBRANCH   1   4
BRANCH   1  22
ATOM     19  N   UNL     1       1.408   8.592  19.722  0.00  0.00    +0.000 N 
ATOM     20  C   UNL     1       0.233   8.865  20.580  0.00  0.00    +0.000 C 
ATOM     21  C   UNL     1       0.056  10.402  20.818  0.00  0.00    +0.000 C 
ATOM     22  N   UNL     1       0.024  11.265  19.570  0.00  0.00    +0.000 NA
ATOM     23  C   UNL     1       1.226  10.853  18.707  0.00  0.00    +0.000 C 
ATOM     24  C   UNL     1       1.315   9.329  18.440  0.00  0.00    +0.000 C 
BRANCH  19  28
ATOM     25  C   UNL     1       3.282   4.744  19.771  0.00  0.00    +0.000 A 
ATOM     26  C   UNL     1       3.598   5.674  18.781  0.00  0.00    +0.000 A 
ATOM     27  C   UNL     1       2.996   6.954  18.753  0.00  0.00    +0.000 A 
ATOM     28  C   UNL     1       2.056   7.352  19.713  0.00  0.00    +0.000 A 
ATOM     29  C   UNL     1       1.731   6.380  20.680  0.00  0.00    +0.000 A 
ATOM     30  C   UNL     1       2.323   5.098  20.711  0.00  0.00    +0.000 A 
BRANCH  25  32
ATOM     31  C   UNL     1       4.041   2.977  18.381  0.00  0.00    +0.000 C 
ATOM     32  O   UNL     1       3.919   3.535  19.688  0.00  0.00    +0.000 OA
ENDBRANCH  25  32
ENDBRANCH  19  28
ENDBRANCH   1  22
TORSDOF 4
ENDMDL
MODEL 5
REMARK VINA RESULT:      -8.1      2.195      2.982
REMARK  Name = 
REMARK  6 active torsions:
REMARK  status: ('A' for Active; 'I' for Inactive)
REMARK    1  A    between atoms: C_1  and  O_2
REMARK    2  A    between atoms: O_2  and  C_3
REMARK    3  A    between atoms: C_6  and  N_7
REMARK    4  A    between atoms: N_10  and  S_11
REMARK    5  A    between atoms: S_11  and  C_14
REMARK    6  A    between atoms: N_24  and  C_25
REMARK                            x       y       z     vdW  Elec       q    Type
REMARK                         _______ _______ _______ _____ _____    ______ ____
ROOT
ATOM      1  S   UNL     1       1.049   9.185  21.352  0.00  0.00    +0.000 S 
ATOM      2  O   UNL     1       2.114   9.346  22.309  0.00  0.00    +0.000 OA
ATOM      3  O   UNL     1      -0.265   8.735  21.791  0.00  0.00    +0.000 OA
ENDROOT
BRANCH   1   4
ATOM      4  C   UNL     1       1.641   7.942  20.144  0.00  0.00    +0.000 A 
ATOM      5  C   UNL     1       1.887   8.467  18.871  0.00  0.00    +0.000 A 
ATOM      6  C   UNL     1       2.423   7.661  17.890  0.00  0.00    +0.000 A 
ATOM      7  C   UNL     1       2.758   6.360  18.249  0.00  0.00    +0.000 A 
ATOM      8  O   UNL     1       4.239   6.230  18.186  0.00  0.00    +0.000 OA
ATOM      9  C   UNL     1       4.790   5.354  19.135  0.00  0.00    +0.000 A 
ATOM     10  O   UNL     1       5.715   5.630  19.878  0.00  0.00    +0.000 OA
ATOM     11  C   UNL     1       4.067   4.100  19.107  0.00  0.00    +0.000 A 
ATOM     12  N   UNL     1       4.399   3.234  18.072  0.00  0.00    +0.000 NA
ATOM     13  C   UNL     1       3.241   2.898  17.553  0.00  0.00    +0.000 A 
ATOM     14  N   UNL     1       2.245   3.087  18.489  0.00  0.00    +0.000 N 
ATOM     15  C   UNL     1       1.637   1.810  18.887  0.00  0.00    +0.000 C 
ATOM     16  C   UNL     1       2.660   4.166  19.346  0.00  0.00    +0.000 A 
ATOM     17  C   UNL     1       2.163   5.640  19.308  0.00  0.00    +0.000 A 
ATOM     18  C   UNL     1       1.684   6.498  20.346  0.00  0.00    +0.000 A 
ENDBRANCH   1   4
BRANCH   1  22
ATOM     19  N   UNL     1      -1.929  11.989  20.309  0.00  0.00    +0.000 N 
ATOM     20  C   UNL     1      -1.474  10.962  19.345  0.00  0.00    +0.000 C 
ATOM     21  C   UNL     1       0.089  10.900  19.286  0.00  0.00    +0.000 C 
ATOM     22  N   UNL     1       0.795  10.738  20.620  0.00  0.00    +0.000 NA
ATOM     23  C   UNL     1       0.199  11.783  21.574  0.00  0.00    +0.000 C 
ATOM     24  C   UNL     1      -1.348  11.754  21.651  0.00  0.00    +0.000 C 
BRANCH  19  28
ATOM     25  C   UNL     1      -5.871  13.635  20.031  0.00  0.00    +0.000 A 
ATOM     26  C   UNL     1      -5.015  14.014  21.065  0.00  0.00    +0.000 A 
ATOM     27  C   UNL     1      -3.706  13.489  21.169  0.00  0.00    +0.000 A 
ATOM     28  C   UNL     1      -3.204  12.563  20.244  0.00  0.00    +0.000 A 
ATOM     29  C   UNL     1      -4.102  12.172  19.232  0.00  0.00    +0.000 A 
ATOM     30  C   UNL     1      -5.412  12.688  19.124  0.00  0.00    +0.000 A 
BRANCH  25  32
ATOM     31  C   UNL     1      -7.830  14.129  21.274  0.00  0.00    +0.000 C 
ATOM     32  O   UNL     1      -7.117  14.202  20.041  0.00  0.00    +0.000 OA
ENDBRANCH  25  32
ENDBRANCH  19  28
ENDBRANCH   1  22
TORSDOF 4
ENDMDL
MODEL 6
REMARK VINA RESULT:      -8.0      3.151     11.080
REMARK  Name = 
REMARK  6 active torsions:
REMARK  status: ('A' for Active; 'I' for Inactive)
REMARK    1  A    between atoms: C_1  and  O_2
REMARK    2  A    between atoms: O_2  and  C_3
REMARK    3  A    between atoms: C_6  and  N_7
REMARK    4  A    between atoms: N_10  and  S_11
REMARK    5  A    between atoms: S_11  and  C_14
REMARK    6  A    between atoms: N_24  and  C_25
REMARK                            x       y       z     vdW  Elec       q    Type
REMARK                         _______ _______ _______ _____ _____    ______ ____
ROOT
ATOM      1  S   UNL     1       0.085  11.115  22.183  0.00  0.00    +0.000 S 
ATOM      2  O   UNL     1       0.379  10.348  23.367  0.00  0.00    +0.000 OA
ATOM      3  O   UNL     1       1.125  11.922  21.559  0.00  0.00    +0.000 OA
ENDROOT
BRANCH   1   4
ATOM      4  C   UNL     1      -1.253  12.275  22.653  0.00  0.00    +0.000 A 
ATOM      5  C   UNL     1      -2.387  11.644  23.174  0.00  0.00    +0.000 A 
ATOM      6  C   UNL     1      -3.433  12.404  23.652  0.00  0.00    +0.000 A 
ATOM      7  C   UNL     1      -3.269  13.785  23.650  0.00  0.00    +0.000 A 
ATOM      8  O   UNL     1      -3.207  14.245  25.064  0.00  0.00    +0.000 OA
ATOM      9  C   UNL     1      -2.371  15.352  25.282  0.00  0.00    +0.000 A 
ATOM     10  O   UNL     1      -1.505  15.407  26.136  0.00  0.00    +0.000 OA
ATOM     11  C   UNL     1      -2.684  16.386  24.319  0.00  0.00    +0.000 A 
ATOM     12  N   UNL     1      -3.813  17.148  24.594  0.00  0.00    +0.000 NA
ATOM     13  C   UNL     1      -4.493  17.127  23.472  0.00  0.00    +0.000 A 
ATOM     14  N   UNL     1      -3.641  16.848  22.422  0.00  0.00    +0.000 N 
ATOM     15  C   UNL     1      -3.528  17.993  21.508  0.00  0.00    +0.000 C 
ATOM     16  C   UNL     1      -2.577  16.030  22.939  0.00  0.00    +0.000 A 
ATOM     17  C   UNL     1      -2.413  14.491  22.778  0.00  0.00    +0.000 A 
ATOM     18  C   UNL     1      -1.295  13.703  22.359  0.00  0.00    +0.000 A 
ENDBRANCH   1   4
BRANCH   1  22
ATOM     19  N   UNL     1       1.486   8.225  19.444  0.00  0.00    +0.000 N 
ATOM     20  C   UNL     1       1.297   9.636  19.038  0.00  0.00    +0.000 C 
ATOM     21  C   UNL     1      -0.100  10.171  19.499  0.00  0.00    +0.000 C 
ATOM     22  N   UNL     1      -0.427   9.985  20.969  0.00  0.00    +0.000 NA
ATOM     23  C   UNL     1      -0.119   8.521  21.317  0.00  0.00    +0.000 C 
ATOM     24  C   UNL     1       1.301   8.062  20.905  0.00  0.00    +0.000 C 
BRANCH  19  28
ATOM     25  C   UNL     1       4.201   5.525  17.529  0.00  0.00    +0.000 A 
ATOM     26  C   UNL     1       4.161   6.870  17.162  0.00  0.00    +0.000 A 
ATOM     27  C   UNL     1       3.277   7.780  17.789  0.00  0.00    +0.000 A 
ATOM     28  C   UNL     1       2.399   7.378  18.806  0.00  0.00    +0.000 A 
ATOM     29  C   UNL     1       2.437   6.008  19.131  0.00  0.00    +0.000 A 
ATOM     30  C   UNL     1       3.313   5.093  18.506  0.00  0.00    +0.000 A 
BRANCH  25  32
ATOM     31  C   UNL     1       6.409   4.670  17.380  0.00  0.00    +0.000 C 
ATOM     32  O   UNL     1       5.088   4.739  16.844  0.00  0.00    +0.000 OA
ENDBRANCH  25  32
ENDBRANCH  19  28
ENDBRANCH   1  22
TORSDOF 4
ENDMDL
MODEL 7
REMARK VINA RESULT:      -8.0      1.522      1.789
REMARK  Name = 
REMARK  6 active torsions:
REMARK  status: ('A' for Active; 'I' for Inactive)
REMARK    1  A    between atoms: C_1  and  O_2
REMARK    2  A    between atoms: O_2  and  C_3
REMARK    3  A    between atoms: C_6  and  N_7
REMARK    4  A    between atoms: N_10  and  S_11
REMARK    5  A    between atoms: S_11  and  C_14
REMARK    6  A    between atoms: N_24  and  C_25
REMARK                            x       y       z     vdW  Elec       q    Type
REMARK                         _______ _______ _______ _____ _____    ______ ____
ROOT
ATOM      1  S   UNL     1       1.212  10.099  18.495  0.00  0.00    +0.000 S 
ATOM      2  O   UNL     1      -0.144   9.854  18.075  0.00  0.00    +0.000 OA
ATOM      3  O   UNL     1       2.145  10.769  17.598  0.00  0.00    +0.000 OA
ENDROOT
BRANCH   1   4
ATOM      4  C   UNL     1       1.935   8.454  18.851  0.00  0.00    +0.000 A 
ATOM      5  C   UNL     1       1.643   7.977  20.133  0.00  0.00    +0.000 A 
ATOM      6  C   UNL     1       2.048   6.711  20.501  0.00  0.00    +0.000 A 
ATOM      7  C   UNL     1       2.679   5.939  19.532  0.00  0.00    +0.000 A 
ATOM      8  O   UNL     1       1.786   4.797  19.197  0.00  0.00    +0.000 OA
ATOM      9  C   UNL     1       1.855   4.375  17.859  0.00  0.00    +0.000 A 
ATOM     10  O   UNL     1       0.890   4.215  17.134  0.00  0.00    +0.000 OA
ATOM     11  C   UNL     1       3.241   4.194  17.483  0.00  0.00    +0.000 A 
ATOM     12  N   UNL     1       3.836   3.015  17.916  0.00  0.00    +0.000 NA
ATOM     13  C   UNL     1       4.957   3.410  18.475  0.00  0.00    +0.000 A 
ATOM     14  N   UNL     1       5.311   4.645  17.972  0.00  0.00    +0.000 N 
ATOM     15  C   UNL     1       6.554   4.568  17.191  0.00  0.00    +0.000 C 
ATOM     16  C   UNL     1       4.096   5.331  17.622  0.00  0.00    +0.000 A 
ATOM     17  C   UNL     1       3.387   6.459  18.426  0.00  0.00    +0.000 A 
ATOM     18  C   UNL     1       2.896   7.738  18.019  0.00  0.00    +0.000 A 
ENDBRANCH   1   4
BRANCH   1  22
ATOM     19  N   UNL     1      -1.033  13.152  20.354  0.00  0.00    +0.000 N 
ATOM     20  C   UNL     1       0.128  13.472  19.494  0.00  0.00    +0.000 C 
ATOM     21  C   UNL     1       1.366  12.592  19.871  0.00  0.00    +0.000 C 
ATOM     22  N   UNL     1       1.125  11.094  19.914  0.00  0.00    +0.000 NA
ATOM     23  C   UNL     1      -0.143  10.867  20.752  0.00  0.00    +0.000 C 
ATOM     24  C   UNL     1      -1.360  11.708  20.293  0.00  0.00    +0.000 C 
BRANCH  19  28
ATOM     25  C   UNL     1      -4.343  15.789  21.000  0.00  0.00    +0.000 A 
ATOM     26  C   UNL     1      -3.042  16.286  20.939  0.00  0.00    +0.000 A 
ATOM     27  C   UNL     1      -1.935  15.432  20.717  0.00  0.00    +0.000 A 
ATOM     28  C   UNL     1      -2.089  14.049  20.550  0.00  0.00    +0.000 A 
ATOM     29  C   UNL     1      -3.411  13.571  20.651  0.00  0.00    +0.000 A 
ATOM     30  C   UNL     1      -4.519  14.417  20.877  0.00  0.00    +0.000 A 
BRANCH  25  32
ATOM     31  C   UNL     1      -6.306  16.353  22.207  0.00  0.00    +0.000 C 
ATOM     32  O   UNL     1      -5.330  16.709  21.230  0.00  0.00    +0.000 OA
ENDBRANCH  25  32
ENDBRANCH  19  28
ENDBRANCH   1  22
TORSDOF 4
ENDMDL
MODEL 8
REMARK VINA RESULT:      -8.0      2.612     10.834
REMARK  Name = 
REMARK  6 active torsions:
REMARK  status: ('A' for Active; 'I' for Inactive)
REMARK    1  A    between atoms: C_1  and  O_2
REMARK    2  A    between atoms: O_2  and  C_3
REMARK    3  A    between atoms: C_6  and  N_7
REMARK    4  A    between atoms: N_10  and  S_11
REMARK    5  A    between atoms: S_11  and  C_14
REMARK    6  A    between atoms: N_24  and  C_25
REMARK                            x       y       z     vdW  Elec       q    Type
REMARK                         _______ _______ _______ _____ _____    ______ ____
ROOT
ATOM      1  S   UNL     1      -0.023  12.102  20.573  0.00  0.00    +0.000 S 
ATOM      2  O   UNL     1       1.081  11.822  21.455  0.00  0.00    +0.000 OA
ATOM      3  O   UNL     1       0.142  13.042  19.472  0.00  0.00    +0.000 OA
ENDROOT
BRANCH   1   4
ATOM      4  C   UNL     1      -1.355  12.780  21.632  0.00  0.00    +0.000 A 
ATOM      5  C   UNL     1      -0.894  13.341  22.827  0.00  0.00    +0.000 A 
ATOM      6  C   UNL     1      -1.781  13.970  23.675  0.00  0.00    +0.000 A 
ATOM      7  C   UNL     1      -3.102  14.069  23.253  0.00  0.00    +0.000 A 
ATOM      8  O   UNL     1      -3.402  15.506  23.008  0.00  0.00    +0.000 OA
ATOM      9  C   UNL     1      -4.311  15.743  21.965  0.00  0.00    +0.000 A 
ATOM     10  O   UNL     1      -4.124  16.522  21.048  0.00  0.00    +0.000 OA
ATOM     11  C   UNL     1      -5.475  14.900  22.141  0.00  0.00    +0.000 A 
ATOM     12  N   UNL     1      -6.399  15.334  23.084  0.00  0.00    +0.000 NA
ATOM     13  C   UNL     1      -6.613  14.276  23.832  0.00  0.00    +0.000 A 
ATOM     14  N   UNL     1      -6.288  13.138  23.122  0.00  0.00    +0.000 N 
ATOM     15  C   UNL     1      -7.476  12.315  22.857  0.00  0.00    +0.000 C 
ATOM     16  C   UNL     1      -5.242  13.491  22.199  0.00  0.00    +0.000 A 
ATOM     17  C   UNL     1      -3.722  13.189  22.340  0.00  0.00    +0.000 A 
ATOM     18  C   UNL     1      -2.790  12.611  21.424  0.00  0.00    +0.000 A 
ENDBRANCH   1   4
BRANCH   1  22
ATOM     19  N   UNL     1       1.518   8.454  19.113  0.00  0.00    +0.000 N 
ATOM     20  C   UNL     1       1.320   9.614  18.215  0.00  0.00    +0.000 C 
ATOM     21  C   UNL     1      -0.101  10.241  18.414  0.00  0.00    +0.000 C 
ATOM     22  N   UNL     1      -0.474  10.594  19.841  0.00  0.00    +0.000 NA
ATOM     23  C   UNL     1      -0.154   9.366  20.707  0.00  0.00    +0.000 C 
ATOM     24  C   UNL     1       1.287   8.828  20.527  0.00  0.00    +0.000 C 
BRANCH  19  28
ATOM     25  C   UNL     1       4.491   5.503  18.229  0.00  0.00    +0.000 A 
ATOM     26  C   UNL     1       3.698   5.391  19.371  0.00  0.00    +0.000 A 
ATOM     27  C   UNL     1       2.704   6.350  19.675  0.00  0.00    +0.000 A 
ATOM     28  C   UNL     1       2.467   7.459  18.850  0.00  0.00    +0.000 A 
ATOM     29  C   UNL     1       3.306   7.565  17.724  0.00  0.00    +0.000 A 
ATOM     30  C   UNL     1       4.304   6.614  17.416  0.00  0.00    +0.000 A 
BRANCH  25  32
ATOM     31  C   UNL     1       5.956   4.396  16.726  0.00  0.00    +0.000 C 
ATOM     32  O   UNL     1       5.427   4.520  18.045  0.00  0.00    +0.000 OA
ENDBRANCH  25  32
ENDBRANCH  19  28
ENDBRANCH   1  22
TORSDOF 4
ENDMDL
MODEL 9
REMARK VINA RESULT:      -8.0      2.905     10.995
REMARK  Name = 
REMARK  6 active torsions:
REMARK  status: ('A' for Active; 'I' for Inactive)
REMARK    1  A    between atoms: C_1  and  O_2
REMARK    2  A    between atoms: O_2  and  C_3
REMARK    3  A    between atoms: C_6  and  N_7
REMARK    4  A    between atoms: N_10  and  S_11
REMARK    5  A    between atoms: S_11  and  C_14
REMARK    6  A    between atoms: N_24  and  C_25
REMARK                            x       y       z     vdW  Elec       q    Type
REMARK                         _______ _______ _______ _____ _____    ______ ____
ROOT
ATOM      1  S   UNL     1      -0.325  11.138  21.939  0.00  0.00    +0.000 S 
ATOM      2  O   UNL     1      -0.034  10.496  23.196  0.00  0.00    +0.000 OA
ATOM      3  O   UNL     1       0.667  12.001  21.313  0.00  0.00    +0.000 OA
ENDROOT
BRANCH   1   4
ATOM      4  C   UNL     1      -1.800  12.182  22.236  0.00  0.00    +0.000 A 
ATOM      5  C   UNL     1      -2.437  11.923  23.454  0.00  0.00    +0.000 A 
ATOM      6  C   UNL     1      -3.506  12.700  23.846  0.00  0.00    +0.000 A 
ATOM      7  C   UNL     1      -3.857  13.763  23.020  0.00  0.00    +0.000 A 
ATOM      8  O   UNL     1      -3.569  15.028  23.749  0.00  0.00    +0.000 OA
ATOM      9  C   UNL     1      -3.161  16.094  22.930  0.00  0.00    +0.000 A 
ATOM     10  O   UNL     1      -2.170  16.774  23.123  0.00  0.00    +0.000 OA
ATOM     11  C   UNL     1      -4.082  16.226  21.820  0.00  0.00    +0.000 A 
ATOM     12  N   UNL     1      -5.282  16.865  22.103  0.00  0.00    +0.000 NA
ATOM     13  C   UNL     1      -6.196  16.056  21.618  0.00  0.00    +0.000 A 
ATOM     14  N   UNL     1      -5.633  15.257  20.644  0.00  0.00    +0.000 N 
ATOM     15  C   UNL     1      -6.200  15.547  19.320  0.00  0.00    +0.000 C 
ATOM     16  C   UNL     1      -4.246  15.078  20.985  0.00  0.00    +0.000 A 
ATOM     17  C   UNL     1      -3.593  13.824  21.635  0.00  0.00    +0.000 A 
ATOM     18  C   UNL     1      -2.434  13.072  21.269  0.00  0.00    +0.000 A 
ENDBRANCH   1   4
BRANCH   1  22
ATOM     19  N   UNL     1       1.535   8.228  19.511  0.00  0.00    +0.000 N 
ATOM     20  C   UNL     1       1.223   9.577  18.987  0.00  0.00    +0.000 C 
ATOM     21  C   UNL     1      -0.248   9.987  19.331  0.00  0.00    +0.000 C 
ATOM     22  N   UNL     1      -0.641   9.874  20.792  0.00  0.00    +0.000 NA
ATOM     23  C   UNL     1      -0.202   8.481  21.269  0.00  0.00    +0.000 C 
ATOM     24  C   UNL     1       1.281   8.152  20.969  0.00  0.00    +0.000 C 
BRANCH  19  28
ATOM     25  C   UNL     1       4.651   5.717  17.991  0.00  0.00    +0.000 A 
ATOM     26  C   UNL     1       4.274   6.872  17.307  0.00  0.00    +0.000 A 
ATOM     27  C   UNL     1       3.253   7.720  17.798  0.00  0.00    +0.000 A 
ATOM     28  C   UNL     1       2.570   7.443  18.990  0.00  0.00    +0.000 A 
ATOM     29  C   UNL     1       2.948   6.252  19.641  0.00  0.00    +0.000 A 
ATOM     30  C   UNL     1       3.962   5.399  19.155  0.00  0.00    +0.000 A 
BRANCH  25  32
ATOM     31  C   UNL     1       6.928   5.053  18.026  0.00  0.00    +0.000 C 
ATOM     32  O   UNL     1       5.643   4.971  17.413  0.00  0.00    +0.000 OA
ENDBRANCH  25  32
ENDBRANCH  19  28
ENDBRANCH   1  22
TORSDOF 4
ENDMDL
