MODEL 1
REMARK VINA RESULT:      -7.4      0.000      0.000
REMARK  Name = 
REMARK  2 active torsions:
REMARK  status: ('A' for Active; 'I' for Inactive)
REMARK    1  A    between atoms: C_1  and  C_2
REMARK    2  A    between atoms: C_2  and  C_4
REMARK                            x       y       z     vdW  Elec       q    Type
REMARK                         _______ _______ _______ _____ _____    ______ ____
ROOT
ATOM      1  C   UNL     1       3.370   7.016  18.434  0.00  0.00    +0.000 C 
ATOM      2  O   UNL     1       4.149   7.868  17.983  0.00  0.00    +0.000 OA
ATOM      3  N   UNL     1       3.761   5.679  18.607  0.00  0.00    +0.000 N 
ATOM      4  C   UNL     1       2.998   4.651  19.238  0.00  0.00    +0.000 A 
ATOM      5  C   UNL     1       2.545   4.877  20.552  0.00  0.00    +0.000 A 
ATOM      6  C   UNL     1       1.788   3.925  21.237  0.00  0.00    +0.000 A 
ATOM      7  C   UNL     1       1.480   2.719  20.624  0.00  0.00    +0.000 A 
ATOM      8  C   UNL     1       1.949   2.461  19.337  0.00  0.00    +0.000 A 
ATOM      9  C   UNL     1       2.719   3.408  18.627  0.00  0.00    +0.000 A 
ATOM     10  C   UNL     1       3.153   2.973  17.239  0.00  0.00    +0.000 C 
ATOM     11  C   UNL     1       3.886   3.974  16.354  0.00  0.00    +0.000 C 
ATOM     12  C   UNL     1       5.145   4.438  17.026  0.00  0.00    +0.000 A 
ATOM     13  C   UNL     1       6.410   4.052  16.566  0.00  0.00    +0.000 A 
ATOM     14  C   UNL     1       7.560   4.506  17.212  0.00  0.00    +0.000 A 
ATOM     15  C   UNL     1       7.457   5.359  18.312  0.00  0.00    +0.000 A 
ATOM     16  C   UNL     1       6.201   5.755  18.766  0.00  0.00    +0.000 A 
ATOM     17  C   UNL     1       5.044   5.279  18.141  0.00  0.00    +0.000 A 
ENDROOT
BRANCH   1  19
ATOM     18  C   UNL     1       1.824   7.991  20.194  0.00  0.00    +0.000 C 
ATOM     19  C   UNL     1       1.929   7.432  18.776  0.00  0.00    +0.000 C 
ATOM     20 CL   UNL     1       1.347   8.695  17.650  0.00  0.00    +0.000 Cl
ENDBRANCH   1  19
TORSDOF 1
ENDMDL
MODEL 2
REMARK VINA RESULT:      -7.2      1.925      4.732
REMARK  Name = 
REMARK  2 active torsions:
REMARK  status: ('A' for Active; 'I' for Inactive)
REMARK    1  A    between atoms: C_1  and  C_2
REMARK    2  A    between atoms: C_2  and  C_4
REMARK                            x       y       z     vdW  Elec       q    Type
REMARK                         _______ _______ _______ _____ _____    ______ ____
ROOT
ATOM      1  C   UNL     1       4.518   6.201  18.033  0.00  0.00    +0.000 C 
ATOM      2  O   UNL     1       5.029   7.304  17.789  0.00  0.00    +0.000 OA
ATOM      3  N   UNL     1       3.167   6.078  18.390  0.00  0.00    +0.000 N 
ATOM      4  C   UNL     1       2.447   4.858  18.560  0.00  0.00    +0.000 A 
ATOM      5  C   UNL     1       2.434   3.943  17.489  0.00  0.00    +0.000 A 
ATOM      6  C   UNL     1       1.759   2.724  17.578  0.00  0.00    +0.000 A 
ATOM      7  C   UNL     1       1.069   2.402  18.737  0.00  0.00    +0.000 A 
ATOM      8  C   UNL     1       1.038   3.310  19.795  0.00  0.00    +0.000 A 
ATOM      9  C   UNL     1       1.711   4.549  19.726  0.00  0.00    +0.000 A 
ATOM     10  C   UNL     1       1.578   5.422  20.961  0.00  0.00    +0.000 C 
ATOM     11  C   UNL     1       2.367   6.725  21.024  0.00  0.00    +0.000 C 
ATOM     12  C   UNL     1       1.992   7.616  19.876  0.00  0.00    +0.000 A 
ATOM     13  C   UNL     1       1.248   8.786  20.066  0.00  0.00    +0.000 A 
ATOM     14  C   UNL     1       0.921   9.594  18.976  0.00  0.00    +0.000 A 
ATOM     15  C   UNL     1       1.347   9.249  17.694  0.00  0.00    +0.000 A 
ATOM     16  C   UNL     1       2.098   8.092  17.502  0.00  0.00    +0.000 A 
ATOM     17  C   UNL     1       2.404   7.262  18.585  0.00  0.00    +0.000 A 
ENDROOT
BRANCH   1  19
ATOM     18  C   UNL     1       5.858   4.633  16.556  0.00  0.00    +0.000 C 
ATOM     19  C   UNL     1       5.404   4.944  17.981  0.00  0.00    +0.000 C 
ATOM     20 CL   UNL     1       6.871   5.156  18.984  0.00  0.00    +0.000 Cl
ENDBRANCH   1  19
TORSDOF 1
ENDMDL
MODEL 3
REMARK VINA RESULT:      -6.7      2.233      5.281
REMARK  Name = 
REMARK  2 active torsions:
REMARK  status: ('A' for Active; 'I' for Inactive)
REMARK    1  A    between atoms: C_1  and  C_2
REMARK    2  A    between atoms: C_2  and  C_4
REMARK                            x       y       z     vdW  Elec       q    Type
REMARK                         _______ _______ _______ _____ _____    ______ ____
ROOT
ATOM      1  C   UNL     1       1.979   4.636  19.494  0.00  0.00    +0.000 C 
ATOM      2  O   UNL     1       0.863   4.638  20.034  0.00  0.00    +0.000 OA
ATOM      3  N   UNL     1       2.742   5.807  19.375  0.00  0.00    +0.000 N 
ATOM      4  C   UNL     1       4.084   5.895  18.897  0.00  0.00    +0.000 A 
ATOM      5  C   UNL     1       5.064   5.105  19.529  0.00  0.00    +0.000 A 
ATOM      6  C   UNL     1       6.398   5.128  19.118  0.00  0.00    +0.000 A 
ATOM      7  C   UNL     1       6.781   5.955  18.072  0.00  0.00    +0.000 A 
ATOM      8  C   UNL     1       5.834   6.772  17.457  0.00  0.00    +0.000 A 
ATOM      9  C   UNL     1       4.480   6.767  17.859  0.00  0.00    +0.000 A 
ATOM     10  C   UNL     1       3.578   7.715  17.089  0.00  0.00    +0.000 C 
ATOM     11  C   UNL     1       2.081   7.691  17.372  0.00  0.00    +0.000 C 
ATOM     12  C   UNL     1       1.820   7.997  18.818  0.00  0.00    +0.000 A 
ATOM     13  C   UNL     1       1.245   9.207  19.222  0.00  0.00    +0.000 A 
ATOM     14  C   UNL     1       1.013   9.456  20.575  0.00  0.00    +0.000 A 
ATOM     15  C   UNL     1       1.339   8.495  21.533  0.00  0.00    +0.000 A 
ATOM     16  C   UNL     1       1.901   7.285  21.134  0.00  0.00    +0.000 A 
ATOM     17  C   UNL     1       2.164   7.040  19.782  0.00  0.00    +0.000 A 
ENDROOT
BRANCH   1  19
ATOM     18  C   UNL     1       1.651   2.126  19.308  0.00  0.00    +0.000 C 
ATOM     19  C   UNL     1       2.517   3.319  18.906  0.00  0.00    +0.000 C 
ATOM     20 CL   UNL     1       2.552   3.387  17.118  0.00  0.00    +0.000 Cl
ENDBRANCH   1  19
TORSDOF 1
ENDMDL
MODEL 4
REMARK VINA RESULT:      -6.7      6.902      9.651
REMARK  Name = 
REMARK  2 active torsions:
REMARK  status: ('A' for Active; 'I' for Inactive)
REMARK    1  A    between atoms: C_1  and  C_2
REMARK    2  A    between atoms: C_2  and  C_4
REMARK                            x       y       z     vdW  Elec       q    Type
REMARK                         _______ _______ _______ _____ _____    ______ ____
ROOT
ATOM      1  C   UNL     1      -0.022  12.673  19.021  0.00  0.00    +0.000 C 
ATOM      2  O   UNL     1      -0.393  13.292  18.014  0.00  0.00    +0.000 OA
ATOM      3  N   UNL     1      -0.924  11.947  19.814  0.00  0.00    +0.000 N 
ATOM      4  C   UNL     1      -0.591  11.095  20.909  0.00  0.00    +0.000 A 
ATOM      5  C   UNL     1       0.326  10.051  20.677  0.00  0.00    +0.000 A 
ATOM      6  C   UNL     1       0.710   9.177  21.696  0.00  0.00    +0.000 A 
ATOM      7  C   UNL     1       0.172   9.323  22.967  0.00  0.00    +0.000 A 
ATOM      8  C   UNL     1      -0.765  10.327  23.208  0.00  0.00    +0.000 A 
ATOM      9  C   UNL     1      -1.169  11.220  22.191  0.00  0.00    +0.000 A 
ATOM     10  C   UNL     1      -2.196  12.254  22.616  0.00  0.00    +0.000 C 
ATOM     11  C   UNL     1      -2.604  13.332  21.619  0.00  0.00    +0.000 C 
ATOM     12  C   UNL     1      -3.174  12.706  20.379  0.00  0.00    +0.000 A 
ATOM     13  C   UNL     1      -4.537  12.788  20.074  0.00  0.00    +0.000 A 
ATOM     14  C   UNL     1      -5.033  12.197  18.911  0.00  0.00    +0.000 A 
ATOM     15  C   UNL     1      -4.169  11.536  18.037  0.00  0.00    +0.000 A 
ATOM     16  C   UNL     1      -2.810  11.462  18.331  0.00  0.00    +0.000 A 
ATOM     17  C   UNL     1      -2.312  12.025  19.510  0.00  0.00    +0.000 A 
ENDROOT
BRANCH   1  19
ATOM     18  C   UNL     1       2.346  13.187  18.270  0.00  0.00    +0.000 C 
ATOM     19  C   UNL     1       1.460  12.738  19.431  0.00  0.00    +0.000 C 
ATOM     20 CL   UNL     1       1.699  13.894  20.775  0.00  0.00    +0.000 Cl
ENDBRANCH   1  19
TORSDOF 1
ENDMDL
MODEL 5
REMARK VINA RESULT:      -6.5      4.849      8.076
REMARK  Name = 
REMARK  2 active torsions:
REMARK  status: ('A' for Active; 'I' for Inactive)
REMARK    1  A    between atoms: C_1  and  C_2
REMARK    2  A    between atoms: C_2  and  C_4
REMARK                            x       y       z     vdW  Elec       q    Type
REMARK                         _______ _______ _______ _____ _____    ______ ____
ROOT
ATOM      1  C   UNL     1      -1.491  10.624  17.801  0.00  0.00    +0.000 C 
ATOM      2  O   UNL     1      -1.635   9.548  17.204  0.00  0.00    +0.000 OA
ATOM      3  N   UNL     1      -0.380  10.868  18.623  0.00  0.00    +0.000 N 
ATOM      4  C   UNL     1      -0.046  12.108  19.245  0.00  0.00    +0.000 A 
ATOM      5  C   UNL     1       0.084  13.246  18.425  0.00  0.00    +0.000 A 
ATOM      6  C   UNL     1       0.401  14.497  18.956  0.00  0.00    +0.000 A 
ATOM      7  C   UNL     1       0.610  14.632  20.321  0.00  0.00    +0.000 A 
ATOM      8  C   UNL     1       0.523  13.512  21.146  0.00  0.00    +0.000 A 
ATOM      9  C   UNL     1       0.206  12.237  20.629  0.00  0.00    +0.000 A 
ATOM     10  C   UNL     1       0.151  11.122  21.659  0.00  0.00    +0.000 C 
ATOM     11  C   UNL     1      -0.299   9.736  21.213  0.00  0.00    +0.000 C 
ATOM     12  C   UNL     1       0.603   9.219  20.130  0.00  0.00    +0.000 A 
ATOM     13  C   UNL     1       1.501   8.171  20.358  0.00  0.00    +0.000 A 
ATOM     14  C   UNL     1       2.322   7.713  19.327  0.00  0.00    +0.000 A 
ATOM     15  C   UNL     1       2.242   8.287  18.058  0.00  0.00    +0.000 A 
ATOM     16  C   UNL     1       1.341   9.324  17.823  0.00  0.00    +0.000 A 
ATOM     17  C   UNL     1       0.537   9.808  18.860  0.00  0.00    +0.000 A 
ENDROOT
BRANCH   1  19
ATOM     18  C   UNL     1      -3.662  11.288  16.668  0.00  0.00    +0.000 C 
ATOM     19  C   UNL     1      -2.582  11.702  17.666  0.00  0.00    +0.000 C 
ATOM     20 CL   UNL     1      -3.381  12.000  19.238  0.00  0.00    +0.000 Cl
ENDBRANCH   1  19
TORSDOF 1
ENDMDL
MODEL 6
REMARK VINA RESULT:      -6.4      6.354      8.423
REMARK  Name = 
REMARK  2 active torsions:
REMARK  status: ('A' for Active; 'I' for Inactive)
REMARK    1  A    between atoms: C_1  and  C_2
REMARK    2  A    between atoms: C_2  and  C_4
REMARK                            x       y       z     vdW  Elec       q    Type
REMARK                         _______ _______ _______ _____ _____    ______ ____
ROOT
ATOM      1  C   UNL     1      -0.425  13.154  20.483  0.00  0.00    +0.000 C 
ATOM      2  O   UNL     1       0.290  13.412  21.462  0.00  0.00    +0.000 OA
ATOM      3  N   UNL     1      -0.794  11.838  20.166  0.00  0.00    +0.000 N 
ATOM      4  C   UNL     1      -1.715  11.440  19.151  0.00  0.00    +0.000 A 
ATOM      5  C   UNL     1      -3.013  11.987  19.186  0.00  0.00    +0.000 A 
ATOM      6  C   UNL     1      -3.971  11.655  18.226  0.00  0.00    +0.000 A 
ATOM      7  C   UNL     1      -3.653  10.756  17.219  0.00  0.00    +0.000 A 
ATOM      8  C   UNL     1      -2.386  10.175  17.188  0.00  0.00    +0.000 A 
ATOM      9  C   UNL     1      -1.403  10.495  18.150  0.00  0.00    +0.000 A 
ATOM     10  C   UNL     1      -0.077   9.775  17.977  0.00  0.00    +0.000 C 
ATOM     11  C   UNL     1       1.081  10.144  18.896  0.00  0.00    +0.000 C 
ATOM     12  C   UNL     1       0.701   9.916  20.330  0.00  0.00    +0.000 A 
ATOM     13  C   UNL     1       1.255   8.873  21.081  0.00  0.00    +0.000 A 
ATOM     14  C   UNL     1       0.882   8.692  22.413  0.00  0.00    +0.000 A 
ATOM     15  C   UNL     1      -0.035   9.558  23.009  0.00  0.00    +0.000 A 
ATOM     16  C   UNL     1      -0.581  10.604  22.269  0.00  0.00    +0.000 A 
ATOM     17  C   UNL     1      -0.234  10.773  20.924  0.00  0.00    +0.000 A 
ENDROOT
BRANCH   1  19
ATOM     18  C   UNL     1      -1.557  15.423  20.374  0.00  0.00    +0.000 C 
ATOM     19  C   UNL     1      -0.884  14.308  19.574  0.00  0.00    +0.000 C 
ATOM     20 CL   UNL     1       0.505  15.025  18.705  0.00  0.00    +0.000 Cl
ENDBRANCH   1  19
TORSDOF 1
ENDMDL
MODEL 7
REMARK VINA RESULT:      -6.3      8.918     10.240
REMARK  Name = 
REMARK  2 active torsions:
REMARK  status: ('A' for Active; 'I' for Inactive)
REMARK    1  A    between atoms: C_1  and  C_2
REMARK    2  A    between atoms: C_2  and  C_4
REMARK                            x       y       z     vdW  Elec       q    Type
REMARK                         _______ _______ _______ _____ _____    ______ ____
ROOT
ATOM      1  C   UNL     1       7.775  14.938  18.540  0.00  0.00    +0.000 C 
ATOM      2  O   UNL     1       7.926  15.523  17.457  0.00  0.00    +0.000 OA
ATOM      3  N   UNL     1       8.801  14.170  19.111  0.00  0.00    +0.000 N 
ATOM      4  C   UNL     1       8.786  13.569  20.405  0.00  0.00    +0.000 A 
ATOM      5  C   UNL     1       8.543  14.400  21.517  0.00  0.00    +0.000 A 
ATOM      6  C   UNL     1       8.504  13.890  22.815  0.00  0.00    +0.000 A 
ATOM      7  C   UNL     1       8.723  12.537  23.030  0.00  0.00    +0.000 A 
ATOM      8  C   UNL     1       9.002  11.703  21.947  0.00  0.00    +0.000 A 
ATOM      9  C   UNL     1       9.048  12.199  20.626  0.00  0.00    +0.000 A 
ATOM     10  C   UNL     1       9.365  11.163  19.562  0.00  0.00    +0.000 C 
ATOM     11  C   UNL     1       9.320  11.582  18.097  0.00  0.00    +0.000 C 
ATOM     12  C   UNL     1      10.286  12.703  17.847  0.00  0.00    +0.000 A 
ATOM     13  C   UNL     1      11.459  12.512  17.109  0.00  0.00    +0.000 A 
ATOM     14  C   UNL     1      12.333  13.578  16.891  0.00  0.00    +0.000 A 
ATOM     15  C   UNL     1      12.035  14.844  17.395  0.00  0.00    +0.000 A 
ATOM     16  C   UNL     1      10.862  15.042  18.120  0.00  0.00    +0.000 A 
ATOM     17  C   UNL     1       9.997  13.971  18.367  0.00  0.00    +0.000 A 
ENDROOT
BRANCH   1  19
ATOM     18  C   UNL     1       6.150  16.433  19.789  0.00  0.00    +0.000 C 
ATOM     19  C   UNL     1       6.413  15.028  19.251  0.00  0.00    +0.000 C 
ATOM     20 CL   UNL     1       5.081  14.618  18.129  0.00  0.00    +0.000 Cl
ENDBRANCH   1  19
TORSDOF 1
ENDMDL
MODEL 8
REMARK VINA RESULT:      -6.3      5.984      9.497
REMARK  Name = 
REMARK  2 active torsions:
REMARK  status: ('A' for Active; 'I' for Inactive)
REMARK    1  A    between atoms: C_1  and  C_2
REMARK    2  A    between atoms: C_2  and  C_4
REMARK                            x       y       z     vdW  Elec       q    Type
REMARK                         _______ _______ _______ _____ _____    ______ ____
ROOT
ATOM      1  C   UNL     1       0.324  10.978  20.620  0.00  0.00    +0.000 C 
ATOM      2  O   UNL     1       1.262  11.478  21.257  0.00  0.00    +0.000 OA
ATOM      3  N   UNL     1      -0.512  11.757  19.806  0.00  0.00    +0.000 N 
ATOM      4  C   UNL     1      -1.529  11.272  18.931  0.00  0.00    +0.000 A 
ATOM      5  C   UNL     1      -1.164  10.322  17.957  0.00  0.00    +0.000 A 
ATOM      6  C   UNL     1      -2.101   9.793  17.067  0.00  0.00    +0.000 A 
ATOM      7  C   UNL     1      -3.421  10.215  17.125  0.00  0.00    +0.000 A 
ATOM      8  C   UNL     1      -3.795  11.182  18.057  0.00  0.00    +0.000 A 
ATOM      9  C   UNL     1      -2.864  11.732  18.965  0.00  0.00    +0.000 A 
ATOM     10  C   UNL     1      -3.431  12.774  19.914  0.00  0.00    +0.000 C 
ATOM     11  C   UNL     1      -2.529  13.336  21.005  0.00  0.00    +0.000 C 
ATOM     12  C   UNL     1      -1.318  13.984  20.398  0.00  0.00    +0.000 A 
ATOM     13  C   UNL     1      -1.144  15.372  20.407  0.00  0.00    +0.000 A 
ATOM     14  C   UNL     1      -0.004  15.940  19.836  0.00  0.00    +0.000 A 
ATOM     15  C   UNL     1       0.976  15.126  19.268  0.00  0.00    +0.000 A 
ATOM     16  C   UNL     1       0.812  13.743  19.267  0.00  0.00    +0.000 A 
ATOM     17  C   UNL     1      -0.342  13.169  19.810  0.00  0.00    +0.000 A 
ENDROOT
BRANCH   1  19
ATOM     18  C   UNL     1       1.296   8.640  20.455  0.00  0.00    +0.000 C 
ATOM     19  C   UNL     1       0.050   9.470  20.761  0.00  0.00    +0.000 C 
ATOM     20 CL   UNL     1      -0.473   9.071  22.424  0.00  0.00    +0.000 Cl
ENDBRANCH   1  19
TORSDOF 1
ENDMDL
MODEL 9
REMARK VINA RESULT:      -6.1     10.057     12.039
REMARK  Name = 
REMARK  2 active torsions:
REMARK  status: ('A' for Active; 'I' for Inactive)
REMARK    1  A    between atoms: C_1  and  C_2
REMARK    2  A    between atoms: C_2  and  C_4
REMARK                            x       y       z     vdW  Elec       q    Type
REMARK                         _______ _______ _______ _____ _____    ______ ____
ROOT
ATOM      1  C   UNL     1       7.916  14.291  18.195  0.00  0.00    +0.000 C 
ATOM      2  O   UNL     1       7.621  13.137  17.853  0.00  0.00    +0.000 OA
ATOM      3  N   UNL     1       9.215  14.628  18.605  0.00  0.00    +0.000 N 
ATOM      4  C   UNL     1       9.697  15.941  18.889  0.00  0.00    +0.000 A 
ATOM      5  C   UNL     1       9.563  16.924  17.889  0.00  0.00    +0.000 A 
ATOM      6  C   UNL     1      10.003  18.234  18.090  0.00  0.00    +0.000 A 
ATOM      7  C   UNL     1      10.600  18.583  19.292  0.00  0.00    +0.000 A 
ATOM      8  C   UNL     1      10.775  17.616  20.281  0.00  0.00    +0.000 A 
ATOM      9  C   UNL     1      10.341  16.285  20.098  0.00  0.00    +0.000 A 
ATOM     10  C   UNL     1      10.607  15.355  21.269  0.00  0.00    +0.000 C 
ATOM     11  C   UNL     1      10.068  13.931  21.209  0.00  0.00    +0.000 C 
ATOM     12  C   UNL     1      10.622  13.215  20.012  0.00  0.00    +0.000 A 
ATOM     13  C   UNL     1      11.564  12.188  20.140  0.00  0.00    +0.000 A 
ATOM     14  C   UNL     1      12.054  11.540  19.006  0.00  0.00    +0.000 A 
ATOM     15  C   UNL     1      11.597  11.902  17.738  0.00  0.00    +0.000 A 
ATOM     16  C   UNL     1      10.651  12.916  17.607  0.00  0.00    +0.000 A 
ATOM     17  C   UNL     1      10.178  13.590  18.738  0.00  0.00    +0.000 A 
ENDROOT
BRANCH   1  19
ATOM     18  C   UNL     1       5.472  14.805  17.748  0.00  0.00    +0.000 C 
ATOM     19  C   UNL     1       6.817  15.368  18.206  0.00  0.00    +0.000 C 
ATOM     20 CL   UNL     1       6.595  16.034  19.851  0.00  0.00    +0.000 Cl
ENDBRANCH   1  19
TORSDOF 1
ENDMDL
