MODEL 1
REMARK VINA RESULT:      -9.2      0.000      0.000
REMARK  Name = 
REMARK  6 active torsions:
REMARK  status: ('A' for Active; 'I' for Inactive)
REMARK    1  A    between atoms: C_2  and  C_17
REMARK    2  A    between atoms: N_3  and  N_4
REMARK    3  A    between atoms: C_5  and  C_6
REMARK    4  A    between atoms: C_7  and  C_8
REMARK    5  A    between atoms: C_13  and  N_14
REMARK    6  A    between atoms: C_19  and  C_20
REMARK                            x       y       z     vdW  Elec       q    Type
REMARK                         _______ _______ _______ _____ _____    ______ ____
ROOT
ATOM      1  O   UNL     1       2.042   9.149  17.131  0.00  0.00    +0.000 OA
ATOM      2  C   UNL     1       1.796   9.014  18.334  0.00  0.00    +0.000 C 
ATOM      3  N   UNL     1       2.172   7.856  19.021  0.00  0.00    +0.000 N 
ATOM      4  H   UNL     1       1.611   7.557  19.809  0.00  0.00    +0.000 HD
ENDROOT
BRANCH   2   5
ATOM      5  C   UNL     1       1.333  10.254  19.088  0.00  0.00    +0.000 A 
ATOM      6  C   UNL     1       0.262   9.824  19.896  0.00  0.00    +0.000 A 
ATOM      7  C   UNL     1      -0.780  10.696  19.936  0.00  0.00    +0.000 A 
ATOM      8  N   UNL     1      -0.390  11.841  20.483  0.00  0.00    +0.000 NA
ATOM      9  C   UNL     1       0.592  12.435  19.798  0.00  0.00    +0.000 A 
ATOM     10  C   UNL     1       0.473  13.818  19.743  0.00  0.00    +0.000 A 
ATOM     11  C   UNL     1       1.265  14.570  18.897  0.00  0.00    +0.000 A 
ATOM     12  C   UNL     1       2.290  13.934  18.214  0.00  0.00    +0.000 A 
ATOM     13  C   UNL     1       2.440  12.524  18.266  0.00  0.00    +0.000 A 
ATOM     14  C   UNL     1       1.526  11.700  19.002  0.00  0.00    +0.000 A 
BRANCH   7  15
ATOM     15  C   UNL     1      -1.581  10.982  18.660  0.00  0.00    +0.000 A 
ATOM     16  C   UNL     1      -2.691  11.850  18.665  0.00  0.00    +0.000 A 
ATOM     17  C   UNL     1      -3.808  11.562  17.878  0.00  0.00    +0.000 A 
ATOM     18  C   UNL     1      -3.798  10.459  17.028  0.00  0.00    +0.000 A 
ATOM     19  C   UNL     1      -2.628   9.729  16.855  0.00  0.00    +0.000 A 
ATOM     20  C   UNL     1      -1.501  10.039  17.614  0.00  0.00    +0.000 A 
ENDBRANCH   7  15
ENDBRANCH   2   5
BRANCH   3  21
ATOM     21  N   UNL     1       2.883   6.806  18.390  0.00  0.00    +0.000 NA
ATOM     22  C   UNL     1       3.772   6.171  19.101  0.00  0.00    +0.000 C 
BRANCH  22  23
ATOM     23  C   UNL     1       4.623   5.046  18.570  0.00  0.00    +0.000 C 
ATOM     24  C   UNL     1       4.445   3.748  18.867  0.00  0.00    +0.000 C 
BRANCH  24  25
ATOM     25  C   UNL     1       3.310   3.222  19.637  0.00  0.00    +0.000 A 
ATOM     26  C   UNL     1       3.482   2.930  20.995  0.00  0.00    +0.000 A 
ATOM     27  C   UNL     1       2.372   2.666  21.808  0.00  0.00    +0.000 A 
ATOM     28  C   UNL     1       1.082   2.686  21.274  0.00  0.00    +0.000 A 
ATOM     29  C   UNL     1       0.895   2.891  19.909  0.00  0.00    +0.000 A 
ATOM     30  C   UNL     1       2.016   3.125  19.101  0.00  0.00    +0.000 A 
BRANCH  30  31
ATOM     31  N   UNL     1       1.808   3.236  17.667  0.00  0.00    +0.000 N 
ATOM     32  O   UNL     1       1.169   4.221  17.263  0.00  0.00    +0.000 OA
ATOM     33  O   UNL     1       2.314   2.363  16.952  0.00  0.00    +0.000 OA
ENDBRANCH  30  31
ENDBRANCH  24  25
ENDBRANCH  22  23
ENDBRANCH   3  21
TORSDOF 6
ENDMDL
MODEL 2
REMARK VINA RESULT:      -9.0      2.175      3.103
REMARK  Name = 
REMARK  6 active torsions:
REMARK  status: ('A' for Active; 'I' for Inactive)
REMARK    1  A    between atoms: C_2  and  C_17
REMARK    2  A    between atoms: N_3  and  N_4
REMARK    3  A    between atoms: C_5  and  C_6
REMARK    4  A    between atoms: C_7  and  C_8
REMARK    5  A    between atoms: C_13  and  N_14
REMARK    6  A    between atoms: C_19  and  C_20
REMARK                            x       y       z     vdW  Elec       q    Type
REMARK                         _______ _______ _______ _____ _____    ______ ____
ROOT
ATOM      1  O   UNL     1       1.609   9.020  17.060  0.00  0.00    +0.000 OA
ATOM      2  C   UNL     1       1.694   8.927  18.289  0.00  0.00    +0.000 C 
ATOM      3  N   UNL     1       2.318   7.828  18.886  0.00  0.00    +0.000 N 
ATOM      4  H   UNL     1       2.004   7.531  19.802  0.00  0.00    +0.000 HD
ENDROOT
BRANCH   2   5
ATOM      5  C   UNL     1       1.354  10.168  19.102  0.00  0.00    +0.000 A 
ATOM      6  C   UNL     1       0.362   9.759  20.014  0.00  0.00    +0.000 A 
ATOM      7  C   UNL     1      -0.642  10.662  20.176  0.00  0.00    +0.000 A 
ATOM      8  N   UNL     1      -0.159  11.787  20.692  0.00  0.00    +0.000 NA
ATOM      9  C   UNL     1       0.763  12.361  19.911  0.00  0.00    +0.000 A 
ATOM     10  C   UNL     1       0.683  13.747  19.885  0.00  0.00    +0.000 A 
ATOM     11  C   UNL     1       1.403  14.487  18.968  0.00  0.00    +0.000 A 
ATOM     12  C   UNL     1       2.329  13.830  18.171  0.00  0.00    +0.000 A 
ATOM     13  C   UNL     1       2.438  12.416  18.191  0.00  0.00    +0.000 A 
ATOM     14  C   UNL     1       1.583  11.610  19.012  0.00  0.00    +0.000 A 
BRANCH   7  15
ATOM     15  C   UNL     1      -1.565  10.991  18.996  0.00  0.00    +0.000 A 
ATOM     16  C   UNL     1      -2.603  11.936  19.114  0.00  0.00    +0.000 A 
ATOM     17  C   UNL     1      -3.822  11.720  18.468  0.00  0.00    +0.000 A 
ATOM     18  C   UNL     1      -3.989  10.610  17.643  0.00  0.00    +0.000 A 
ATOM     19  C   UNL     1      -2.900   9.797  17.350  0.00  0.00    +0.000 A 
ATOM     20  C   UNL     1      -1.673  10.034  17.966  0.00  0.00    +0.000 A 
ENDBRANCH   7  15
ENDBRANCH   2   5
BRANCH   3  21
ATOM     21  N   UNL     1       2.916   6.796  18.120  0.00  0.00    +0.000 NA
ATOM     22  C   UNL     1       2.464   5.585  18.291  0.00  0.00    +0.000 C 
BRANCH  22  23
ATOM     23  C   UNL     1       3.007   4.378  17.568  0.00  0.00    +0.000 C 
ATOM     24  C   UNL     1       4.304   4.174  17.289  0.00  0.00    +0.000 C 
BRANCH  24  25
ATOM     25  C   UNL     1       5.399   5.026  17.770  0.00  0.00    +0.000 A 
ATOM     26  C   UNL     1       5.783   4.954  19.114  0.00  0.00    +0.000 A 
ATOM     27  C   UNL     1       6.969   5.562  19.546  0.00  0.00    +0.000 A 
ATOM     28  C   UNL     1       7.782   6.250  18.642  0.00  0.00    +0.000 A 
ATOM     29  C   UNL     1       7.377   6.406  17.318  0.00  0.00    +0.000 A 
ATOM     30  C   UNL     1       6.173   5.818  16.906  0.00  0.00    +0.000 A 
BRANCH  30  31
ATOM     31  N   UNL     1       5.720   6.078  15.550  0.00  0.00    +0.000 N 
ATOM     32  O   UNL     1       4.930   7.022  15.389  0.00  0.00    +0.000 OA
ATOM     33  O   UNL     1       6.183   5.365  14.653  0.00  0.00    +0.000 OA
ENDBRANCH  30  31
ENDBRANCH  24  25
ENDBRANCH  22  23
ENDBRANCH   3  21
TORSDOF 6
ENDMDL
MODEL 3
REMARK VINA RESULT:      -8.7      1.607      3.480
REMARK  Name = 
REMARK  6 active torsions:
REMARK  status: ('A' for Active; 'I' for Inactive)
REMARK    1  A    between atoms: C_2  and  C_17
REMARK    2  A    between atoms: N_3  and  N_4
REMARK    3  A    between atoms: C_5  and  C_6
REMARK    4  A    between atoms: C_7  and  C_8
REMARK    5  A    between atoms: C_13  and  N_14
REMARK    6  A    between atoms: C_19  and  C_20
REMARK                            x       y       z     vdW  Elec       q    Type
REMARK                         _______ _______ _______ _____ _____    ______ ____
ROOT
ATOM      1  O   UNL     1       2.594  10.864  18.034  0.00  0.00    +0.000 OA
ATOM      2  C   UNL     1       1.548  10.207  17.995  0.00  0.00    +0.000 C 
ATOM      3  N   UNL     1       1.570   8.812  18.060  0.00  0.00    +0.000 N 
ATOM      4  H   UNL     1       0.836   8.293  17.594  0.00  0.00    +0.000 HD
ENDROOT
BRANCH   2   5
ATOM      5  C   UNL     1       0.243  10.976  18.158  0.00  0.00    +0.000 A 
ATOM      6  C   UNL     1       0.522  11.995  19.089  0.00  0.00    +0.000 A 
ATOM      7  C   UNL     1      -0.469  12.195  19.998  0.00  0.00    +0.000 A 
ATOM      8  N   UNL     1      -1.573  12.601  19.381  0.00  0.00    +0.000 NA
ATOM      9  C   UNL     1      -2.028  11.711  18.494  0.00  0.00    +0.000 A 
ATOM     10  C   UNL     1      -3.413  11.614  18.465  0.00  0.00    +0.000 A 
ATOM     11  C   UNL     1      -4.044  10.596  17.777  0.00  0.00    +0.000 A 
ATOM     12  C   UNL     1      -3.273   9.758  16.985  0.00  0.00    +0.000 A 
ATOM     13  C   UNL     1      -1.857   9.848  16.987  0.00  0.00    +0.000 A 
ATOM     14  C   UNL     1      -1.167  10.785  17.824  0.00  0.00    +0.000 A 
BRANCH   7  15
ATOM     15  C   UNL     1      -0.817  11.086  20.999  0.00  0.00    +0.000 A 
ATOM     16  C   UNL     1      -1.491  11.365  22.204  0.00  0.00    +0.000 A 
ATOM     17  C   UNL     1      -1.155  10.673  23.370  0.00  0.00    +0.000 A 
ATOM     18  C   UNL     1      -0.209   9.652  23.328  0.00  0.00    +0.000 A 
ATOM     19  C   UNL     1       0.295   9.225  22.104  0.00  0.00    +0.000 A 
ATOM     20  C   UNL     1      -0.069   9.892  20.936  0.00  0.00    +0.000 A 
ENDBRANCH   7  15
ENDBRANCH   2   5
BRANCH   3  21
ATOM     21  N   UNL     1       2.778   8.086  18.215  0.00  0.00    +0.000 NA
ATOM     22  C   UNL     1       2.987   7.090  17.402  0.00  0.00    +0.000 C 
BRANCH  22  23
ATOM     23  C   UNL     1       4.211   6.210  17.450  0.00  0.00    +0.000 C 
ATOM     24  C   UNL     1       4.358   5.150  18.261  0.00  0.00    +0.000 C 
BRANCH  24  25
ATOM     25  C   UNL     1       3.295   4.609  19.118  0.00  0.00    +0.000 A 
ATOM     26  C   UNL     1       2.992   5.254  20.323  0.00  0.00    +0.000 A 
ATOM     27  C   UNL     1       1.835   4.915  21.036  0.00  0.00    +0.000 A 
ATOM     28  C   UNL     1       0.971   3.927  20.557  0.00  0.00    +0.000 A 
ATOM     29  C   UNL     1       1.296   3.215  19.405  0.00  0.00    +0.000 A 
ATOM     30  C   UNL     1       2.473   3.544  18.717  0.00  0.00    +0.000 A 
BRANCH  30  31
ATOM     31  N   UNL     1       2.844   2.723  17.577  0.00  0.00    +0.000 N 
ATOM     32  O   UNL     1       3.578   1.746  17.799  0.00  0.00    +0.000 OA
ATOM     33  O   UNL     1       2.373   3.034  16.477  0.00  0.00    +0.000 OA
ENDBRANCH  30  31
ENDBRANCH  24  25
ENDBRANCH  22  23
ENDBRANCH   3  21
TORSDOF 6
ENDMDL
MODEL 4
REMARK VINA RESULT:      -8.5      1.881      2.389
REMARK  Name = 
REMARK  6 active torsions:
REMARK  status: ('A' for Active; 'I' for Inactive)
REMARK    1  A    between atoms: C_2  and  C_17
REMARK    2  A    between atoms: N_3  and  N_4
REMARK    3  A    between atoms: C_5  and  C_6
REMARK    4  A    between atoms: C_7  and  C_8
REMARK    5  A    between atoms: C_13  and  N_14
REMARK    6  A    between atoms: C_19  and  C_20
REMARK                            x       y       z     vdW  Elec       q    Type
REMARK                         _______ _______ _______ _____ _____    ______ ____
ROOT
ATOM      1  O   UNL     1       1.293   9.033  16.987  0.00  0.00    +0.000 OA
ATOM      2  C   UNL     1       1.673   8.965  18.161  0.00  0.00    +0.000 C 
ATOM      3  N   UNL     1       2.548   7.958  18.577  0.00  0.00    +0.000 N 
ATOM      4  H   UNL     1       2.496   7.636  19.535  0.00  0.00    +0.000 HD
ENDROOT
BRANCH   2   5
ATOM      5  C   UNL     1       1.382  10.165  19.052  0.00  0.00    +0.000 A 
ATOM      6  C   UNL     1       0.426   9.717  19.984  0.00  0.00    +0.000 A 
ATOM      7  C   UNL     1      -0.560  10.619  20.236  0.00  0.00    +0.000 A 
ATOM      8  N   UNL     1      -0.042  11.710  20.789  0.00  0.00    +0.000 NA
ATOM      9  C   UNL     1       0.852  12.316  20.002  0.00  0.00    +0.000 A 
ATOM     10  C   UNL     1       0.787  13.702  20.052  0.00  0.00    +0.000 A 
ATOM     11  C   UNL     1       1.477  14.483  19.145  0.00  0.00    +0.000 A 
ATOM     12  C   UNL     1       2.360  13.861  18.276  0.00  0.00    +0.000 A 
ATOM     13  C   UNL     1       2.454  12.447  18.216  0.00  0.00    +0.000 A 
ATOM     14  C   UNL     1       1.624  11.606  19.029  0.00  0.00    +0.000 A 
BRANCH   7  15
ATOM     15  C   UNL     1      -1.528  11.019  19.116  0.00  0.00    +0.000 A 
ATOM     16  C   UNL     1      -2.517  12.004  19.313  0.00  0.00    +0.000 A 
ATOM     17  C   UNL     1      -3.777  11.857  18.728  0.00  0.00    +0.000 A 
ATOM     18  C   UNL     1      -4.034  10.779  17.885  0.00  0.00    +0.000 A 
ATOM     19  C   UNL     1      -2.999   9.929  17.513  0.00  0.00    +0.000 A 
ATOM     20  C   UNL     1      -1.732  10.097  18.069  0.00  0.00    +0.000 A 
ENDBRANCH   7  15
ENDBRANCH   2   5
BRANCH   3  21
ATOM     21  N   UNL     1       3.073   6.998  17.676  0.00  0.00    +0.000 NA
ATOM     22  C   UNL     1       4.248   7.235  17.164  0.00  0.00    +0.000 C 
BRANCH  22  23
ATOM     23  C   UNL     1       4.932   6.323  16.177  0.00  0.00    +0.000 C 
ATOM     24  C   UNL     1       5.038   4.991  16.314  0.00  0.00    +0.000 C 
BRANCH  24  25
ATOM     25  C   UNL     1       4.380   4.212  17.372  0.00  0.00    +0.000 A 
ATOM     26  C   UNL     1       3.147   3.604  17.108  0.00  0.00    +0.000 A 
ATOM     27  C   UNL     1       2.618   2.662  17.999  0.00  0.00    +0.000 A 
ATOM     28  C   UNL     1       3.310   2.319  19.163  0.00  0.00    +0.000 A 
ATOM     29  C   UNL     1       4.497   2.973  19.486  0.00  0.00    +0.000 A 
ATOM     30  C   UNL     1       5.001   3.936  18.601  0.00  0.00    +0.000 A 
BRANCH  30  31
ATOM     31  N   UNL     1       6.184   4.677  19.005  0.00  0.00    +0.000 N 
ATOM     32  O   UNL     1       6.019   5.611  19.806  0.00  0.00    +0.000 OA
ATOM     33  O   UNL     1       7.271   4.299  18.552  0.00  0.00    +0.000 OA
ENDBRANCH  30  31
ENDBRANCH  24  25
ENDBRANCH  22  23
ENDBRANCH   3  21
TORSDOF 6
ENDMDL
MODEL 5
REMARK VINA RESULT:      -8.4      1.295      1.626
REMARK  Name = 
REMARK  6 active torsions:
REMARK  status: ('A' for Active; 'I' for Inactive)
REMARK    1  A    between atoms: C_2  and  C_17
REMARK    2  A    between atoms: N_3  and  N_4
REMARK    3  A    between atoms: C_5  and  C_6
REMARK    4  A    between atoms: C_7  and  C_8
REMARK    5  A    between atoms: C_13  and  N_14
REMARK    6  A    between atoms: C_19  and  C_20
REMARK                            x       y       z     vdW  Elec       q    Type
REMARK                         _______ _______ _______ _____ _____    ______ ____
ROOT
ATOM      1  O   UNL     1       2.719  11.105  17.810  0.00  0.00    +0.000 OA
ATOM      2  C   UNL     1       1.668  10.548  18.143  0.00  0.00    +0.000 C 
ATOM      3  N   UNL     1       1.484   9.177  17.942  0.00  0.00    +0.000 N 
ATOM      4  H   UNL     1       0.545   8.832  17.784  0.00  0.00    +0.000 HD
ENDROOT
BRANCH   2   5
ATOM      5  C   UNL     1       0.713  11.343  19.023  0.00  0.00    +0.000 A 
ATOM      6  C   UNL     1      -0.214  10.405  19.514  0.00  0.00    +0.000 A 
ATOM      7  C   UNL     1      -1.497  10.856  19.527  0.00  0.00    +0.000 A 
ATOM      8  N   UNL     1      -1.604  11.892  20.351  0.00  0.00    +0.000 NA
ATOM      9  C   UNL     1      -0.830  12.921  19.993  0.00  0.00    +0.000 A 
ATOM     10  C   UNL     1      -1.427  14.159  20.187  0.00  0.00    +0.000 A 
ATOM     11  C   UNL     1      -0.869  15.312  19.669  0.00  0.00    +0.000 A 
ATOM     12  C   UNL     1       0.384  15.231  19.081  0.00  0.00    +0.000 A 
ATOM     13  C   UNL     1       1.020  13.978  18.884  0.00  0.00    +0.000 A 
ATOM     14  C   UNL     1       0.386  12.748  19.259  0.00  0.00    +0.000 A 
BRANCH   7  15
ATOM     15  C   UNL     1      -2.203  11.176  18.203  0.00  0.00    +0.000 A 
ATOM     16  C   UNL     1      -3.459  11.815  18.173  0.00  0.00    +0.000 A 
ATOM     17  C   UNL     1      -4.408  11.447  17.217  0.00  0.00    +0.000 A 
ATOM     18  C   UNL     1      -4.089  10.504  16.243  0.00  0.00    +0.000 A 
ATOM     19  C   UNL     1      -2.785  10.035  16.134  0.00  0.00    +0.000 A 
ATOM     20  C   UNL     1      -1.828  10.431  17.066  0.00  0.00    +0.000 A 
ENDBRANCH   7  15
ENDBRANCH   2   5
BRANCH   3  21
ATOM     21  N   UNL     1       2.498   8.356  17.390  0.00  0.00    +0.000 NA
ATOM     22  C   UNL     1       2.886   7.328  18.092  0.00  0.00    +0.000 C 
BRANCH  22  23
ATOM     23  C   UNL     1       3.966   6.372  17.653  0.00  0.00    +0.000 C 
ATOM     24  C   UNL     1       4.149   5.142  18.161  0.00  0.00    +0.000 C 
BRANCH  24  25
ATOM     25  C   UNL     1       3.239   4.495  19.115  0.00  0.00    +0.000 A 
ATOM     26  C   UNL     1       3.008   5.098  20.357  0.00  0.00    +0.000 A 
ATOM     27  C   UNL     1       1.971   4.646  21.182  0.00  0.00    +0.000 A 
ATOM     28  C   UNL     1       1.156   3.585  20.779  0.00  0.00    +0.000 A 
ATOM     29  C   UNL     1       1.421   2.917  19.585  0.00  0.00    +0.000 A 
ATOM     30  C   UNL     1       2.481   3.361  18.783  0.00  0.00    +0.000 A 
BRANCH  30  31
ATOM     31  N   UNL     1       2.803   2.588  17.595  0.00  0.00    +0.000 N 
ATOM     32  O   UNL     1       3.580   1.631  17.738  0.00  0.00    +0.000 OA
ATOM     33  O   UNL     1       2.251   2.917  16.539  0.00  0.00    +0.000 OA
ENDBRANCH  30  31
ENDBRANCH  24  25
ENDBRANCH  22  23
ENDBRANCH   3  21
TORSDOF 6
ENDMDL
MODEL 6
REMARK VINA RESULT:      -8.3      2.755      8.917
REMARK  Name = 
REMARK  6 active torsions:
REMARK  status: ('A' for Active; 'I' for Inactive)
REMARK    1  A    between atoms: C_2  and  C_17
REMARK    2  A    between atoms: N_3  and  N_4
REMARK    3  A    between atoms: C_5  and  C_6
REMARK    4  A    between atoms: C_7  and  C_8
REMARK    5  A    between atoms: C_13  and  N_14
REMARK    6  A    between atoms: C_19  and  C_20
REMARK                            x       y       z     vdW  Elec       q    Type
REMARK                         _______ _______ _______ _____ _____    ______ ____
ROOT
ATOM      1  O   UNL     1       2.201   7.540  20.492  0.00  0.00    +0.000 OA
ATOM      2  C   UNL     1       2.461   6.982  19.421  0.00  0.00    +0.000 C 
ATOM      3  N   UNL     1       2.491   7.702  18.224  0.00  0.00    +0.000 N 
ATOM      4  H   UNL     1       2.253   7.222  17.364  0.00  0.00    +0.000 HD
ENDROOT
BRANCH   2   5
ATOM      5  C   UNL     1       3.015   5.566  19.496  0.00  0.00    +0.000 A 
ATOM      6  C   UNL     1       4.416   5.712  19.520  0.00  0.00    +0.000 A 
ATOM      7  C   UNL     1       5.076   4.804  18.753  0.00  0.00    +0.000 A 
ATOM      8  N   UNL     1       4.861   3.579  19.218  0.00  0.00    +0.000 NA
ATOM      9  C   UNL     1       3.569   3.238  19.204  0.00  0.00    +0.000 A 
ATOM     10  C   UNL     1       3.348   1.913  18.851  0.00  0.00    +0.000 A 
ATOM     11  C   UNL     1       2.077   1.452  18.569  0.00  0.00    +0.000 A 
ATOM     12  C   UNL     1       1.002   2.299  18.794  0.00  0.00    +0.000 A 
ATOM     13  C   UNL     1       1.203   3.652  19.168  0.00  0.00    +0.000 A 
ATOM     14  C   UNL     1       2.519   4.205  19.303  0.00  0.00    +0.000 A 
BRANCH   7  15
ATOM     15  C   UNL     1       4.890   4.817  17.231  0.00  0.00    +0.000 A 
ATOM     16  C   UNL     1       5.252   3.713  16.434  0.00  0.00    +0.000 A 
ATOM     17  C   UNL     1       5.817   3.915  15.173  0.00  0.00    +0.000 A 
ATOM     18  C   UNL     1       5.953   5.206  14.668  0.00  0.00    +0.000 A 
ATOM     19  C   UNL     1       5.397   6.279  15.353  0.00  0.00    +0.000 A 
ATOM     20  C   UNL     1       4.800   6.073  16.595  0.00  0.00    +0.000 A 
ENDBRANCH   7  15
ENDBRANCH   2   5
BRANCH   3  21
ATOM     21  N   UNL     1       2.270   9.101  18.181  0.00  0.00    +0.000 NA
ATOM     22  C   UNL     1       1.050   9.521  18.371  0.00  0.00    +0.000 C 
BRANCH  22  23
ATOM     23  C   UNL     1       0.649  10.974  18.337  0.00  0.00    +0.000 C 
ATOM     24  C   UNL     1      -0.070  11.590  19.289  0.00  0.00    +0.000 C 
BRANCH  24  25
ATOM     25  C   UNL     1      -0.449  10.976  20.568  0.00  0.00    +0.000 A 
ATOM     26  C   UNL     1      -0.373   9.586  20.710  0.00  0.00    +0.000 A 
ATOM     27  C   UNL     1      -0.487   8.996  21.975  0.00  0.00    +0.000 A 
ATOM     28  C   UNL     1      -0.683   9.785  23.110  0.00  0.00    +0.000 A 
ATOM     29  C   UNL     1      -0.846  11.163  22.982  0.00  0.00    +0.000 A 
ATOM     30  C   UNL     1      -0.759  11.738  21.707  0.00  0.00    +0.000 A 
BRANCH  30  31
ATOM     31  N   UNL     1      -1.032  13.160  21.583  0.00  0.00    +0.000 N 
ATOM     32  O   UNL     1      -2.179  13.487  21.238  0.00  0.00    +0.000 OA
ATOM     33  O   UNL     1      -0.115  13.939  21.867  0.00  0.00    +0.000 OA
ENDBRANCH  30  31
ENDBRANCH  24  25
ENDBRANCH  22  23
ENDBRANCH   3  21
TORSDOF 6
ENDMDL
MODEL 7
REMARK VINA RESULT:      -8.3      1.953      3.813
REMARK  Name = 
REMARK  6 active torsions:
REMARK  status: ('A' for Active; 'I' for Inactive)
REMARK    1  A    between atoms: C_2  and  C_17
REMARK    2  A    between atoms: N_3  and  N_4
REMARK    3  A    between atoms: C_5  and  C_6
REMARK    4  A    between atoms: C_7  and  C_8
REMARK    5  A    between atoms: C_13  and  N_14
REMARK    6  A    between atoms: C_19  and  C_20
REMARK                            x       y       z     vdW  Elec       q    Type
REMARK                         _______ _______ _______ _____ _____    ______ ____
ROOT
ATOM      1  O   UNL     1       1.100   9.440  21.263  0.00  0.00    +0.000 OA
ATOM      2  C   UNL     1       1.194   9.459  20.031  0.00  0.00    +0.000 C 
ATOM      3  N   UNL     1       1.831   8.424  19.341  0.00  0.00    +0.000 N 
ATOM      4  H   UNL     1       2.292   8.638  18.465  0.00  0.00    +0.000 HD
ENDROOT
BRANCH   2   5
ATOM      5  C   UNL     1       0.355  10.492  19.290  0.00  0.00    +0.000 A 
ATOM      6  C   UNL     1       0.621  11.719  19.928  0.00  0.00    +0.000 A 
ATOM      7  C   UNL     1      -0.481  12.495  20.107  0.00  0.00    +0.000 A 
ATOM      8  N   UNL     1      -0.988  12.837  18.927  0.00  0.00    +0.000 NA
ATOM      9  C   UNL     1      -1.366  11.781  18.200  0.00  0.00    +0.000 A 
ATOM     10  C   UNL     1      -2.539  11.988  17.487  0.00  0.00    +0.000 A 
ATOM     11  C   UNL     1      -3.192  10.942  16.865  0.00  0.00    +0.000 A 
ATOM     12  C   UNL     1      -2.572   9.702  16.835  0.00  0.00    +0.000 A 
ATOM     13  C   UNL     1      -1.366   9.469  17.545  0.00  0.00    +0.000 A 
ATOM     14  C   UNL     1      -0.755  10.495  18.339  0.00  0.00    +0.000 A 
BRANCH   7  15
ATOM     15  C   UNL     1      -1.607  12.016  21.032  0.00  0.00    +0.000 A 
ATOM     16  C   UNL     1      -2.901  12.569  20.966  0.00  0.00    +0.000 A 
ATOM     17  C   UNL     1      -3.638  12.767  22.136  0.00  0.00    +0.000 A 
ATOM     18  C   UNL     1      -3.128  12.347  23.362  0.00  0.00    +0.000 A 
ATOM     19  C   UNL     1      -1.953  11.604  23.405  0.00  0.00    +0.000 A 
ATOM     20  C   UNL     1      -1.236  11.375  22.232  0.00  0.00    +0.000 A 
ENDBRANCH   7  15
ENDBRANCH   2   5
BRANCH   3  21
ATOM     21  N   UNL     1       2.360   7.291  20.007  0.00  0.00    +0.000 NA
ATOM     22  C   UNL     1       1.635   6.208  20.015  0.00  0.00    +0.000 C 
BRANCH  22  23
ATOM     23  C   UNL     1       2.047   4.927  20.696  0.00  0.00    +0.000 C 
ATOM     24  C   UNL     1       2.978   4.080  20.230  0.00  0.00    +0.000 C 
BRANCH  24  25
ATOM     25  C   UNL     1       3.831   4.346  19.064  0.00  0.00    +0.000 A 
ATOM     26  C   UNL     1       5.056   4.998  19.246  0.00  0.00    +0.000 A 
ATOM     27  C   UNL     1       5.994   5.045  18.207  0.00  0.00    +0.000 A 
ATOM     28  C   UNL     1       5.718   4.448  16.975  0.00  0.00    +0.000 A 
ATOM     29  C   UNL     1       4.472   3.868  16.745  0.00  0.00    +0.000 A 
ATOM     30  C   UNL     1       3.531   3.853  17.784  0.00  0.00    +0.000 A 
BRANCH  30  31
ATOM     31  N   UNL     1       2.206   3.334  17.491  0.00  0.00    +0.000 N 
ATOM     32  O   UNL     1       2.059   2.102  17.534  0.00  0.00    +0.000 OA
ATOM     33  O   UNL     1       1.314   4.158  17.258  0.00  0.00    +0.000 OA
ENDBRANCH  30  31
ENDBRANCH  24  25
ENDBRANCH  22  23
ENDBRANCH   3  21
TORSDOF 6
ENDMDL
MODEL 8
REMARK VINA RESULT:      -8.3      2.759      8.439
REMARK  Name = 
REMARK  6 active torsions:
REMARK  status: ('A' for Active; 'I' for Inactive)
REMARK    1  A    between atoms: C_2  and  C_17
REMARK    2  A    between atoms: N_3  and  N_4
REMARK    3  A    between atoms: C_5  and  C_6
REMARK    4  A    between atoms: C_7  and  C_8
REMARK    5  A    between atoms: C_13  and  N_14
REMARK    6  A    between atoms: C_19  and  C_20
REMARK                            x       y       z     vdW  Elec       q    Type
REMARK                         _______ _______ _______ _____ _____    ______ ____
ROOT
ATOM      1  O   UNL     1       2.394   7.926  19.573  0.00  0.00    +0.000 OA
ATOM      2  C   UNL     1       2.470   7.921  18.340  0.00  0.00    +0.000 C 
ATOM      3  N   UNL     1       2.225   9.080  17.599  0.00  0.00    +0.000 N 
ATOM      4  H   UNL     1       1.851   8.986  16.662  0.00  0.00    +0.000 HD
ENDROOT
BRANCH   2   5
ATOM      5  C   UNL     1       3.108   6.700  17.692  0.00  0.00    +0.000 A 
ATOM      6  C   UNL     1       2.077   5.745  17.595  0.00  0.00    +0.000 A 
ATOM      7  C   UNL     1       2.468   4.480  17.904  0.00  0.00    +0.000 A 
ATOM      8  N   UNL     1       3.387   4.067  17.038  0.00  0.00    +0.000 NA
ATOM      9  C   UNL     1       4.485   4.830  17.044  0.00  0.00    +0.000 A 
ATOM     10  C   UNL     1       5.663   4.109  16.897  0.00  0.00    +0.000 A 
ATOM     11  C   UNL     1       6.893   4.701  17.104  0.00  0.00    +0.000 A 
ATOM     12  C   UNL     1       6.940   6.072  17.310  0.00  0.00    +0.000 A 
ATOM     13  C   UNL     1       5.750   6.831  17.450  0.00  0.00    +0.000 A 
ATOM     14  C   UNL     1       4.457   6.213  17.409  0.00  0.00    +0.000 A 
BRANCH   7  15
ATOM     15  C   UNL     1       2.923   4.154  19.332  0.00  0.00    +0.000 A 
ATOM     16  C   UNL     1       3.814   3.095  19.598  0.00  0.00    +0.000 A 
ATOM     17  C   UNL     1       3.650   2.314  20.744  0.00  0.00    +0.000 A 
ATOM     18  C   UNL     1       2.654   2.626  21.666  0.00  0.00    +0.000 A 
ATOM     19  C   UNL     1       1.918   3.797  21.519  0.00  0.00    +0.000 A 
ATOM     20  C   UNL     1       2.108   4.596  20.394  0.00  0.00    +0.000 A 
ENDBRANCH   7  15
ENDBRANCH   2   5
BRANCH   3  21
ATOM     21  N   UNL     1       1.920  10.318  18.218  0.00  0.00    +0.000 NA
ATOM     22  C   UNL     1       0.668  10.678  18.253  0.00  0.00    +0.000 C 
BRANCH  22  23
ATOM     23  C   UNL     1       0.185  11.973  18.858  0.00  0.00    +0.000 C 
ATOM     24  C   UNL     1      -0.429  12.077  20.047  0.00  0.00    +0.000 C 
BRANCH  24  25
ATOM     25  C   UNL     1      -0.592  10.968  20.997  0.00  0.00    +0.000 A 
ATOM     26  C   UNL     1      -0.370   9.657  20.561  0.00  0.00    +0.000 A 
ATOM     27  C   UNL     1      -0.276   8.610  21.487  0.00  0.00    +0.000 A 
ATOM     28  C   UNL     1      -0.405   8.860  22.855  0.00  0.00    +0.000 A 
ATOM     29  C   UNL     1      -0.709  10.143  23.304  0.00  0.00    +0.000 A 
ATOM     30  C   UNL     1      -0.831  11.177  22.364  0.00  0.00    +0.000 A 
BRANCH  30  31
ATOM     31  N   UNL     1      -1.248  12.484  22.843  0.00  0.00    +0.000 N 
ATOM     32  O   UNL     1      -2.466  12.722  22.847  0.00  0.00    +0.000 OA
ATOM     33  O   UNL     1      -0.363  13.248  23.246  0.00  0.00    +0.000 OA
ENDBRANCH  30  31
ENDBRANCH  24  25
ENDBRANCH  22  23
ENDBRANCH   3  21
TORSDOF 6
ENDMDL
MODEL 9
REMARK VINA RESULT:      -8.2      1.730      3.527
REMARK  Name = 
REMARK  6 active torsions:
REMARK  status: ('A' for Active; 'I' for Inactive)
REMARK    1  A    between atoms: C_2  and  C_17
REMARK    2  A    between atoms: N_3  and  N_4
REMARK    3  A    between atoms: C_5  and  C_6
REMARK    4  A    between atoms: C_7  and  C_8
REMARK    5  A    between atoms: C_13  and  N_14
REMARK    6  A    between atoms: C_19  and  C_20
REMARK                            x       y       z     vdW  Elec       q    Type
REMARK                         _______ _______ _______ _____ _____    ______ ____
ROOT
ATOM      1  O   UNL     1       2.523  10.001  17.240  0.00  0.00    +0.000 OA
ATOM      2  C   UNL     1       1.552   9.603  17.893  0.00  0.00    +0.000 C 
ATOM      3  N   UNL     1       1.624   8.429  18.648  0.00  0.00    +0.000 N 
ATOM      4  H   UNL     1       0.778   7.891  18.788  0.00  0.00    +0.000 HD
ENDROOT
BRANCH   2   5
ATOM      5  C   UNL     1       0.392  10.574  18.066  0.00  0.00    +0.000 A 
ATOM      6  C   UNL     1       0.860  11.564  18.952  0.00  0.00    +0.000 A 
ATOM      7  C   UNL     1      -0.056  11.946  19.882  0.00  0.00    +0.000 A 
ATOM      8  N   UNL     1      -1.102  12.503  19.283  0.00  0.00    +0.000 NA
ATOM      9  C   UNL     1      -1.722  11.670  18.441  0.00  0.00    +0.000 A 
ATOM     10  C   UNL     1      -3.105  11.793  18.456  0.00  0.00    +0.000 A 
ATOM     11  C   UNL     1      -3.912  10.868  17.824  0.00  0.00    +0.000 A 
ATOM     12  C   UNL     1      -3.311   9.895  17.040  0.00  0.00    +0.000 A 
ATOM     13  C   UNL     1      -1.899   9.758  16.998  0.00  0.00    +0.000 A 
ATOM     14  C   UNL     1      -1.042  10.599  17.780  0.00  0.00    +0.000 A 
BRANCH   7  15
ATOM     15  C   UNL     1      -0.540  10.937  20.931  0.00  0.00    +0.000 A 
ATOM     16  C   UNL     1      -1.378  11.325  21.995  0.00  0.00    +0.000 A 
ATOM     17  C   UNL     1      -1.209  10.759  23.260  0.00  0.00    +0.000 A 
ATOM     18  C   UNL     1      -0.265   9.754  23.456  0.00  0.00    +0.000 A 
ATOM     19  C   UNL     1       0.408   9.215  22.365  0.00  0.00    +0.000 A 
ATOM     20  C   UNL     1       0.212   9.756  21.095  0.00  0.00    +0.000 A 
ENDBRANCH   7  15
ENDBRANCH   2   5
BRANCH   3  21
ATOM     21  N   UNL     1       2.814   7.665  18.737  0.00  0.00    +0.000 NA
ATOM     22  C   UNL     1       2.962   6.685  17.890  0.00  0.00    +0.000 C 
BRANCH  22  23
ATOM     23  C   UNL     1       4.159   5.769  17.868  0.00  0.00    +0.000 C 
ATOM     24  C   UNL     1       4.298   4.675  18.635  0.00  0.00    +0.000 C 
BRANCH  24  25
ATOM     25  C   UNL     1       3.244   4.132  19.503  0.00  0.00    +0.000 A 
ATOM     26  C   UNL     1       2.327   5.008  20.095  0.00  0.00    +0.000 A 
ATOM     27  C   UNL     1       1.176   4.511  20.720  0.00  0.00    +0.000 A 
ATOM     28  C   UNL     1       0.931   3.136  20.764  0.00  0.00    +0.000 A 
ATOM     29  C   UNL     1       1.872   2.244  20.256  0.00  0.00    +0.000 A 
ATOM     30  C   UNL     1       3.034   2.753  19.660  0.00  0.00    +0.000 A 
BRANCH  30  31
ATOM     31  N   UNL     1       4.046   1.804  19.228  0.00  0.00    +0.000 N 
ATOM     32  O   UNL     1       3.879   1.264  18.123  0.00  0.00    +0.000 OA
ATOM     33  O   UNL     1       5.017   1.633  19.974  0.00  0.00    +0.000 OA
ENDBRANCH  30  31
ENDBRANCH  24  25
ENDBRANCH  22  23
ENDBRANCH   3  21
TORSDOF 6
ENDMDL
