MODEL 1
REMARK VINA RESULT:      -7.3      0.000      0.000
REMARK  Name = 
REMARK  6 active torsions:
REMARK  status: ('A' for Active; 'I' for Inactive)
REMARK    1  A    between atoms: C_1  and  C_2
REMARK    2  A    between atoms: C_2  and  N_3
REMARK    3  A    between atoms: C_2  and  C_14
REMARK    4  A    between atoms: N_3  and  C_4
REMARK    5  A    between atoms: C_11  and  C_12
REMARK    6  A    between atoms: N_25  and  C_26
REMARK                            x       y       z     vdW  Elec       q    Type
REMARK                         _______ _______ _______ _____ _____    ______ ____
ROOT
ATOM      1  C   UNL     1      -0.405  11.180  19.317  0.00  0.00    +0.000 A 
ATOM      2  N   UNL     1       0.340  10.537  18.462  0.00  0.00    +0.000 NA
ATOM      3  C   UNL     1       1.108   9.455  18.899  0.00  0.00    +0.000 A 
ATOM      4  C   UNL     1       1.834   8.717  17.957  0.00  0.00    +0.000 A 
ATOM      5  C   UNL     1       2.444   7.513  18.319  0.00  0.00    +0.000 A 
ATOM      6  C   UNL     1       2.337   7.055  19.627  0.00  0.00    +0.000 A 
ATOM      7  F   UNL     1       2.871   5.873  19.958  0.00  0.00    +0.000 F 
ATOM      8  C   UNL     1       1.677   7.802  20.593  0.00  0.00    +0.000 A 
ATOM      9  C   UNL     1       1.076   9.008  20.217  0.00  0.00    +0.000 A 
ATOM     10  C   UNL     1       0.382   9.852  21.199  0.00  0.00    +0.000 A 
ATOM     11  O   UNL     1       0.464   9.549  22.389  0.00  0.00    +0.000 OA
ATOM     12  N   UNL     1      -0.345  10.934  20.689  0.00  0.00    +0.000 N 
ENDROOT
BRANCH  12  13
ATOM     13  C   UNL     1      -0.823  11.879  21.648  0.00  0.00    +0.000 A 
ATOM     14  C   UNL     1      -0.079  13.046  21.871  0.00  0.00    +0.000 A 
ATOM     15  C   UNL     1      -0.534  13.996  22.779  0.00  0.00    +0.000 A 
ATOM     16  F   UNL     1       0.177  15.115  22.971  0.00  0.00    +0.000 F 
ATOM     17  C   UNL     1      -1.710  13.805  23.486  0.00  0.00    +0.000 A 
ATOM     18  C   UNL     1      -2.416  12.624  23.296  0.00  0.00    +0.000 A 
ATOM     19  F   UNL     1      -3.534  12.408  23.999  0.00  0.00    +0.000 F 
ATOM     20  C   UNL     1      -1.978  11.653  22.399  0.00  0.00    +0.000 A 
ENDBRANCH  12  13
BRANCH   1  22
ATOM     21  C   UNL     1      -2.495  11.552  17.916  0.00  0.00    +0.000 C 
ATOM     22  C   UNL     1      -1.402  12.237  18.750  0.00  0.00    +0.000 C 
BRANCH  22  23
ATOM     23  N   UNL     1      -0.687  13.246  17.951  0.00  0.00    +0.000 N 
ATOM     24  H   UNL     1      -1.228  13.529  17.134  0.00  0.00    +0.000 HD
BRANCH  23  25
ATOM     25  C   UNL     1      -0.166  14.363  18.643  0.00  0.00    +0.000 A 
ATOM     26  N   UNL     1      -1.027  15.248  19.183  0.00  0.00    +0.000 NA
ATOM     27  C   UNL     1      -0.526  16.271  19.883  0.00  0.00    +0.000 A 
ATOM     28  N   UNL     1      -1.416  17.155  20.450  0.00  0.00    +0.000 N 
ATOM     29  N   UNL     1       0.773  16.502  20.068  0.00  0.00    +0.000 NA
ATOM     30  C   UNL     1       1.628  15.603  19.565  0.00  0.00    +0.000 A 
ATOM     31  N   UNL     1       2.962  15.813  19.919  0.00  0.00    +0.000 N 
ATOM     32  C   UNL     1       1.203  14.501  18.838  0.00  0.00    +0.000 A 
ATOM     33  H   UNL     1      -2.336  17.084  20.045  0.00  0.00    +0.000 HD
ATOM     34  H   UNL     1      -1.010  18.071  20.569  0.00  0.00    +0.000 HD
ATOM     35  H   UNL     1       3.034  16.696  20.420  0.00  0.00    +0.000 HD
ATOM     36  H   UNL     1       3.631  15.738  19.162  0.00  0.00    +0.000 HD
BRANCH  32  37
ATOM     37  C   UNL     1       2.133  13.558  18.319  0.00  0.00    +0.000 C 
ATOM     38  N   UNL     1       2.878  12.747  17.935  0.00  0.00    +0.000 NA
ENDBRANCH  32  37
ENDBRANCH  23  25
ENDBRANCH  22  23
ENDBRANCH   1  22
TORSDOF 5
ENDMDL
MODEL 2
REMARK VINA RESULT:      -7.3      0.077      1.430
REMARK  Name = 
REMARK  6 active torsions:
REMARK  status: ('A' for Active; 'I' for Inactive)
REMARK    1  A    between atoms: C_1  and  C_2
REMARK    2  A    between atoms: C_2  and  N_3
REMARK    3  A    between atoms: C_2  and  C_14
REMARK    4  A    between atoms: N_3  and  C_4
REMARK    5  A    between atoms: C_11  and  C_12
REMARK    6  A    between atoms: N_25  and  C_26
REMARK                            x       y       z     vdW  Elec       q    Type
REMARK                         _______ _______ _______ _____ _____    ______ ____
ROOT
ATOM      1  C   UNL     1      -0.409  11.235  19.332  0.00  0.00    +0.000 A 
ATOM      2  N   UNL     1       0.325  10.578  18.479  0.00  0.00    +0.000 NA
ATOM      3  C   UNL     1       1.089   9.496  18.922  0.00  0.00    +0.000 A 
ATOM      4  C   UNL     1       1.803   8.743  17.983  0.00  0.00    +0.000 A 
ATOM      5  C   UNL     1       2.409   7.540  18.353  0.00  0.00    +0.000 A 
ATOM      6  C   UNL     1       2.310   7.097  19.667  0.00  0.00    +0.000 A 
ATOM      7  F   UNL     1       2.839   5.916  20.007  0.00  0.00    +0.000 F 
ATOM      8  C   UNL     1       1.662   7.860  20.630  0.00  0.00    +0.000 A 
ATOM      9  C   UNL     1       1.066   9.064  20.245  0.00  0.00    +0.000 A 
ATOM     10  C   UNL     1       0.385   9.924  21.223  0.00  0.00    +0.000 A 
ATOM     11  O   UNL     1       0.475   9.634  22.416  0.00  0.00    +0.000 OA
ATOM     12  N   UNL     1      -0.339  11.005  20.706  0.00  0.00    +0.000 N 
ENDROOT
BRANCH  12  13
ATOM     13  C   UNL     1      -0.803  11.963  21.658  0.00  0.00    +0.000 A 
ATOM     14  C   UNL     1      -2.007  11.713  22.333  0.00  0.00    +0.000 A 
ATOM     15  C   UNL     1      -2.470  12.615  23.285  0.00  0.00    +0.000 A 
ATOM     16  F   UNL     1      -3.613  12.355  23.935  0.00  0.00    +0.000 F 
ATOM     17  C   UNL     1      -1.769  13.775  23.572  0.00  0.00    +0.000 A 
ATOM     18  C   UNL     1      -0.604  14.040  22.866  0.00  0.00    +0.000 A 
ATOM     19  F   UNL     1       0.065  15.175  23.106  0.00  0.00    +0.000 F 
ATOM     20  C   UNL     1      -0.122  13.158  21.902  0.00  0.00    +0.000 A 
ENDBRANCH  12  13
BRANCH   1  22
ATOM     21  C   UNL     1      -2.499  11.606  17.930  0.00  0.00    +0.000 C 
ATOM     22  C   UNL     1      -1.405  12.292  18.762  0.00  0.00    +0.000 C 
BRANCH  22  23
ATOM     23  N   UNL     1      -0.687  13.297  17.959  0.00  0.00    +0.000 N 
ATOM     24  H   UNL     1      -1.231  13.583  17.145  0.00  0.00    +0.000 HD
BRANCH  23  25
ATOM     25  C   UNL     1      -0.156  14.410  18.648  0.00  0.00    +0.000 A 
ATOM     26  N   UNL     1      -1.009  15.296  19.201  0.00  0.00    +0.000 NA
ATOM     27  C   UNL     1      -0.498  16.316  19.897  0.00  0.00    +0.000 A 
ATOM     28  N   UNL     1      -1.380  17.200  20.476  0.00  0.00    +0.000 N 
ATOM     29  N   UNL     1       0.803  16.543  20.069  0.00  0.00    +0.000 NA
ATOM     30  C   UNL     1       1.651  15.643  19.554  0.00  0.00    +0.000 A 
ATOM     31  N   UNL     1       2.989  15.849  19.894  0.00  0.00    +0.000 N 
ATOM     32  C   UNL     1       1.215  14.545  18.829  0.00  0.00    +0.000 A 
ATOM     33  H   UNL     1      -2.304  17.133  20.081  0.00  0.00    +0.000 HD
ATOM     34  H   UNL     1      -0.970  18.115  20.594  0.00  0.00    +0.000 HD
ATOM     35  H   UNL     1       3.068  16.731  20.397  0.00  0.00    +0.000 HD
ATOM     36  H   UNL     1       3.650  15.775  19.130  0.00  0.00    +0.000 HD
BRANCH  32  37
ATOM     37  C   UNL     1       2.137  13.600  18.297  0.00  0.00    +0.000 C 
ATOM     38  N   UNL     1       2.896  12.802  17.914  0.00  0.00    +0.000 NA
ENDBRANCH  32  37
ENDBRANCH  23  25
ENDBRANCH  22  23
ENDBRANCH   1  22
TORSDOF 5
ENDMDL
MODEL 3
REMARK VINA RESULT:      -7.0      2.810      5.327
REMARK  Name = 
REMARK  6 active torsions:
REMARK  status: ('A' for Active; 'I' for Inactive)
REMARK    1  A    between atoms: C_1  and  C_2
REMARK    2  A    between atoms: C_2  and  N_3
REMARK    3  A    between atoms: C_2  and  C_14
REMARK    4  A    between atoms: N_3  and  C_4
REMARK    5  A    between atoms: C_11  and  C_12
REMARK    6  A    between atoms: N_25  and  C_26
REMARK                            x       y       z     vdW  Elec       q    Type
REMARK                         _______ _______ _______ _____ _____    ______ ____
ROOT
ATOM      1  C   UNL     1       1.035  12.427  19.189  0.00  0.00    +0.000 A 
ATOM      2  N   UNL     1       1.678  13.039  18.235  0.00  0.00    +0.000 NA
ATOM      3  C   UNL     1       2.656  13.981  18.562  0.00  0.00    +0.000 A 
ATOM      4  C   UNL     1       3.402  14.566  17.533  0.00  0.00    +0.000 A 
ATOM      5  C   UNL     1       4.520  15.352  17.827  0.00  0.00    +0.000 A 
ATOM      6  C   UNL     1       4.883  15.560  19.152  0.00  0.00    +0.000 A 
ATOM      7  F   UNL     1       5.988  16.262  19.431  0.00  0.00    +0.000 F 
ATOM      8  C   UNL     1       4.121  15.043  20.191  0.00  0.00    +0.000 A 
ATOM      9  C   UNL     1       3.001  14.264  19.880  0.00  0.00    +0.000 A 
ATOM     10  C   UNL     1       2.144  13.708  20.937  0.00  0.00    +0.000 A 
ATOM     11  O   UNL     1       2.347  14.060  22.098  0.00  0.00    +0.000 OA
ATOM     12  N   UNL     1       1.168  12.791  20.529  0.00  0.00    +0.000 N 
ENDROOT
BRANCH  12  13
ATOM     13  C   UNL     1       0.195  12.430  21.511  0.00  0.00    +0.000 A 
ATOM     14  C   UNL     1      -0.601  13.439  22.071  0.00  0.00    +0.000 A 
ATOM     15  C   UNL     1      -1.575  13.115  23.010  0.00  0.00    +0.000 A 
ATOM     16  F   UNL     1      -2.340  14.086  23.525  0.00  0.00    +0.000 F 
ATOM     17  C   UNL     1      -1.766  11.804  23.418  0.00  0.00    +0.000 A 
ATOM     18  C   UNL     1      -0.942  10.817  22.895  0.00  0.00    +0.000 A 
ATOM     19  F   UNL     1      -1.091   9.552  23.307  0.00  0.00    +0.000 F 
ATOM     20  C   UNL     1       0.046  11.116  21.960  0.00  0.00    +0.000 A 
ENDBRANCH  12  13
BRANCH   1  22
ATOM     21  C   UNL     1       0.950  10.037  18.322  0.00  0.00    +0.000 C 
ATOM     22  C   UNL     1       0.111  11.237  18.786  0.00  0.00    +0.000 C 
BRANCH  22  23
ATOM     23  N   UNL     1      -0.837  11.651  17.737  0.00  0.00    +0.000 N 
ATOM     24  H   UNL     1      -0.710  11.108  16.882  0.00  0.00    +0.000 HD
BRANCH  23  25
ATOM     25  C   UNL     1      -2.200  11.740  18.100  0.00  0.00    +0.000 A 
ATOM     26  N   UNL     1      -2.515  12.259  19.304  0.00  0.00    +0.000 NA
ATOM     27  C   UNL     1      -3.807  12.390  19.617  0.00  0.00    +0.000 A 
ATOM     28  N   UNL     1      -4.116  12.943  20.839  0.00  0.00    +0.000 N 
ATOM     29  N   UNL     1      -4.821  12.020  18.836  0.00  0.00    +0.000 NA
ATOM     30  C   UNL     1      -4.510  11.539  17.624  0.00  0.00    +0.000 A 
ATOM     31  N   UNL     1      -5.609  11.311  16.794  0.00  0.00    +0.000 N 
ATOM     32  C   UNL     1      -3.199  11.381  17.204  0.00  0.00    +0.000 A 
ATOM     33  H   UNL     1      -3.332  12.936  21.472  0.00  0.00    +0.000 HD
ATOM     34  H   UNL     1      -5.013  12.628  21.177  0.00  0.00    +0.000 HD
ATOM     35  H   UNL     1      -6.462  11.463  17.329  0.00  0.00    +0.000 HD
ATOM     36  H   UNL     1      -5.608  10.426  16.303  0.00  0.00    +0.000 HD
BRANCH  32  37
ATOM     37  C   UNL     1      -2.896  10.874  15.910  0.00  0.00    +0.000 C 
ATOM     38  N   UNL     1      -2.692  10.489  14.827  0.00  0.00    +0.000 NA
ENDBRANCH  32  37
ENDBRANCH  23  25
ENDBRANCH  22  23
ENDBRANCH   1  22
TORSDOF 5
ENDMDL
MODEL 4
REMARK VINA RESULT:      -7.0      2.820      5.380
REMARK  Name = 
REMARK  6 active torsions:
REMARK  status: ('A' for Active; 'I' for Inactive)
REMARK    1  A    between atoms: C_1  and  C_2
REMARK    2  A    between atoms: C_2  and  N_3
REMARK    3  A    between atoms: C_2  and  C_14
REMARK    4  A    between atoms: N_3  and  C_4
REMARK    5  A    between atoms: C_11  and  C_12
REMARK    6  A    between atoms: N_25  and  C_26
REMARK                            x       y       z     vdW  Elec       q    Type
REMARK                         _______ _______ _______ _____ _____    ______ ____
ROOT
ATOM      1  C   UNL     1       1.045  12.430  19.203  0.00  0.00    +0.000 A 
ATOM      2  N   UNL     1       1.713  13.016  18.250  0.00  0.00    +0.000 NA
ATOM      3  C   UNL     1       2.701  13.948  18.578  0.00  0.00    +0.000 A 
ATOM      4  C   UNL     1       3.473  14.504  17.551  0.00  0.00    +0.000 A 
ATOM      5  C   UNL     1       4.599  15.276  17.851  0.00  0.00    +0.000 A 
ATOM      6  C   UNL     1       4.944  15.500  19.179  0.00  0.00    +0.000 A 
ATOM      7  F   UNL     1       6.056  16.188  19.464  0.00  0.00    +0.000 F 
ATOM      8  C   UNL     1       4.157  15.011  20.212  0.00  0.00    +0.000 A 
ATOM      9  C   UNL     1       3.031  14.246  19.897  0.00  0.00    +0.000 A 
ATOM     10  C   UNL     1       2.148  13.720  20.948  0.00  0.00    +0.000 A 
ATOM     11  O   UNL     1       2.338  14.088  22.106  0.00  0.00    +0.000 OA
ATOM     12  N   UNL     1       1.164  12.812  20.539  0.00  0.00    +0.000 N 
ENDROOT
BRANCH  12  13
ATOM     13  C   UNL     1       0.170  12.483  21.511  0.00  0.00    +0.000 A 
ATOM     14  C   UNL     1       0.016  11.142  21.889  0.00  0.00    +0.000 A 
ATOM     15  C   UNL     1      -0.924  10.795  22.852  0.00  0.00    +0.000 A 
ATOM     16  F   UNL     1      -1.049   9.512  23.217  0.00  0.00    +0.000 F 
ATOM     17  C   UNL     1      -1.733  11.754  23.441  0.00  0.00    +0.000 A 
ATOM     18  C   UNL     1      -1.609  13.073  23.027  0.00  0.00    +0.000 A 
ATOM     19  F   UNL     1      -2.409  14.006  23.559  0.00  0.00    +0.000 F 
ATOM     20  C   UNL     1      -0.680  13.447  22.058  0.00  0.00    +0.000 A 
ENDBRANCH  12  13
BRANCH   1  22
ATOM     21  C   UNL     1       0.934  10.039  18.341  0.00  0.00    +0.000 C 
ATOM     22  C   UNL     1       0.109  11.248  18.804  0.00  0.00    +0.000 C 
BRANCH  22  23
ATOM     23  N   UNL     1      -0.837  11.670  17.755  0.00  0.00    +0.000 N 
ATOM     24  H   UNL     1      -0.704  11.137  16.895  0.00  0.00    +0.000 HD
BRANCH  23  25
ATOM     25  C   UNL     1      -2.201  11.750  18.114  0.00  0.00    +0.000 A 
ATOM     26  N   UNL     1      -2.523  12.252  19.323  0.00  0.00    +0.000 NA
ATOM     27  C   UNL     1      -3.817  12.375  19.632  0.00  0.00    +0.000 A 
ATOM     28  N   UNL     1      -4.134  12.912  20.859  0.00  0.00    +0.000 N 
ATOM     29  N   UNL     1      -4.826  12.011  18.841  0.00  0.00    +0.000 NA
ATOM     30  C   UNL     1      -4.509  11.546  17.625  0.00  0.00    +0.000 A 
ATOM     31  N   UNL     1      -5.603  11.325  16.788  0.00  0.00    +0.000 N 
ATOM     32  C   UNL     1      -3.195  11.398  17.209  0.00  0.00    +0.000 A 
ATOM     33  H   UNL     1      -3.353  12.900  21.495  0.00  0.00    +0.000 HD
ATOM     34  H   UNL     1      -5.031  12.589  21.189  0.00  0.00    +0.000 HD
ATOM     35  H   UNL     1      -6.459  11.467  17.321  0.00  0.00    +0.000 HD
ATOM     36  H   UNL     1      -5.597  10.446  16.285  0.00  0.00    +0.000 HD
BRANCH  32  37
ATOM     37  C   UNL     1      -2.885  10.908  15.910  0.00  0.00    +0.000 C 
ATOM     38  N   UNL     1      -2.674  10.469  14.849  0.00  0.00    +0.000 NA
ENDBRANCH  32  37
ENDBRANCH  23  25
ENDBRANCH  22  23
ENDBRANCH   1  22
TORSDOF 5
ENDMDL
MODEL 5
REMARK VINA RESULT:      -6.9      1.059      1.869
REMARK  Name = 
REMARK  6 active torsions:
REMARK  status: ('A' for Active; 'I' for Inactive)
REMARK    1  A    between atoms: C_1  and  C_2
REMARK    2  A    between atoms: C_2  and  N_3
REMARK    3  A    between atoms: C_2  and  C_14
REMARK    4  A    between atoms: N_3  and  C_4
REMARK    5  A    between atoms: C_11  and  C_12
REMARK    6  A    between atoms: N_25  and  C_26
REMARK                            x       y       z     vdW  Elec       q    Type
REMARK                         _______ _______ _______ _____ _____    ______ ____
ROOT
ATOM      1  C   UNL     1      -1.022  11.676  20.291  0.00  0.00    +0.000 A 
ATOM      2  N   UNL     1      -0.230  11.031  19.482  0.00  0.00    +0.000 NA
ATOM      3  C   UNL     1       0.496   9.937  19.960  0.00  0.00    +0.000 A 
ATOM      4  C   UNL     1       1.275   9.198  19.061  0.00  0.00    +0.000 A 
ATOM      5  C   UNL     1       1.848   7.985  19.453  0.00  0.00    +0.000 A 
ATOM      6  C   UNL     1       1.651   7.519  20.748  0.00  0.00    +0.000 A 
ATOM      7  F   UNL     1       2.149   6.329  21.103  0.00  0.00    +0.000 F 
ATOM      8  C   UNL     1       0.936   8.267  21.674  0.00  0.00    +0.000 A 
ATOM      9  C   UNL     1       0.374   9.481  21.269  0.00  0.00    +0.000 A 
ATOM     10  C   UNL     1      -0.374  10.326  22.210  0.00  0.00    +0.000 A 
ATOM     11  O   UNL     1      -0.373  10.014  23.400  0.00  0.00    +0.000 OA
ATOM     12  N   UNL     1      -1.054  11.420  21.662  0.00  0.00    +0.000 N 
ENDROOT
BRANCH  12  13
ATOM     13  C   UNL     1      -1.584  12.363  22.595  0.00  0.00    +0.000 A 
ATOM     14  C   UNL     1      -2.873  12.154  23.104  0.00  0.00    +0.000 A 
ATOM     15  C   UNL     1      -3.405  13.041  24.034  0.00  0.00    +0.000 A 
ATOM     16  F   UNL     1      -4.632  12.820  24.525  0.00  0.00    +0.000 F 
ATOM     17  C   UNL     1      -2.687  14.146  24.461  0.00  0.00    +0.000 A 
ATOM     18  C   UNL     1      -1.430  14.373  23.916  0.00  0.00    +0.000 A 
ATOM     19  F   UNL     1      -0.739  15.457  24.291  0.00  0.00    +0.000 F 
ATOM     20  C   UNL     1      -0.877  13.505  22.977  0.00  0.00    +0.000 A 
ENDBRANCH  12  13
BRANCH   1  22
ATOM     21  C   UNL     1      -3.101  12.073  18.880  0.00  0.00    +0.000 C 
ATOM     22  C   UNL     1      -1.969  12.747  19.669  0.00  0.00    +0.000 C 
BRANCH  22  23
ATOM     23  N   UNL     1      -1.210  13.672  18.809  0.00  0.00    +0.000 N 
ATOM     24  H   UNL     1      -1.770  13.996  18.021  0.00  0.00    +0.000 HD
BRANCH  23  25
ATOM     25  C   UNL     1      -0.542  14.741  19.449  0.00  0.00    +0.000 A 
ATOM     26  N   UNL     1      -1.266  15.607  20.187  0.00  0.00    +0.000 NA
ATOM     27  C   UNL     1      -0.619  16.582  20.832  0.00  0.00    +0.000 A 
ATOM     28  N   UNL     1      -1.366  17.444  21.602  0.00  0.00    +0.000 N 
ATOM     29  N   UNL     1       0.697  16.785  20.782  0.00  0.00    +0.000 NA
ATOM     30  C   UNL     1       1.422  15.904  20.080  0.00  0.00    +0.000 A 
ATOM     31  N   UNL     1       2.802  16.077  20.187  0.00  0.00    +0.000 N 
ATOM     32  C   UNL     1       0.842  14.851  19.390  0.00  0.00    +0.000 A 
ATOM     33  H   UNL     1      -2.347  17.408  21.374  0.00  0.00    +0.000 HD
ATOM     34  H   UNL     1      -0.923  18.347  21.690  0.00  0.00    +0.000 HD
ATOM     35  H   UNL     1       2.988  16.929  20.711  0.00  0.00    +0.000 HD
ATOM     36  H   UNL     1       3.316  16.035  19.315  0.00  0.00    +0.000 HD
BRANCH  32  37
ATOM     37  C   UNL     1       1.635  13.925  18.656  0.00  0.00    +0.000 C 
ATOM     38  N   UNL     1       2.241  13.156  18.021  0.00  0.00    +0.000 NA
ENDBRANCH  32  37
ENDBRANCH  23  25
ENDBRANCH  22  23
ENDBRANCH   1  22
TORSDOF 5
ENDMDL
MODEL 6
REMARK VINA RESULT:      -6.9      3.283      6.470
REMARK  Name = 
REMARK  6 active torsions:
REMARK  status: ('A' for Active; 'I' for Inactive)
REMARK    1  A    between atoms: C_1  and  C_2
REMARK    2  A    between atoms: C_2  and  N_3
REMARK    3  A    between atoms: C_2  and  C_14
REMARK    4  A    between atoms: N_3  and  C_4
REMARK    5  A    between atoms: C_11  and  C_12
REMARK    6  A    between atoms: N_25  and  C_26
REMARK                            x       y       z     vdW  Elec       q    Type
REMARK                         _______ _______ _______ _____ _____    ______ ____
ROOT
ATOM      1  C   UNL     1      -1.011  12.809  19.335  0.00  0.00    +0.000 A 
ATOM      2  N   UNL     1      -1.192  14.052  18.985  0.00  0.00    +0.000 NA
ATOM      3  C   UNL     1      -0.102  14.925  18.968  0.00  0.00    +0.000 A 
ATOM      4  C   UNL     1      -0.292  16.233  18.506  0.00  0.00    +0.000 A 
ATOM      5  C   UNL     1       0.805  17.069  18.280  0.00  0.00    +0.000 A 
ATOM      6  C   UNL     1       2.090  16.600  18.529  0.00  0.00    +0.000 A 
ATOM      7  F   UNL     1       3.142  17.380  18.255  0.00  0.00    +0.000 F 
ATOM      8  C   UNL     1       2.296  15.329  19.048  0.00  0.00    +0.000 A 
ATOM      9  C   UNL     1       1.189  14.506  19.275  0.00  0.00    +0.000 A 
ATOM     10  C   UNL     1       1.344  13.160  19.843  0.00  0.00    +0.000 A 
ATOM     11  O   UNL     1       2.455  12.824  20.252  0.00  0.00    +0.000 OA
ATOM     12  N   UNL     1       0.201  12.351  19.851  0.00  0.00    +0.000 N 
ENDROOT
BRANCH  12  13
ATOM     13  C   UNL     1       0.293  11.141  20.606  0.00  0.00    +0.000 A 
ATOM     14  C   UNL     1       0.881  10.018  20.007  0.00  0.00    +0.000 A 
ATOM     15  C   UNL     1       1.007   8.835  20.726  0.00  0.00    +0.000 A 
ATOM     16  F   UNL     1       1.586   7.773  20.148  0.00  0.00    +0.000 F 
ATOM     17  C   UNL     1       0.547   8.736  22.030  0.00  0.00    +0.000 A 
ATOM     18  C   UNL     1      -0.077   9.838  22.599  0.00  0.00    +0.000 A 
ATOM     19  F   UNL     1      -0.561   9.747  23.844  0.00  0.00    +0.000 F 
ATOM     20  C   UNL     1      -0.225  11.032  21.898  0.00  0.00    +0.000 A 
ENDBRANCH  12  13
BRANCH   1  22
ATOM     21  C   UNL     1      -1.885  10.815  18.021  0.00  0.00    +0.000 C 
ATOM     22  C   UNL     1      -2.203  11.824  19.134  0.00  0.00    +0.000 C 
BRANCH  22  23
ATOM     23  N   UNL     1      -3.441  12.564  18.834  0.00  0.00    +0.000 N 
ATOM     24  H   UNL     1      -3.595  12.643  17.829  0.00  0.00    +0.000 HD
BRANCH  23  25
ATOM     25  C   UNL     1      -4.612  12.158  19.511  0.00  0.00    +0.000 A 
ATOM     26  N   UNL     1      -5.406  11.235  18.933  0.00  0.00    +0.000 NA
ATOM     27  C   UNL     1      -6.483  10.817  19.605  0.00  0.00    +0.000 A 
ATOM     28  N   UNL     1      -7.273   9.856  19.014  0.00  0.00    +0.000 N 
ATOM     29  N   UNL     1      -6.853  11.264  20.804  0.00  0.00    +0.000 NA
ATOM     30  C   UNL     1      -6.045  12.154  21.396  0.00  0.00    +0.000 A 
ATOM     31  N   UNL     1      -6.399  12.471  22.708  0.00  0.00    +0.000 N 
ATOM     32  C   UNL     1      -4.898  12.635  20.785  0.00  0.00    +0.000 A 
ATOM     33  H   UNL     1      -7.100   9.774  18.025  0.00  0.00    +0.000 HD
ATOM     34  H   UNL     1      -8.228   9.906  19.336  0.00  0.00    +0.000 HD
ATOM     35  H   UNL     1      -7.289  12.028  22.925  0.00  0.00    +0.000 HD
ATOM     36  H   UNL     1      -6.388  13.458  22.936  0.00  0.00    +0.000 HD
BRANCH  32  37
ATOM     37  C   UNL     1      -4.053  13.575  21.438  0.00  0.00    +0.000 C 
ATOM     38  N   UNL     1      -3.315  14.320  21.951  0.00  0.00    +0.000 NA
ENDBRANCH  32  37
ENDBRANCH  23  25
ENDBRANCH  22  23
ENDBRANCH   1  22
TORSDOF 5
ENDMDL
MODEL 7
REMARK VINA RESULT:      -6.8      3.369      6.481
REMARK  Name = 
REMARK  6 active torsions:
REMARK  status: ('A' for Active; 'I' for Inactive)
REMARK    1  A    between atoms: C_1  and  C_2
REMARK    2  A    between atoms: C_2  and  N_3
REMARK    3  A    between atoms: C_2  and  C_14
REMARK    4  A    between atoms: N_3  and  C_4
REMARK    5  A    between atoms: C_11  and  C_12
REMARK    6  A    between atoms: N_25  and  C_26
REMARK                            x       y       z     vdW  Elec       q    Type
REMARK                         _______ _______ _______ _____ _____    ______ ____
ROOT
ATOM      1  C   UNL     1      -1.058  12.864  19.417  0.00  0.00    +0.000 A 
ATOM      2  N   UNL     1      -1.245  14.114  19.099  0.00  0.00    +0.000 NA
ATOM      3  C   UNL     1      -0.142  14.963  18.980  0.00  0.00    +0.000 A 
ATOM      4  C   UNL     1      -0.347  16.280  18.552  0.00  0.00    +0.000 A 
ATOM      5  C   UNL     1       0.740  17.095  18.224  0.00  0.00    +0.000 A 
ATOM      6  C   UNL     1       2.032  16.594  18.336  0.00  0.00    +0.000 A 
ATOM      7  F   UNL     1       3.069  17.355  17.964  0.00  0.00    +0.000 F 
ATOM      8  C   UNL     1       2.261  15.313  18.820  0.00  0.00    +0.000 A 
ATOM      9  C   UNL     1       1.163  14.512  19.150  0.00  0.00    +0.000 A 
ATOM     10  C   UNL     1       1.344  13.156  19.687  0.00  0.00    +0.000 A 
ATOM     11  O   UNL     1       2.482  12.791  19.977  0.00  0.00    +0.000 OA
ATOM     12  N   UNL     1       0.190  12.373  19.804  0.00  0.00    +0.000 N 
ENDROOT
BRANCH  12  13
ATOM     13  C   UNL     1       0.329  11.153  20.533  0.00  0.00    +0.000 A 
ATOM     14  C   UNL     1       0.884  10.040  19.885  0.00  0.00    +0.000 A 
ATOM     15  C   UNL     1       1.057   8.847  20.577  0.00  0.00    +0.000 A 
ATOM     16  F   UNL     1       1.604   7.796  19.951  0.00  0.00    +0.000 F 
ATOM     17  C   UNL     1       0.674   8.728  21.904  0.00  0.00    +0.000 A 
ATOM     18  C   UNL     1       0.081   9.818  22.525  0.00  0.00    +0.000 A 
ATOM     19  F   UNL     1      -0.328   9.707  23.795  0.00  0.00    +0.000 F 
ATOM     20  C   UNL     1      -0.111  11.023  21.852  0.00  0.00    +0.000 A 
ENDBRANCH  12  13
BRANCH   1  22
ATOM     21  C   UNL     1      -2.167  10.989  18.104  0.00  0.00    +0.000 C 
ATOM     22  C   UNL     1      -2.286  11.907  19.329  0.00  0.00    +0.000 C 
BRANCH  22  23
ATOM     23  N   UNL     1      -3.540  12.679  19.286  0.00  0.00    +0.000 N 
ATOM     24  H   UNL     1      -4.047  12.521  18.415  0.00  0.00    +0.000 HD
BRANCH  23  25
ATOM     25  C   UNL     1      -4.392  12.584  20.410  0.00  0.00    +0.000 A 
ATOM     26  N   UNL     1      -3.918  12.962  21.614  0.00  0.00    +0.000 NA
ATOM     27  C   UNL     1      -4.747  12.921  22.661  0.00  0.00    +0.000 A 
ATOM     28  N   UNL     1      -4.258  13.331  23.881  0.00  0.00    +0.000 N 
ATOM     29  N   UNL     1      -6.012  12.507  22.614  0.00  0.00    +0.000 NA
ATOM     30  C   UNL     1      -6.496  12.168  21.411  0.00  0.00    +0.000 A 
ATOM     31  N   UNL     1      -7.864  11.890  21.397  0.00  0.00    +0.000 N 
ATOM     32  C   UNL     1      -5.717  12.194  20.265  0.00  0.00    +0.000 A 
ATOM     33  H   UNL     1      -3.251  13.358  23.900  0.00  0.00    +0.000 HD
ATOM     34  H   UNL     1      -4.744  12.890  24.647  0.00  0.00    +0.000 HD
ATOM     35  H   UNL     1      -8.212  11.900  22.354  0.00  0.00    +0.000 HD
ATOM     36  H   UNL     1      -8.134  11.055  20.892  0.00  0.00    +0.000 HD
BRANCH  32  37
ATOM     37  C   UNL     1      -6.258  11.834  18.999  0.00  0.00    +0.000 C 
ATOM     38  N   UNL     1      -6.754  11.553  17.981  0.00  0.00    +0.000 NA
ENDBRANCH  32  37
ENDBRANCH  23  25
ENDBRANCH  22  23
ENDBRANCH   1  22
TORSDOF 5
ENDMDL
MODEL 8
REMARK VINA RESULT:      -6.8      3.385      6.533
REMARK  Name = 
REMARK  6 active torsions:
REMARK  status: ('A' for Active; 'I' for Inactive)
REMARK    1  A    between atoms: C_1  and  C_2
REMARK    2  A    between atoms: C_2  and  N_3
REMARK    3  A    between atoms: C_2  and  C_14
REMARK    4  A    between atoms: N_3  and  C_4
REMARK    5  A    between atoms: C_11  and  C_12
REMARK    6  A    between atoms: N_25  and  C_26
REMARK                            x       y       z     vdW  Elec       q    Type
REMARK                         _______ _______ _______ _____ _____    ______ ____
ROOT
ATOM      1  C   UNL     1      -1.113  12.910  19.422  0.00  0.00    +0.000 A 
ATOM      2  N   UNL     1      -1.292  14.165  19.118  0.00  0.00    +0.000 NA
ATOM      3  C   UNL     1      -0.182  15.004  18.987  0.00  0.00    +0.000 A 
ATOM      4  C   UNL     1      -0.380  16.326  18.574  0.00  0.00    +0.000 A 
ATOM      5  C   UNL     1       0.710  17.132  18.233  0.00  0.00    +0.000 A 
ATOM      6  C   UNL     1       1.998  16.616  18.318  0.00  0.00    +0.000 A 
ATOM      7  F   UNL     1       3.036  17.368  17.934  0.00  0.00    +0.000 F 
ATOM      8  C   UNL     1       2.221  15.329  18.787  0.00  0.00    +0.000 A 
ATOM      9  C   UNL     1       1.121  14.536  19.129  0.00  0.00    +0.000 A 
ATOM     10  C   UNL     1       1.296  13.174  19.651  0.00  0.00    +0.000 A 
ATOM     11  O   UNL     1       2.436  12.794  19.918  0.00  0.00    +0.000 OA
ATOM     12  N   UNL     1       0.136  12.402  19.782  0.00  0.00    +0.000 N 
ENDROOT
BRANCH  12  13
ATOM     13  C   UNL     1       0.274  11.174  20.498  0.00  0.00    +0.000 A 
ATOM     14  C   UNL     1      -0.164  11.118  21.828  0.00  0.00    +0.000 A 
ATOM     15  C   UNL     1      -0.066   9.929  22.542  0.00  0.00    +0.000 A 
ATOM     16  F   UNL     1      -0.504   9.884  23.808  0.00  0.00    +0.000 F 
ATOM     17  C   UNL     1       0.475   8.791  21.966  0.00  0.00    +0.000 A 
ATOM     18  C   UNL     1       0.951   8.867  20.664  0.00  0.00    +0.000 A 
ATOM     19  F   UNL     1       1.511   7.786  20.106  0.00  0.00    +0.000 F 
ATOM     20  C   UNL     1       0.873  10.048  19.930  0.00  0.00    +0.000 A 
ENDBRANCH  12  13
BRANCH   1  22
ATOM     21  C   UNL     1      -2.268  11.063  18.110  0.00  0.00    +0.000 C 
ATOM     22  C   UNL     1      -2.353  11.968  19.348  0.00  0.00    +0.000 C 
BRANCH  22  23
ATOM     23  N   UNL     1      -3.600  12.754  19.338  0.00  0.00    +0.000 N 
ATOM     24  H   UNL     1      -4.110  12.636  18.463  0.00  0.00    +0.000 HD
BRANCH  23  25
ATOM     25  C   UNL     1      -4.450  12.623  20.459  0.00  0.00    +0.000 A 
ATOM     26  N   UNL     1      -3.999  13.026  21.664  0.00  0.00    +0.000 NA
ATOM     27  C   UNL     1      -4.829  12.950  22.708  0.00  0.00    +0.000 A 
ATOM     28  N   UNL     1      -4.365  13.387  23.928  0.00  0.00    +0.000 N 
ATOM     29  N   UNL     1      -6.074  12.477  22.657  0.00  0.00    +0.000 NA
ATOM     30  C   UNL     1      -6.537  12.111  21.454  0.00  0.00    +0.000 A 
ATOM     31  N   UNL     1      -7.890  11.769  21.436  0.00  0.00    +0.000 N 
ATOM     32  C   UNL     1      -5.755  12.169  20.311  0.00  0.00    +0.000 A 
ATOM     33  H   UNL     1      -3.360  13.462  23.950  0.00  0.00    +0.000 HD
ATOM     34  H   UNL     1      -4.833  12.926  24.694  0.00  0.00    +0.000 HD
ATOM     35  H   UNL     1      -8.241  11.766  22.391  0.00  0.00    +0.000 HD
ATOM     36  H   UNL     1      -8.118  10.920  20.933  0.00  0.00    +0.000 HD
BRANCH  32  37
ATOM     37  C   UNL     1      -6.273  11.780  19.044  0.00  0.00    +0.000 C 
ATOM     38  N   UNL     1      -6.740  11.433  18.033  0.00  0.00    +0.000 NA
ENDBRANCH  32  37
ENDBRANCH  23  25
ENDBRANCH  22  23
ENDBRANCH   1  22
TORSDOF 5
ENDMDL
MODEL 9
REMARK VINA RESULT:      -6.7      0.709      2.080
REMARK  Name = 
REMARK  6 active torsions:
REMARK  status: ('A' for Active; 'I' for Inactive)
REMARK    1  A    between atoms: C_1  and  C_2
REMARK    2  A    between atoms: C_2  and  N_3
REMARK    3  A    between atoms: C_2  and  C_14
REMARK    4  A    between atoms: N_3  and  C_4
REMARK    5  A    between atoms: C_11  and  C_12
REMARK    6  A    between atoms: N_25  and  C_26
REMARK                            x       y       z     vdW  Elec       q    Type
REMARK                         _______ _______ _______ _____ _____    ______ ____
ROOT
ATOM      1  C   UNL     1      -0.643  11.437  19.629  0.00  0.00    +0.000 A 
ATOM      2  N   UNL     1       0.083  10.807  18.749  0.00  0.00    +0.000 NA
ATOM      3  C   UNL     1       0.883   9.738  19.159  0.00  0.00    +0.000 A 
ATOM      4  C   UNL     1       1.589   9.012  18.193  0.00  0.00    +0.000 A 
ATOM      5  C   UNL     1       2.232   7.819  18.534  0.00  0.00    +0.000 A 
ATOM      6  C   UNL     1       2.178   7.359  19.844  0.00  0.00    +0.000 A 
ATOM      7  F   UNL     1       2.742   6.187  20.156  0.00  0.00    +0.000 F 
ATOM      8  C   UNL     1       1.538   8.096  20.832  0.00  0.00    +0.000 A 
ATOM      9  C   UNL     1       0.905   9.291  20.477  0.00  0.00    +0.000 A 
ATOM     10  C   UNL     1       0.230  10.123  21.483  0.00  0.00    +0.000 A 
ATOM     11  O   UNL     1       0.358   9.822  22.669  0.00  0.00    +0.000 OA
ATOM     12  N   UNL     1      -0.531  11.193  20.998  0.00  0.00    +0.000 N 
ENDROOT
BRANCH  12  13
ATOM     13  C   UNL     1      -0.992  12.130  21.973  0.00  0.00    +0.000 A 
ATOM     14  C   UNL     1      -0.249  13.298  22.188  0.00  0.00    +0.000 A 
ATOM     15  C   UNL     1      -0.687  14.241  23.112  0.00  0.00    +0.000 A 
ATOM     16  F   UNL     1       0.024  15.361  23.296  0.00  0.00    +0.000 F 
ATOM     17  C   UNL     1      -1.847  14.040  23.843  0.00  0.00    +0.000 A 
ATOM     18  C   UNL     1      -2.553  12.859  23.659  0.00  0.00    +0.000 A 
ATOM     19  F   UNL     1      -3.655  12.634  24.385  0.00  0.00    +0.000 F 
ATOM     20  C   UNL     1      -2.131  11.895  22.747  0.00  0.00    +0.000 A 
ENDBRANCH  12  13
BRANCH   1  22
ATOM     21  C   UNL     1      -2.871  11.763  18.448  0.00  0.00    +0.000 C 
ATOM     22  C   UNL     1      -1.677  12.477  19.098  0.00  0.00    +0.000 C 
BRANCH  22  23
ATOM     23  N   UNL     1      -1.037  13.402  18.146  0.00  0.00    +0.000 N 
ATOM     24  H   UNL     1      -1.713  14.052  17.745  0.00  0.00    +0.000 HD
BRANCH  23  25
ATOM     25  C   UNL     1       0.130  14.067  18.583  0.00  0.00    +0.000 A 
ATOM     26  N   UNL     1       1.326  13.639  18.132  0.00  0.00    +0.000 NA
ATOM     27  C   UNL     1       2.420  14.308  18.507  0.00  0.00    +0.000 A 
ATOM     28  N   UNL     1       3.633  13.876  18.020  0.00  0.00    +0.000 N 
ATOM     29  N   UNL     1       2.425  15.361  19.322  0.00  0.00    +0.000 NA
ATOM     30  C   UNL     1       1.235  15.811  19.742  0.00  0.00    +0.000 A 
ATOM     31  N   UNL     1       1.291  17.003  20.467  0.00  0.00    +0.000 N 
ATOM     32  C   UNL     1       0.045  15.193  19.393  0.00  0.00    +0.000 A 
ATOM     33  H   UNL     1       3.586  12.938  17.653  0.00  0.00    +0.000 HD
ATOM     34  H   UNL     1       4.392  14.115  18.639  0.00  0.00    +0.000 HD
ATOM     35  H   UNL     1       2.267  17.245  20.626  0.00  0.00    +0.000 HD
ATOM     36  H   UNL     1       0.740  17.023  21.316  0.00  0.00    +0.000 HD
BRANCH  32  37
ATOM     37  C   UNL     1      -1.207  15.695  19.848  0.00  0.00    +0.000 C 
ATOM     38  N   UNL     1      -2.247  16.053  20.236  0.00  0.00    +0.000 NA
ENDBRANCH  32  37
ENDBRANCH  23  25
ENDBRANCH  22  23
ENDBRANCH   1  22
TORSDOF 5
ENDMDL
