MODEL 1
REMARK VINA RESULT:      -8.1      0.000      0.000
REMARK  Name = 
REMARK  1 active torsions:
REMARK  status: ('A' for Active; 'I' for Inactive)
REMARK    1  A    between atoms: C_7  and  C_8
REMARK                            x       y       z     vdW  Elec       q    Type
REMARK                         _______ _______ _______ _____ _____    ______ ____
ROOT
ATOM      1  C   UNL     1       2.386   7.505  19.009  0.00  0.00    +0.000 A 
ATOM      2  C   UNL     1       2.750   8.311  17.958  0.00  0.00    +0.000 A 
ATOM      3  C   UNL     1       2.083   9.499  17.866  0.00  0.00    +0.000 A 
ATOM      4  N   UNL     1       1.140   9.877  18.737  0.00  0.00    +0.000 NA
ATOM      5  C   UNL     1       0.842   9.047  19.753  0.00  0.00    +0.000 A 
ATOM      6  N   UNL     1      -0.121   9.440  20.651  0.00  0.00    +0.000 N 
ATOM      7  C   UNL     1      -0.791  10.722  20.506  0.00  0.00    +0.000 C 
ATOM      8  C   UNL     1      -0.471  11.619  21.701  0.00  0.00    +0.000 C 
ATOM      9  C   UNL     1      -0.736  10.904  23.024  0.00  0.00    +0.000 C 
ATOM     10  C   UNL     1      -0.018   9.555  23.081  0.00  0.00    +0.000 C 
ATOM     11  C   UNL     1      -0.354   8.685  21.870  0.00  0.00    +0.000 C 
ATOM     12  N   UNL     1       1.440   7.859  19.907  0.00  0.00    +0.000 NA
ENDROOT
BRANCH   1  19
ATOM     13  C   UNL     1       1.218   3.375  21.017  0.00  0.00    +0.000 A 
ATOM     14  C   UNL     1       2.310   2.524  20.900  0.00  0.00    +0.000 A 
ATOM     15  N   UNL     1       3.483   2.822  20.297  0.00  0.00    +0.000 NA
ATOM     16  C   UNL     1       3.512   4.073  19.803  0.00  0.00    +0.000 A 
ATOM     17  N   UNL     1       4.581   4.612  19.147  0.00  0.00    +0.000 N 
ATOM     18  C   UNL     1       4.296   5.901  18.779  0.00  0.00    +0.000 A 
ATOM     19  C   UNL     1       3.014   6.207  19.210  0.00  0.00    +0.000 A 
ATOM     20  C   UNL     1       2.507   5.035  19.858  0.00  0.00    +0.000 A 
ATOM     21  C   UNL     1       1.305   4.662  20.485  0.00  0.00    +0.000 A 
ATOM     22  H   UNL     1       5.443   4.115  18.982  0.00  0.00    +0.000 HD
ENDBRANCH   1  19
TORSDOF 1
ENDMDL
MODEL 2
REMARK VINA RESULT:      -8.0      1.213      6.260
REMARK  Name = 
REMARK  1 active torsions:
REMARK  status: ('A' for Active; 'I' for Inactive)
REMARK    1  A    between atoms: C_7  and  C_8
REMARK                            x       y       z     vdW  Elec       q    Type
REMARK                         _______ _______ _______ _____ _____    ______ ____
ROOT
ATOM      1  C   UNL     1       2.003   8.242  18.988  0.00  0.00    +0.000 A 
ATOM      2  C   UNL     1       2.765   8.446  17.863  0.00  0.00    +0.000 A 
ATOM      3  C   UNL     1       3.583   7.412  17.508  0.00  0.00    +0.000 A 
ATOM      4  N   UNL     1       3.644   6.262  18.190  0.00  0.00    +0.000 NA
ATOM      5  C   UNL     1       2.859   6.120  19.273  0.00  0.00    +0.000 A 
ATOM      6  N   UNL     1       2.919   4.937  19.968  0.00  0.00    +0.000 N 
ATOM      7  C   UNL     1       3.802   3.867  19.535  0.00  0.00    +0.000 C 
ATOM      8  C   UNL     1       2.983   2.643  19.128  0.00  0.00    +0.000 C 
ATOM      9  C   UNL     1       1.986   2.249  20.216  0.00  0.00    +0.000 C 
ATOM     10  C   UNL     1       1.117   3.437  20.631  0.00  0.00    +0.000 C 
ATOM     11  C   UNL     1       1.966   4.646  21.026  0.00  0.00    +0.000 C 
ATOM     12  N   UNL     1       2.041   7.092  19.696  0.00  0.00    +0.000 NA
ENDROOT
BRANCH   1  19
ATOM     13  C   UNL     1       0.095   9.472  23.147  0.00  0.00    +0.000 A 
ATOM     14  C   UNL     1      -0.737  10.562  22.925  0.00  0.00    +0.000 A 
ATOM     15  N   UNL     1      -0.940  11.173  21.735  0.00  0.00    +0.000 NA
ATOM     16  C   UNL     1      -0.244  10.605  20.734  0.00  0.00    +0.000 A 
ATOM     17  N   UNL     1      -0.276  11.037  19.440  0.00  0.00    +0.000 N 
ATOM     18  C   UNL     1       0.533  10.246  18.667  0.00  0.00    +0.000 A 
ATOM     19  C   UNL     1       1.100   9.273  19.479  0.00  0.00    +0.000 A 
ATOM     20  C   UNL     1       0.611   9.508  20.804  0.00  0.00    +0.000 A 
ATOM     21  C   UNL     1       0.793   8.925  22.070  0.00  0.00    +0.000 A 
ATOM     22  H   UNL     1      -0.830  11.819  19.126  0.00  0.00    +0.000 HD
ENDBRANCH   1  19
TORSDOF 1
ENDMDL
MODEL 3
REMARK VINA RESULT:      -8.0      3.273      6.210
REMARK  Name = 
REMARK  1 active torsions:
REMARK  status: ('A' for Active; 'I' for Inactive)
REMARK    1  A    between atoms: C_7  and  C_8
REMARK                            x       y       z     vdW  Elec       q    Type
REMARK                         _______ _______ _______ _____ _____    ______ ____
ROOT
ATOM      1  C   UNL     1       4.275   6.185  17.605  0.00  0.00    +0.000 A 
ATOM      2  C   UNL     1       3.611   7.373  17.792  0.00  0.00    +0.000 A 
ATOM      3  C   UNL     1       2.460   7.298  18.522  0.00  0.00    +0.000 A 
ATOM      4  N   UNL     1       1.997   6.153  19.040  0.00  0.00    +0.000 NA
ATOM      5  C   UNL     1       2.704   5.028  18.833  0.00  0.00    +0.000 A 
ATOM      6  N   UNL     1       2.230   3.856  19.371  0.00  0.00    +0.000 N 
ATOM      7  C   UNL     1       1.003   3.840  20.149  0.00  0.00    +0.000 C 
ATOM      8  C   UNL     1       1.300   3.428  21.590  0.00  0.00    +0.000 C 
ATOM      9  C   UNL     1       2.111   2.136  21.647  0.00  0.00    +0.000 C 
ATOM     10  C   UNL     1       3.368   2.229  20.782  0.00  0.00    +0.000 C 
ATOM     11  C   UNL     1       3.037   2.648  19.350  0.00  0.00    +0.000 C 
ATOM     12  N   UNL     1       3.835   5.015  18.117  0.00  0.00    +0.000 NA
ENDROOT
BRANCH   1  19
ATOM     13  C   UNL     1       5.787   4.050  13.654  0.00  0.00    +0.000 A 
ATOM     14  C   UNL     1       7.121   4.390  13.473  0.00  0.00    +0.000 A 
ATOM     15  N   UNL     1       7.845   5.206  14.273  0.00  0.00    +0.000 NA
ATOM     16  C   UNL     1       7.135   5.677  15.314  0.00  0.00    +0.000 A 
ATOM     17  N   UNL     1       7.636   6.521  16.263  0.00  0.00    +0.000 N 
ATOM     18  C   UNL     1       6.666   6.807  17.187  0.00  0.00    +0.000 A 
ATOM     19  C   UNL     1       5.509   6.129  16.833  0.00  0.00    +0.000 A 
ATOM     20  C   UNL     1       5.804   5.413  15.629  0.00  0.00    +0.000 A 
ATOM     21  C   UNL     1       5.100   4.569  14.752  0.00  0.00    +0.000 A 
ATOM     22  H   UNL     1       8.586   6.858  16.264  0.00  0.00    +0.000 HD
ENDBRANCH   1  19
TORSDOF 1
ENDMDL
MODEL 4
REMARK VINA RESULT:      -7.6      1.597      6.663
REMARK  Name = 
REMARK  1 active torsions:
REMARK  status: ('A' for Active; 'I' for Inactive)
REMARK    1  A    between atoms: C_7  and  C_8
REMARK                            x       y       z     vdW  Elec       q    Type
REMARK                         _______ _______ _______ _____ _____    ______ ____
ROOT
ATOM      1  C   UNL     1       1.721   8.469  19.258  0.00  0.00    +0.000 A 
ATOM      2  C   UNL     1       2.350   8.764  18.073  0.00  0.00    +0.000 A 
ATOM      3  C   UNL     1       3.161   7.784  17.575  0.00  0.00    +0.000 A 
ATOM      4  N   UNL     1       3.335   6.603  18.180  0.00  0.00    +0.000 NA
ATOM      5  C   UNL     1       2.676   6.371  19.329  0.00  0.00    +0.000 A 
ATOM      6  N   UNL     1       2.852   5.156  19.945  0.00  0.00    +0.000 N 
ATOM      7  C   UNL     1       3.720   4.147  19.361  0.00  0.00    +0.000 C 
ATOM      8  C   UNL     1       2.905   2.915  18.972  0.00  0.00    +0.000 C 
ATOM      9  C   UNL     1       2.045   2.423  20.135  0.00  0.00    +0.000 C 
ATOM     10  C   UNL     1       1.185   3.551  20.706  0.00  0.00    +0.000 C 
ATOM     11  C   UNL     1       2.028   4.770  21.079  0.00  0.00    +0.000 C 
ATOM     12  N   UNL     1       1.874   7.285  19.891  0.00  0.00    +0.000 NA
ENDROOT
BRANCH   1  19
ATOM     13  C   UNL     1      -1.913  11.222  17.967  0.00  0.00    +0.000 A 
ATOM     14  C   UNL     1      -2.301  11.959  19.078  0.00  0.00    +0.000 A 
ATOM     15  N   UNL     1      -1.750  11.881  20.311  0.00  0.00    +0.000 NA
ATOM     16  C   UNL     1      -0.741  10.994  20.374  0.00  0.00    +0.000 A 
ATOM     17  N   UNL     1      -0.025  10.729  21.506  0.00  0.00    +0.000 N 
ATOM     18  C   UNL     1       0.933   9.787  21.238  0.00  0.00    +0.000 A 
ATOM     19  C   UNL     1       0.840   9.435  19.899  0.00  0.00    +0.000 A 
ATOM     20  C   UNL     1      -0.237  10.200  19.347  0.00  0.00    +0.000 A 
ATOM     21  C   UNL     1      -0.860  10.315  18.092  0.00  0.00    +0.000 A 
ATOM     22  H   UNL     1      -0.192  11.183  22.391  0.00  0.00    +0.000 HD
ENDBRANCH   1  19
TORSDOF 1
ENDMDL
MODEL 5
REMARK VINA RESULT:      -7.6      1.558      6.846
REMARK  Name = 
REMARK  1 active torsions:
REMARK  status: ('A' for Active; 'I' for Inactive)
REMARK    1  A    between atoms: C_7  and  C_8
REMARK                            x       y       z     vdW  Elec       q    Type
REMARK                         _______ _______ _______ _____ _____    ______ ____
ROOT
ATOM      1  C   UNL     1       1.135   8.683  20.299  0.00  0.00    +0.000 A 
ATOM      2  C   UNL     1       1.420   9.296  19.103  0.00  0.00    +0.000 A 
ATOM      3  C   UNL     1       2.147   8.554  18.217  0.00  0.00    +0.000 A 
ATOM      4  N   UNL     1       2.556   7.305  18.473  0.00  0.00    +0.000 NA
ATOM      5  C   UNL     1       2.229   6.757  19.657  0.00  0.00    +0.000 A 
ATOM      6  N   UNL     1       2.644   5.473  19.914  0.00  0.00    +0.000 N 
ATOM      7  C   UNL     1       3.407   4.728  18.927  0.00  0.00    +0.000 C 
ATOM      8  C   UNL     1       2.614   3.509  18.460  0.00  0.00    +0.000 C 
ATOM      9  C   UNL     1       2.115   2.680  19.642  0.00  0.00    +0.000 C 
ATOM     10  C   UNL     1       1.348   3.544  20.643  0.00  0.00    +0.000 C 
ATOM     11  C   UNL     1       2.166   4.757  21.085  0.00  0.00    +0.000 C 
ATOM     12  N   UNL     1       1.531   7.423  20.585  0.00  0.00    +0.000 NA
ENDROOT
BRANCH   1  19
ATOM     13  C   UNL     1      -0.001  13.163  21.341  0.00  0.00    +0.000 A 
ATOM     14  C   UNL     1      -0.739  13.149  22.518  0.00  0.00    +0.000 A 
ATOM     15  N   UNL     1      -1.086  12.047  23.221  0.00  0.00    +0.000 NA
ATOM     16  C   UNL     1      -0.630  10.910  22.665  0.00  0.00    +0.000 A 
ATOM     17  N   UNL     1      -0.850   9.666  23.180  0.00  0.00    +0.000 N 
ATOM     18  C   UNL     1      -0.250   8.724  22.386  0.00  0.00    +0.000 A 
ATOM     19  C   UNL     1       0.378   9.373  21.333  0.00  0.00    +0.000 A 
ATOM     20  C   UNL     1       0.127  10.772  21.505  0.00  0.00    +0.000 A 
ATOM     21  C   UNL     1       0.445  11.952  20.810  0.00  0.00    +0.000 A 
ATOM     22  H   UNL     1      -1.370   9.496  24.027  0.00  0.00    +0.000 HD
ENDBRANCH   1  19
TORSDOF 1
ENDMDL
MODEL 6
REMARK VINA RESULT:      -7.4      1.299      2.512
REMARK  Name = 
REMARK  1 active torsions:
REMARK  status: ('A' for Active; 'I' for Inactive)
REMARK    1  A    between atoms: C_7  and  C_8
REMARK                            x       y       z     vdW  Elec       q    Type
REMARK                         _______ _______ _______ _____ _____    ______ ____
ROOT
ATOM      1  C   UNL     1       2.269   7.966  18.785  0.00  0.00    +0.000 A 
ATOM      2  C   UNL     1       2.600   8.889  17.823  0.00  0.00    +0.000 A 
ATOM      3  C   UNL     1       1.912  10.068  17.873  0.00  0.00    +0.000 A 
ATOM      4  N   UNL     1       0.980  10.331  18.797  0.00  0.00    +0.000 NA
ATOM      5  C   UNL     1       0.715   9.390  19.720  0.00  0.00    +0.000 A 
ATOM      6  N   UNL     1      -0.238   9.665  20.671  0.00  0.00    +0.000 N 
ATOM      7  C   UNL     1      -0.930  10.942  20.680  0.00  0.00    +0.000 C 
ATOM      8  C   UNL     1      -0.603  11.708  21.961  0.00  0.00    +0.000 C 
ATOM      9  C   UNL     1      -0.831  10.848  23.202  0.00  0.00    +0.000 C 
ATOM     10  C   UNL     1      -0.091   9.514  23.098  0.00  0.00    +0.000 C 
ATOM     11  C   UNL     1      -0.436   8.776  21.805  0.00  0.00    +0.000 C 
ATOM     12  N   UNL     1       1.335   8.203  19.732  0.00  0.00    +0.000 NA
ENDROOT
BRANCH   1  19
ATOM     13  C   UNL     1       5.555   5.656  16.271  0.00  0.00    +0.000 A 
ATOM     14  C   UNL     1       5.709   4.396  16.834  0.00  0.00    +0.000 A 
ATOM     15  N   UNL     1       5.053   3.929  17.921  0.00  0.00    +0.000 NA
ATOM     16  C   UNL     1       4.189   4.825  18.432  0.00  0.00    +0.000 A 
ATOM     17  N   UNL     1       3.410   4.597  19.529  0.00  0.00    +0.000 N 
ATOM     18  C   UNL     1       2.639   5.700  19.787  0.00  0.00    +0.000 A 
ATOM     19  C   UNL     1       2.921   6.666  18.832  0.00  0.00    +0.000 A 
ATOM     20  C   UNL     1       3.921   6.111  17.969  0.00  0.00    +0.000 A 
ATOM     21  C   UNL     1       4.645   6.545  16.845  0.00  0.00    +0.000 A 
ATOM     22  H   UNL     1       3.414   3.731  20.046  0.00  0.00    +0.000 HD
ENDBRANCH   1  19
TORSDOF 1
ENDMDL
MODEL 7
REMARK VINA RESULT:      -7.4      1.707      6.883
REMARK  Name = 
REMARK  1 active torsions:
REMARK  status: ('A' for Active; 'I' for Inactive)
REMARK    1  A    between atoms: C_7  and  C_8
REMARK                            x       y       z     vdW  Elec       q    Type
REMARK                         _______ _______ _______ _____ _____    ______ ____
ROOT
ATOM      1  C   UNL     1       2.006   7.265  19.833  0.00  0.00    +0.000 A 
ATOM      2  C   UNL     1       1.678   6.265  20.717  0.00  0.00    +0.000 A 
ATOM      3  C   UNL     1       2.338   5.082  20.542  0.00  0.00    +0.000 A 
ATOM      4  N   UNL     1       3.255   4.892  19.586  0.00  0.00    +0.000 NA
ATOM      5  C   UNL     1       3.541   5.917  18.764  0.00  0.00    +0.000 A 
ATOM      6  N   UNL     1       4.488   5.721  17.788  0.00  0.00    +0.000 N 
ATOM      7  C   UNL     1       5.164   4.441  17.657  0.00  0.00    +0.000 C 
ATOM      8  C   UNL     1       6.659   4.607  17.929  0.00  0.00    +0.000 C 
ATOM      9  C   UNL     1       7.257   5.737  17.093  0.00  0.00    +0.000 C 
ATOM     10  C   UNL     1       6.470   7.036  17.267  0.00  0.00    +0.000 C 
ATOM     11  C   UNL     1       4.980   6.834  16.995  0.00  0.00    +0.000 C 
ATOM     12  N   UNL     1       2.929   7.104  18.860  0.00  0.00    +0.000 NA
ENDROOT
BRANCH   1  19
ATOM     13  C   UNL     1      -0.304   9.802  23.101  0.00  0.00    +0.000 A 
ATOM     14  C   UNL     1      -0.709  10.990  22.506  0.00  0.00    +0.000 A 
ATOM     15  N   UNL     1      -0.462  11.359  21.228  0.00  0.00    +0.000 NA
ATOM     16  C   UNL     1       0.235  10.432  20.544  0.00  0.00    +0.000 A 
ATOM     17  N   UNL     1       0.612  10.568  19.240  0.00  0.00    +0.000 N 
ATOM     18  C   UNL     1       1.298   9.452  18.838  0.00  0.00    +0.000 A 
ATOM     19  C   UNL     1       1.364   8.569  19.906  0.00  0.00    +0.000 A 
ATOM     20  C   UNL     1       0.692   9.200  21.002  0.00  0.00    +0.000 A 
ATOM     21  C   UNL     1       0.417   8.879  22.343  0.00  0.00    +0.000 A 
ATOM     22  H   UNL     1       0.394  11.375  18.677  0.00  0.00    +0.000 HD
ENDBRANCH   1  19
TORSDOF 1
ENDMDL
MODEL 8
REMARK VINA RESULT:      -7.3      4.455      7.773
REMARK  Name = 
REMARK  1 active torsions:
REMARK  status: ('A' for Active; 'I' for Inactive)
REMARK    1  A    between atoms: C_7  and  C_8
REMARK                            x       y       z     vdW  Elec       q    Type
REMARK                         _______ _______ _______ _____ _____    ______ ____
ROOT
ATOM      1  C   UNL     1       4.384   4.803  17.024  0.00  0.00    +0.000 A 
ATOM      2  C   UNL     1       4.591   6.092  17.455  0.00  0.00    +0.000 A 
ATOM      3  C   UNL     1       5.569   6.783  16.801  0.00  0.00    +0.000 A 
ATOM      4  N   UNL     1       6.284   6.263  15.796  0.00  0.00    +0.000 NA
ATOM      5  C   UNL     1       6.020   5.002  15.412  0.00  0.00    +0.000 A 
ATOM      6  N   UNL     1       6.751   4.472  14.376  0.00  0.00    +0.000 N 
ATOM      7  C   UNL     1       7.774   5.261  13.710  0.00  0.00    +0.000 C 
ATOM      8  C   UNL     1       7.393   5.488  12.248  0.00  0.00    +0.000 C 
ATOM      9  C   UNL     1       7.042   4.176  11.551  0.00  0.00    +0.000 C 
ATOM     10  C   UNL     1       5.981   3.397  12.330  0.00  0.00    +0.000 C 
ATOM     11  C   UNL     1       6.390   3.193  13.789  0.00  0.00    +0.000 C 
ATOM     12  N   UNL     1       5.087   4.251  16.011  0.00  0.00    +0.000 NA
ENDROOT
BRANCH   1  19
ATOM     13  C   UNL     1       2.163   4.586  21.204  0.00  0.00    +0.000 A 
ATOM     14  C   UNL     1       1.317   3.485  21.177  0.00  0.00    +0.000 A 
ATOM     15  N   UNL     1       1.147   2.644  20.131  0.00  0.00    +0.000 NA
ATOM     16  C   UNL     1       1.906   2.973  19.070  0.00  0.00    +0.000 A 
ATOM     17  N   UNL     1       1.912   2.284  17.892  0.00  0.00    +0.000 N 
ATOM     18  C   UNL     1       2.795   2.867  17.020  0.00  0.00    +0.000 A 
ATOM     19  C   UNL     1       3.378   3.957  17.649  0.00  0.00    +0.000 A 
ATOM     20  C   UNL     1       2.802   4.032  18.959  0.00  0.00    +0.000 A 
ATOM     21  C   UNL     1       2.926   4.879  20.074  0.00  0.00    +0.000 A 
ATOM     22  H   UNL     1       1.350   1.465  17.721  0.00  0.00    +0.000 HD
ENDBRANCH   1  19
TORSDOF 1
ENDMDL
MODEL 9
REMARK VINA RESULT:      -7.2      2.224      4.331
REMARK  Name = 
REMARK  1 active torsions:
REMARK  status: ('A' for Active; 'I' for Inactive)
REMARK    1  A    between atoms: C_7  and  C_8
REMARK                            x       y       z     vdW  Elec       q    Type
REMARK                         _______ _______ _______ _____ _____    ______ ____
ROOT
ATOM      1  C   UNL     1       2.973   5.106  19.165  0.00  0.00    +0.000 A 
ATOM      2  C   UNL     1       2.481   4.436  20.260  0.00  0.00    +0.000 A 
ATOM      3  C   UNL     1       1.756   5.191  21.137  0.00  0.00    +0.000 A 
ATOM      4  N   UNL     1       1.519   6.496  20.956  0.00  0.00    +0.000 NA
ATOM      5  C   UNL     1       2.016   7.087  19.855  0.00  0.00    +0.000 A 
ATOM      6  N   UNL     1       1.766   8.425  19.668  0.00  0.00    +0.000 N 
ATOM      7  C   UNL     1       0.978   9.174  20.633  0.00  0.00    +0.000 C 
ATOM      8  C   UNL     1      -0.310   9.677  19.982  0.00  0.00    +0.000 C 
ATOM      9  C   UNL     1      -0.025  10.416  18.676  0.00  0.00    +0.000 C 
ATOM     10  C   UNL     1       0.830   9.570  17.733  0.00  0.00    +0.000 C 
ATOM     11  C   UNL     1       2.106   9.078  18.415  0.00  0.00    +0.000 C 
ATOM     12  N   UNL     1       2.748   6.421  18.954  0.00  0.00    +0.000 NA
ENDROOT
BRANCH   1  19
ATOM     13  C   UNL     1       5.566   6.312  15.387  0.00  0.00    +0.000 A 
ATOM     14  C   UNL     1       6.056   5.143  14.820  0.00  0.00    +0.000 A 
ATOM     15  N   UNL     1       5.845   3.890  15.284  0.00  0.00    +0.000 NA
ATOM     16  C   UNL     1       5.079   3.866  16.389  0.00  0.00    +0.000 A 
ATOM     17  N   UNL     1       4.725   2.726  17.051  0.00  0.00    +0.000 N 
ATOM     18  C   UNL     1       3.937   3.040  18.127  0.00  0.00    +0.000 A 
ATOM     19  C   UNL     1       3.772   4.417  18.162  0.00  0.00    +0.000 A 
ATOM     20  C   UNL     1       4.510   4.948  17.056  0.00  0.00    +0.000 A 
ATOM     21  C   UNL     1       4.776   6.226  16.534  0.00  0.00    +0.000 A 
ATOM     22  H   UNL     1       5.007   1.802  16.761  0.00  0.00    +0.000 HD
ENDBRANCH   1  19
TORSDOF 1
ENDMDL
