MODEL 1
REMARK VINA RESULT:      -8.2      0.000      0.000
REMARK  Name = 
REMARK  4 active torsions:
REMARK  status: ('A' for Active; 'I' for Inactive)
REMARK    1  A    between atoms: C_1  and  C_2
REMARK    2  A    between atoms: C_7  and  C_8
REMARK    3  A    between atoms: C_13  and  C_14
REMARK    4  A    between atoms: C_19  and  O_20
REMARK                            x       y       z     vdW  Elec       q    Type
REMARK                         _______ _______ _______ _____ _____    ______ ____
ROOT
ATOM      1  C   UNL     1      -0.764  10.777  19.993  0.00  0.00    +0.000 C 
ATOM      2  C   UNL     1       0.370   9.898  19.533  0.00  0.00    +0.000 A 
ATOM      3  C   UNL     1       1.012  10.207  18.329  0.00  0.00    +0.000 A 
ATOM      4  C   UNL     1       2.037   9.397  17.844  0.00  0.00    +0.000 A 
ATOM      5  C   UNL     1       2.444   8.248  18.529  0.00  0.00    +0.000 A 
ATOM      6  C   UNL     1       1.812   7.934  19.764  0.00  0.00    +0.000 A 
ATOM      7  C   UNL     1       0.776   8.762  20.273  0.00  0.00    +0.000 A 
ATOM      8  C   UNL     1       0.020   8.432  21.543  0.00  0.00    +0.000 C 
ATOM      9  N   UNL     1       2.181   6.801  20.520  0.00  0.00    +0.000 N 
ATOM     10  C   UNL     1       2.511   5.567  20.033  0.00  0.00    +0.000 C 
ATOM     11  O   UNL     1       2.677   4.631  20.814  0.00  0.00    +0.000 OA
ATOM     12  C   UNL     1       2.539   5.411  18.541  0.00  0.00    +0.000 C 
ATOM     13  C   UNL     1       3.629   6.274  17.965  0.00  0.00    +0.000 C 
ATOM     14  N   UNL     1       3.548   7.573  17.960  0.00  0.00    +0.000 NA
ATOM     15  H   UNL     1       2.023   6.790  21.516  0.00  0.00    +0.000 HD
ENDROOT
BRANCH  13  16
ATOM     16  C   UNL     1       4.843   5.618  17.386  0.00  0.00    +0.000 A 
ATOM     17  C   UNL     1       4.912   5.434  15.998  0.00  0.00    +0.000 A 
ATOM     18  C   UNL     1       6.044   4.853  15.418  0.00  0.00    +0.000 A 
ATOM     19  C   UNL     1       7.111   4.447  16.219  0.00  0.00    +0.000 A 
ATOM     20  C   UNL     1       7.057   4.625  17.597  0.00  0.00    +0.000 A 
ATOM     21  C   UNL     1       5.932   5.220  18.174  0.00  0.00    +0.000 A 
BRANCH  21  22
ATOM     22  O   UNL     1       5.926   5.438  19.518  0.00  0.00    +0.000 OA
ATOM     23  H   UNL     1       5.819   4.605  20.004  0.00  0.00    +0.000 HD
ENDBRANCH  21  22
ENDBRANCH  13  16
TORSDOF 2
ENDMDL
MODEL 2
REMARK VINA RESULT:      -7.9      3.121      4.899
REMARK  Name = 
REMARK  4 active torsions:
REMARK  status: ('A' for Active; 'I' for Inactive)
REMARK    1  A    between atoms: C_1  and  C_2
REMARK    2  A    between atoms: C_7  and  C_8
REMARK    3  A    between atoms: C_13  and  C_14
REMARK    4  A    between atoms: C_19  and  O_20
REMARK                            x       y       z     vdW  Elec       q    Type
REMARK                         _______ _______ _______ _____ _____    ______ ____
ROOT
ATOM      1  C   UNL     1       1.151   2.939  21.089  0.00  0.00    +0.000 C 
ATOM      2  C   UNL     1       1.945   3.164  19.828  0.00  0.00    +0.000 A 
ATOM      3  C   UNL     1       2.235   2.065  19.013  0.00  0.00    +0.000 A 
ATOM      4  C   UNL     1       3.003   2.220  17.861  0.00  0.00    +0.000 A 
ATOM      5  C   UNL     1       3.520   3.465  17.491  0.00  0.00    +0.000 A 
ATOM      6  C   UNL     1       3.217   4.593  18.301  0.00  0.00    +0.000 A 
ATOM      7  C   UNL     1       2.423   4.448  19.470  0.00  0.00    +0.000 A 
ATOM      8  C   UNL     1       2.134   5.602  20.407  0.00  0.00    +0.000 C 
ATOM      9  N   UNL     1       3.689   5.885  17.982  0.00  0.00    +0.000 N 
ATOM     10  C   UNL     1       4.920   6.203  17.480  0.00  0.00    +0.000 C 
ATOM     11  O   UNL     1       5.248   7.384  17.380  0.00  0.00    +0.000 OA
ATOM     12  C   UNL     1       5.847   5.061  17.181  0.00  0.00    +0.000 C 
ATOM     13  C   UNL     1       5.268   4.218  16.078  0.00  0.00    +0.000 C 
ATOM     14  N   UNL     1       4.209   3.483  16.256  0.00  0.00    +0.000 NA
ATOM     15  H   UNL     1       3.187   6.696  18.310  0.00  0.00    +0.000 HD
ENDROOT
BRANCH  13  16
ATOM     16  C   UNL     1       5.929   4.228  14.735  0.00  0.00    +0.000 A 
ATOM     17  C   UNL     1       5.353   3.486  13.695  0.00  0.00    +0.000 A 
ATOM     18  C   UNL     1       5.925   3.496  12.419  0.00  0.00    +0.000 A 
ATOM     19  C   UNL     1       7.076   4.242  12.174  0.00  0.00    +0.000 A 
ATOM     20  C   UNL     1       7.658   4.986  13.196  0.00  0.00    +0.000 A 
ATOM     21  C   UNL     1       7.077   4.987  14.467  0.00  0.00    +0.000 A 
BRANCH  21  22
ATOM     22  O   UNL     1       7.629   5.767  15.436  0.00  0.00    +0.000 OA
ATOM     23  H   UNL     1       8.209   6.442  15.050  0.00  0.00    +0.000 HD
ENDBRANCH  21  22
ENDBRANCH  13  16
TORSDOF 2
ENDMDL
MODEL 3
REMARK VINA RESULT:      -7.7      1.874      6.375
REMARK  Name = 
REMARK  4 active torsions:
REMARK  status: ('A' for Active; 'I' for Inactive)
REMARK    1  A    between atoms: C_1  and  C_2
REMARK    2  A    between atoms: C_7  and  C_8
REMARK    3  A    between atoms: C_13  and  C_14
REMARK    4  A    between atoms: C_19  and  O_20
REMARK                            x       y       z     vdW  Elec       q    Type
REMARK                         _______ _______ _______ _____ _____    ______ ____
ROOT
ATOM      1  C   UNL     1       5.929   3.801  15.612  0.00  0.00    +0.000 C 
ATOM      2  C   UNL     1       5.014   4.715  16.387  0.00  0.00    +0.000 A 
ATOM      3  C   UNL     1       5.258   6.092  16.355  0.00  0.00    +0.000 A 
ATOM      4  C   UNL     1       4.464   6.969  17.091  0.00  0.00    +0.000 A 
ATOM      5  C   UNL     1       3.417   6.507  17.893  0.00  0.00    +0.000 A 
ATOM      6  C   UNL     1       3.147   5.111  17.919  0.00  0.00    +0.000 A 
ATOM      7  C   UNL     1       3.942   4.210  17.161  0.00  0.00    +0.000 A 
ATOM      8  C   UNL     1       3.745   2.709  17.212  0.00  0.00    +0.000 C 
ATOM      9  N   UNL     1       2.096   4.572  18.691  0.00  0.00    +0.000 N 
ATOM     10  C   UNL     1       1.714   4.971  19.942  0.00  0.00    +0.000 C 
ATOM     11  O   UNL     1       0.870   4.320  20.555  0.00  0.00    +0.000 OA
ATOM     12  C   UNL     1       2.447   6.138  20.535  0.00  0.00    +0.000 C 
ATOM     13  C   UNL     1       2.176   7.372  19.718  0.00  0.00    +0.000 C 
ATOM     14  N   UNL     1       2.648   7.518  18.515  0.00  0.00    +0.000 NA
ATOM     15  H   UNL     1       1.680   3.692  18.426  0.00  0.00    +0.000 HD
ENDROOT
BRANCH  13  16
ATOM     16  C   UNL     1       1.333   8.460  20.306  0.00  0.00    +0.000 A 
ATOM     17  C   UNL     1       1.121   8.474  21.691  0.00  0.00    +0.000 A 
ATOM     18  C   UNL     1       0.364   9.492  22.280  0.00  0.00    +0.000 A 
ATOM     19  C   UNL     1      -0.188  10.499  21.491  0.00  0.00    +0.000 A 
ATOM     20  C   UNL     1       0.015  10.499  20.115  0.00  0.00    +0.000 A 
ATOM     21  C   UNL     1       0.784   9.490  19.529  0.00  0.00    +0.000 A 
BRANCH  21  22
ATOM     22  O   UNL     1       1.019   9.542  18.190  0.00  0.00    +0.000 OA
ATOM     23  H   UNL     1       1.706   8.907  17.932  0.00  0.00    +0.000 HD
ENDBRANCH  21  22
ENDBRANCH  13  16
TORSDOF 2
ENDMDL
MODEL 4
REMARK VINA RESULT:      -7.5      1.088      1.271
REMARK  Name = 
REMARK  4 active torsions:
REMARK  status: ('A' for Active; 'I' for Inactive)
REMARK    1  A    between atoms: C_1  and  C_2
REMARK    2  A    between atoms: C_7  and  C_8
REMARK    3  A    between atoms: C_13  and  C_14
REMARK    4  A    between atoms: C_19  and  O_20
REMARK                            x       y       z     vdW  Elec       q    Type
REMARK                         _______ _______ _______ _____ _____    ______ ____
ROOT
ATOM      1  C   UNL     1      -0.774  10.885  20.204  0.00  0.00    +0.000 C 
ATOM      2  C   UNL     1       0.317  10.000  19.657  0.00  0.00    +0.000 A 
ATOM      3  C   UNL     1       0.857  10.300  18.401  0.00  0.00    +0.000 A 
ATOM      4  C   UNL     1       1.836   9.484  17.838  0.00  0.00    +0.000 A 
ATOM      5  C   UNL     1       2.297   8.339  18.494  0.00  0.00    +0.000 A 
ATOM      6  C   UNL     1       1.769   8.035  19.779  0.00  0.00    +0.000 A 
ATOM      7  C   UNL     1       0.781   8.868  20.368  0.00  0.00    +0.000 A 
ATOM      8  C   UNL     1       0.132   8.548  21.698  0.00  0.00    +0.000 C 
ATOM      9  N   UNL     1       2.198   6.905  20.510  0.00  0.00    +0.000 N 
ATOM     10  C   UNL     1       2.483   5.667  20.005  0.00  0.00    +0.000 C 
ATOM     11  O   UNL     1       2.712   4.736  20.776  0.00  0.00    +0.000 OA
ATOM     12  C   UNL     1       2.387   5.502  18.517  0.00  0.00    +0.000 C 
ATOM     13  C   UNL     1       3.427   6.358  17.847  0.00  0.00    +0.000 C 
ATOM     14  N   UNL     1       3.348   7.657  17.840  0.00  0.00    +0.000 NA
ATOM     15  H   UNL     1       2.123   6.901  21.515  0.00  0.00    +0.000 HD
ENDROOT
BRANCH  13  16
ATOM     16  C   UNL     1       4.587   5.696  17.172  0.00  0.00    +0.000 A 
ATOM     17  C   UNL     1       5.806   6.384  17.099  0.00  0.00    +0.000 A 
ATOM     18  C   UNL     1       6.921   5.785  16.504  0.00  0.00    +0.000 A 
ATOM     19  C   UNL     1       6.825   4.499  15.975  0.00  0.00    +0.000 A 
ATOM     20  C   UNL     1       5.622   3.803  16.042  0.00  0.00    +0.000 A 
ATOM     21  C   UNL     1       4.513   4.397  16.651  0.00  0.00    +0.000 A 
BRANCH  21  22
ATOM     22  O   UNL     1       3.364   3.676  16.758  0.00  0.00    +0.000 OA
ATOM     23  H   UNL     1       2.839   3.970  17.519  0.00  0.00    +0.000 HD
ENDBRANCH  21  22
ENDBRANCH  13  16
TORSDOF 2
ENDMDL
MODEL 5
REMARK VINA RESULT:      -7.3      2.230      3.176
REMARK  Name = 
REMARK  4 active torsions:
REMARK  status: ('A' for Active; 'I' for Inactive)
REMARK    1  A    between atoms: C_1  and  C_2
REMARK    2  A    between atoms: C_7  and  C_8
REMARK    3  A    between atoms: C_13  and  C_14
REMARK    4  A    between atoms: C_19  and  O_20
REMARK                            x       y       z     vdW  Elec       q    Type
REMARK                         _______ _______ _______ _____ _____    ______ ____
ROOT
ATOM      1  C   UNL     1       1.078   7.593  21.093  0.00  0.00    +0.000 C 
ATOM      2  C   UNL     1       1.998   7.109  20.002  0.00  0.00    +0.000 A 
ATOM      3  C   UNL     1       2.292   7.971  18.941  0.00  0.00    +0.000 A 
ATOM      4  C   UNL     1       3.103   7.550  17.889  0.00  0.00    +0.000 A 
ATOM      5  C   UNL     1       3.633   6.257  17.850  0.00  0.00    +0.000 A 
ATOM      6  C   UNL     1       3.357   5.378  18.933  0.00  0.00    +0.000 A 
ATOM      7  C   UNL     1       2.543   5.803  20.016  0.00  0.00    +0.000 A 
ATOM      8  C   UNL     1       2.157   4.882  21.155  0.00  0.00    +0.000 C 
ATOM      9  N   UNL     1       3.871   4.064  18.971  0.00  0.00    +0.000 N 
ATOM     10  C   UNL     1       3.995   3.204  17.915  0.00  0.00    +0.000 C 
ATOM     11  O   UNL     1       4.330   2.039  18.118  0.00  0.00    +0.000 OA
ATOM     12  C   UNL     1       3.599   3.727  16.565  0.00  0.00    +0.000 C 
ATOM     13  C   UNL     1       4.523   4.845  16.167  0.00  0.00    +0.000 C 
ATOM     14  N   UNL     1       4.503   6.000  16.765  0.00  0.00    +0.000 NA
ATOM     15  H   UNL     1       3.996   3.601  19.858  0.00  0.00    +0.000 HD
ENDROOT
BRANCH  13  16
ATOM     16  C   UNL     1       5.496   4.620  15.052  0.00  0.00    +0.000 A 
ATOM     17  C   UNL     1       5.075   3.901  13.925  0.00  0.00    +0.000 A 
ATOM     18  C   UNL     1       5.947   3.696  12.851  0.00  0.00    +0.000 A 
ATOM     19  C   UNL     1       7.245   4.204  12.897  0.00  0.00    +0.000 A 
ATOM     20  C   UNL     1       7.676   4.921  14.008  0.00  0.00    +0.000 A 
ATOM     21  C   UNL     1       6.799   5.137  15.074  0.00  0.00    +0.000 A 
BRANCH  21  22
ATOM     22  O   UNL     1       7.223   5.891  16.125  0.00  0.00    +0.000 OA
ATOM     23  H   UNL     1       6.534   6.515  16.406  0.00  0.00    +0.000 HD
ENDBRANCH  21  22
ENDBRANCH  13  16
TORSDOF 2
ENDMDL
MODEL 6
REMARK VINA RESULT:      -7.2      3.182      7.176
REMARK  Name = 
REMARK  4 active torsions:
REMARK  status: ('A' for Active; 'I' for Inactive)
REMARK    1  A    between atoms: C_1  and  C_2
REMARK    2  A    between atoms: C_7  and  C_8
REMARK    3  A    between atoms: C_13  and  C_14
REMARK    4  A    between atoms: C_19  and  O_20
REMARK                            x       y       z     vdW  Elec       q    Type
REMARK                         _______ _______ _______ _____ _____    ______ ____
ROOT
ATOM      1  C   UNL     1       7.456   4.233  11.187  0.00  0.00    +0.000 C 
ATOM      2  C   UNL     1       6.824   4.249  12.556  0.00  0.00    +0.000 A 
ATOM      3  C   UNL     1       5.623   3.557  12.748  0.00  0.00    +0.000 A 
ATOM      4  C   UNL     1       4.982   3.581  13.984  0.00  0.00    +0.000 A 
ATOM      5  C   UNL     1       5.502   4.305  15.062  0.00  0.00    +0.000 A 
ATOM      6  C   UNL     1       6.732   4.996  14.884  0.00  0.00    +0.000 A 
ATOM      7  C   UNL     1       7.400   4.966  13.631  0.00  0.00    +0.000 A 
ATOM      8  C   UNL     1       8.671   5.746  13.367  0.00  0.00    +0.000 C 
ATOM      9  N   UNL     1       7.327   5.734  15.930  0.00  0.00    +0.000 N 
ATOM     10  C   UNL     1       6.681   6.509  16.853  0.00  0.00    +0.000 C 
ATOM     11  O   UNL     1       7.337   7.207  17.624  0.00  0.00    +0.000 OA
ATOM     12  C   UNL     1       5.182   6.536  16.786  0.00  0.00    +0.000 C 
ATOM     13  C   UNL     1       4.639   5.168  17.094  0.00  0.00    +0.000 C 
ATOM     14  N   UNL     1       4.788   4.168  16.275  0.00  0.00    +0.000 NA
ATOM     15  H   UNL     1       8.323   5.889  15.929  0.00  0.00    +0.000 HD
ENDROOT
BRANCH  13  16
ATOM     16  C   UNL     1       3.909   4.951  18.382  0.00  0.00    +0.000 A 
ATOM     17  C   UNL     1       2.856   5.814  18.714  0.00  0.00    +0.000 A 
ATOM     18  C   UNL     1       2.132   5.624  19.895  0.00  0.00    +0.000 A 
ATOM     19  C   UNL     1       2.456   4.574  20.753  0.00  0.00    +0.000 A 
ATOM     20  C   UNL     1       3.497   3.708  20.436  0.00  0.00    +0.000 A 
ATOM     21  C   UNL     1       4.210   3.890  19.248  0.00  0.00    +0.000 A 
BRANCH  21  22
ATOM     22  O   UNL     1       5.186   2.996  18.929  0.00  0.00    +0.000 OA
ATOM     23  H   UNL     1       4.831   2.095  18.887  0.00  0.00    +0.000 HD
ENDBRANCH  21  22
ENDBRANCH  13  16
TORSDOF 2
ENDMDL
MODEL 7
REMARK VINA RESULT:      -7.0      2.446      7.130
REMARK  Name = 
REMARK  4 active torsions:
REMARK  status: ('A' for Active; 'I' for Inactive)
REMARK    1  A    between atoms: C_1  and  C_2
REMARK    2  A    between atoms: C_7  and  C_8
REMARK    3  A    between atoms: C_13  and  C_14
REMARK    4  A    between atoms: C_19  and  O_20
REMARK                            x       y       z     vdW  Elec       q    Type
REMARK                         _______ _______ _______ _____ _____    ______ ____
ROOT
ATOM      1  C   UNL     1       3.689   3.340  18.312  0.00  0.00    +0.000 C 
ATOM      2  C   UNL     1       3.123   4.592  18.933  0.00  0.00    +0.000 A 
ATOM      3  C   UNL     1       2.364   4.476  20.102  0.00  0.00    +0.000 A 
ATOM      4  C   UNL     1       1.786   5.601  20.686  0.00  0.00    +0.000 A 
ATOM      5  C   UNL     1       1.928   6.872  20.119  0.00  0.00    +0.000 A 
ATOM      6  C   UNL     1       2.714   7.004  18.941  0.00  0.00    +0.000 A 
ATOM      7  C   UNL     1       3.319   5.865  18.347  0.00  0.00    +0.000 A 
ATOM      8  C   UNL     1       4.101   5.940  17.052  0.00  0.00    +0.000 C 
ATOM      9  N   UNL     1       2.917   8.256  18.322  0.00  0.00    +0.000 N 
ATOM     10  C   UNL     1       1.995   9.255  18.178  0.00  0.00    +0.000 C 
ATOM     11  O   UNL     1       2.269  10.239  17.493  0.00  0.00    +0.000 OA
ATOM     12  C   UNL     1       0.644   9.025  18.789  0.00  0.00    +0.000 C 
ATOM     13  C   UNL     1       0.776   8.936  20.285  0.00  0.00    +0.000 C 
ATOM     14  N   UNL     1       1.357   7.927  20.866  0.00  0.00    +0.000 NA
ATOM     15  H   UNL     1       3.736   8.407  17.753  0.00  0.00    +0.000 HD
ENDROOT
BRANCH  13  16
ATOM     16  C   UNL     1       0.228  10.045  21.129  0.00  0.00    +0.000 A 
ATOM     17  C   UNL     1       0.443  11.369  20.723  0.00  0.00    +0.000 A 
ATOM     18  C   UNL     1      -0.080  12.430  21.470  0.00  0.00    +0.000 A 
ATOM     19  C   UNL     1      -0.816  12.176  22.625  0.00  0.00    +0.000 A 
ATOM     20  C   UNL     1      -1.040  10.867  23.039  0.00  0.00    +0.000 A 
ATOM     21  C   UNL     1      -0.529   9.807  22.284  0.00  0.00    +0.000 A 
BRANCH  21  22
ATOM     22  O   UNL     1      -0.809   8.533  22.674  0.00  0.00    +0.000 OA
ATOM     23  H   UNL     1      -0.077   7.935  22.459  0.00  0.00    +0.000 HD
ENDBRANCH  21  22
ENDBRANCH  13  16
TORSDOF 2
ENDMDL
MODEL 8
REMARK VINA RESULT:      -6.8      1.729      6.242
REMARK  Name = 
REMARK  4 active torsions:
REMARK  status: ('A' for Active; 'I' for Inactive)
REMARK    1  A    between atoms: C_1  and  C_2
REMARK    2  A    between atoms: C_7  and  C_8
REMARK    3  A    between atoms: C_13  and  C_14
REMARK    4  A    between atoms: C_19  and  O_20
REMARK                            x       y       z     vdW  Elec       q    Type
REMARK                         _______ _______ _______ _____ _____    ______ ____
ROOT
ATOM      1  C   UNL     1       6.116   3.717  15.693  0.00  0.00    +0.000 C 
ATOM      2  C   UNL     1       5.164   4.700  16.325  0.00  0.00    +0.000 A 
ATOM      3  C   UNL     1       5.368   6.066  16.106  0.00  0.00    +0.000 A 
ATOM      4  C   UNL     1       4.539   7.012  16.705  0.00  0.00    +0.000 A 
ATOM      5  C   UNL     1       3.494   6.632  17.553  0.00  0.00    +0.000 A 
ATOM      6  C   UNL     1       3.265   5.246  17.769  0.00  0.00    +0.000 A 
ATOM      7  C   UNL     1       4.096   4.274  17.151  0.00  0.00    +0.000 A 
ATOM      8  C   UNL     1       3.943   2.789  17.406  0.00  0.00    +0.000 C 
ATOM      9  N   UNL     1       2.219   4.786  18.597  0.00  0.00    +0.000 N 
ATOM     10  C   UNL     1       1.808   5.342  19.777  0.00  0.00    +0.000 C 
ATOM     11  O   UNL     1       0.975   4.756  20.466  0.00  0.00    +0.000 OA
ATOM     12  C   UNL     1       2.498   6.602  20.211  0.00  0.00    +0.000 C 
ATOM     13  C   UNL     1       2.203   7.702  19.229  0.00  0.00    +0.000 C 
ATOM     14  N   UNL     1       2.688   7.696  18.021  0.00  0.00    +0.000 NA
ATOM     15  H   UNL     1       1.832   3.866  18.452  0.00  0.00    +0.000 HD
ENDROOT
BRANCH  13  16
ATOM     16  C   UNL     1       1.320   8.835  19.652  0.00  0.00    +0.000 A 
ATOM     17  C   UNL     1       0.666   9.584  18.665  0.00  0.00    +0.000 A 
ATOM     18  C   UNL     1      -0.190  10.630  19.024  0.00  0.00    +0.000 A 
ATOM     19  C   UNL     1      -0.394  10.937  20.368  0.00  0.00    +0.000 A 
ATOM     20  C   UNL     1       0.246  10.200  21.359  0.00  0.00    +0.000 A 
ATOM     21  C   UNL     1       1.090   9.146  21.000  0.00  0.00    +0.000 A 
BRANCH  21  22
ATOM     22  O   UNL     1       1.660   8.401  21.986  0.00  0.00    +0.000 OA
ATOM     23  H   UNL     1       1.722   7.468  21.726  0.00  0.00    +0.000 HD
ENDBRANCH  21  22
ENDBRANCH  13  16
TORSDOF 2
ENDMDL
MODEL 9
REMARK VINA RESULT:      -6.6      3.603      7.311
REMARK  Name = 
REMARK  4 active torsions:
REMARK  status: ('A' for Active; 'I' for Inactive)
REMARK    1  A    between atoms: C_1  and  C_2
REMARK    2  A    between atoms: C_7  and  C_8
REMARK    3  A    between atoms: C_13  and  C_14
REMARK    4  A    between atoms: C_19  and  O_20
REMARK                            x       y       z     vdW  Elec       q    Type
REMARK                         _______ _______ _______ _____ _____    ______ ____
ROOT
ATOM      1  C   UNL     1       7.613   4.303  11.117  0.00  0.00    +0.000 C 
ATOM      2  C   UNL     1       6.887   4.276  12.438  0.00  0.00    +0.000 A 
ATOM      3  C   UNL     1       5.691   3.557  12.531  0.00  0.00    +0.000 A 
ATOM      4  C   UNL     1       4.965   3.541  13.719  0.00  0.00    +0.000 A 
ATOM      5  C   UNL     1       5.393   4.250  14.846  0.00  0.00    +0.000 A 
ATOM      6  C   UNL     1       6.618   4.969  14.769  0.00  0.00    +0.000 A 
ATOM      7  C   UNL     1       7.372   4.980  13.566  0.00  0.00    +0.000 A 
ATOM      8  C   UNL     1       8.642   5.790  13.408  0.00  0.00    +0.000 C 
ATOM      9  N   UNL     1       7.123   5.694  15.870  0.00  0.00    +0.000 N 
ATOM     10  C   UNL     1       6.398   6.436  16.761  0.00  0.00    +0.000 C 
ATOM     11  O   UNL     1       6.984   7.129  17.590  0.00  0.00    +0.000 OA
ATOM     12  C   UNL     1       4.907   6.436  16.589  0.00  0.00    +0.000 C 
ATOM     13  C   UNL     1       4.372   5.051  16.829  0.00  0.00    +0.000 C 
ATOM     14  N   UNL     1       4.599   4.073  16.002  0.00  0.00    +0.000 NA
ATOM     15  H   UNL     1       8.113   5.869  15.942  0.00  0.00    +0.000 HD
ENDROOT
BRANCH  13  16
ATOM     16  C   UNL     1       3.558   4.791  18.058  0.00  0.00    +0.000 A 
ATOM     17  C   UNL     1       3.839   5.524  19.219  0.00  0.00    +0.000 A 
ATOM     18  C   UNL     1       3.081   5.329  20.378  0.00  0.00    +0.000 A 
ATOM     19  C   UNL     1       2.042   4.401  20.386  0.00  0.00    +0.000 A 
ATOM     20  C   UNL     1       1.750   3.668  19.241  0.00  0.00    +0.000 A 
ATOM     21  C   UNL     1       2.499   3.873  18.079  0.00  0.00    +0.000 A 
BRANCH  21  22
ATOM     22  O   UNL     1       2.159   3.188  16.954  0.00  0.00    +0.000 OA
ATOM     23  H   UNL     1       1.277   3.446  16.642  0.00  0.00    +0.000 HD
ENDBRANCH  21  22
ENDBRANCH  13  16
TORSDOF 2
ENDMDL
