MODEL 1
REMARK VINA RESULT:      -6.5      0.000      0.000
REMARK  Name = 
REMARK  9 active torsions:
REMARK  status: ('A' for Active; 'I' for Inactive)
REMARK    1  A    between atoms: C_1  and  O_2
REMARK    2  A    between atoms: O_2  and  C_3
REMARK    3  A    between atoms: C_6  and  N_7
REMARK    4  A    between atoms: C_8  and  O_10
REMARK    5  A    between atoms: O_10  and  C_11
REMARK    6  A    between atoms: C_11  and  C_12
REMARK    7  A    between atoms: C_11  and  C_13
REMARK    8  A    between atoms: C_15  and  O_16
REMARK    9  A    between atoms: O_16  and  C_17
REMARK                            x       y       z     vdW  Elec       q    Type
REMARK                         _______ _______ _______ _____ _____    ______ ____
ROOT
ATOM      1  C   UNL     1       6.907   5.031  15.227  0.00  0.00    +0.000 A 
ATOM      2  C   UNL     1       6.026   3.947  15.230  0.00  0.00    +0.000 A 
ATOM      3  C   UNL     1       5.092   3.788  16.248  0.00  0.00    +0.000 A 
ATOM      4  C   UNL     1       5.032   4.683  17.312  0.00  0.00    +0.000 A 
ATOM      5  C   UNL     1       5.993   5.698  17.375  0.00  0.00    +0.000 A 
ATOM      6  C   UNL     1       6.938   5.881  16.344  0.00  0.00    +0.000 A 
ENDROOT
BRANCH   4   7
ATOM      7  N   UNL     1       4.042   4.609  18.318  0.00  0.00    +0.000 N 
ATOM      8  C   UNL     1       4.058   3.762  19.400  0.00  0.00    +0.000 C 
ATOM      9  O   UNL     1       4.925   2.942  19.672  0.00  0.00    +0.000 OA
ATOM     10  H   UNL     1       3.208   5.171  18.223  0.00  0.00    +0.000 HD
BRANCH   8  11
ATOM     11  O   UNL     1       2.943   3.943  20.164  0.00  0.00    +0.000 OA
BRANCH  11  12
ATOM     12  C   UNL     1       2.124   2.759  20.270  0.00  0.00    +0.000 C 
ATOM     13  C   UNL     1       1.617   2.612  21.703  0.00  0.00    +0.000 C 
ATOM     14  C   UNL     1       0.963   2.865  19.294  0.00  0.00    +0.000 C 
ENDBRANCH  11  12
ENDBRANCH   8  11
ENDBRANCH   4   7
BRANCH   1  16
ATOM     15  C   UNL     1       7.249   4.762  12.906  0.00  0.00    +0.000 C 
ATOM     16  O   UNL     1       7.736   5.249  14.159  0.00  0.00    +0.000 OA
ENDBRANCH   1  16
BRANCH   6  17
ATOM     17  O   UNL     1       7.777   6.938  16.589  0.00  0.00    +0.000 OA
ATOM     18  C   UNL     1       7.563   7.733  17.747  0.00  0.00    +0.000 C 
ENDBRANCH   6  17
TORSDOF 5
ENDMDL
MODEL 2
REMARK VINA RESULT:      -6.3      1.051      2.768
REMARK  Name = 
REMARK  9 active torsions:
REMARK  status: ('A' for Active; 'I' for Inactive)
REMARK    1  A    between atoms: C_1  and  O_2
REMARK    2  A    between atoms: O_2  and  C_3
REMARK    3  A    between atoms: C_6  and  N_7
REMARK    4  A    between atoms: C_8  and  O_10
REMARK    5  A    between atoms: O_10  and  C_11
REMARK    6  A    between atoms: C_11  and  C_12
REMARK    7  A    between atoms: C_11  and  C_13
REMARK    8  A    between atoms: C_15  and  O_16
REMARK    9  A    between atoms: O_16  and  C_17
REMARK                            x       y       z     vdW  Elec       q    Type
REMARK                         _______ _______ _______ _____ _____    ______ ____
ROOT
ATOM      1  C   UNL     1       6.725   6.469  16.962  0.00  0.00    +0.000 A 
ATOM      2  C   UNL     1       5.739   6.869  17.868  0.00  0.00    +0.000 A 
ATOM      3  C   UNL     1       4.752   5.983  18.288  0.00  0.00    +0.000 A 
ATOM      4  C   UNL     1       4.697   4.684  17.792  0.00  0.00    +0.000 A 
ATOM      5  C   UNL     1       5.607   4.320  16.795  0.00  0.00    +0.000 A 
ATOM      6  C   UNL     1       6.623   5.202  16.367  0.00  0.00    +0.000 A 
ENDROOT
BRANCH   4   7
ATOM      7  N   UNL     1       3.769   3.727  18.259  0.00  0.00    +0.000 N 
ATOM      8  C   UNL     1       3.995   2.808  19.257  0.00  0.00    +0.000 C 
ATOM      9  O   UNL     1       5.026   2.670  19.902  0.00  0.00    +0.000 OA
ATOM     10  H   UNL     1       2.876   3.646  17.794  0.00  0.00    +0.000 HD
BRANCH   8  11
ATOM     11  O   UNL     1       2.892   2.029  19.447  0.00  0.00    +0.000 OA
BRANCH  11  12
ATOM     12  C   UNL     1       1.691   2.790  19.698  0.00  0.00    +0.000 C 
ATOM     13  C   UNL     1       0.548   2.242  18.847  0.00  0.00    +0.000 C 
ATOM     14  C   UNL     1       1.349   2.711  21.178  0.00  0.00    +0.000 C 
ENDBRANCH  11  12
ENDBRANCH   8  11
ENDBRANCH   4   7
BRANCH   1  16
ATOM     15  C   UNL     1       7.999   8.353  17.597  0.00  0.00    +0.000 C 
ATOM     16  O   UNL     1       7.762   7.306  16.652  0.00  0.00    +0.000 OA
ENDBRANCH   1  16
BRANCH   6  17
ATOM     17  O   UNL     1       7.418   4.648  15.398  0.00  0.00    +0.000 OA
ATOM     18  C   UNL     1       6.876   4.430  14.103  0.00  0.00    +0.000 C 
ENDBRANCH   6  17
TORSDOF 5
ENDMDL
MODEL 3
REMARK VINA RESULT:      -6.3      0.816      1.013
REMARK  Name = 
REMARK  9 active torsions:
REMARK  status: ('A' for Active; 'I' for Inactive)
REMARK    1  A    between atoms: C_1  and  O_2
REMARK    2  A    between atoms: O_2  and  C_3
REMARK    3  A    between atoms: C_6  and  N_7
REMARK    4  A    between atoms: C_8  and  O_10
REMARK    5  A    between atoms: O_10  and  C_11
REMARK    6  A    between atoms: C_11  and  C_12
REMARK    7  A    between atoms: C_11  and  C_13
REMARK    8  A    between atoms: C_15  and  O_16
REMARK    9  A    between atoms: O_16  and  C_17
REMARK                            x       y       z     vdW  Elec       q    Type
REMARK                         _______ _______ _______ _____ _____    ______ ____
ROOT
ATOM      1  C   UNL     1       6.826   5.147  15.532  0.00  0.00    +0.000 A 
ATOM      2  C   UNL     1       6.144   3.931  15.446  0.00  0.00    +0.000 A 
ATOM      3  C   UNL     1       5.214   3.563  16.413  0.00  0.00    +0.000 A 
ATOM      4  C   UNL     1       4.962   4.378  17.513  0.00  0.00    +0.000 A 
ATOM      5  C   UNL     1       5.731   5.536  17.665  0.00  0.00    +0.000 A 
ATOM      6  C   UNL     1       6.669   5.931  16.687  0.00  0.00    +0.000 A 
ENDROOT
BRANCH   4   7
ATOM      7  N   UNL     1       3.963   4.085  18.467  0.00  0.00    +0.000 N 
ATOM      8  C   UNL     1       4.101   3.233  19.538  0.00  0.00    +0.000 C 
ATOM      9  O   UNL     1       5.101   2.597  19.841  0.00  0.00    +0.000 OA
ATOM     10  H   UNL     1       3.039   4.470  18.341  0.00  0.00    +0.000 HD
BRANCH   8  11
ATOM     11  O   UNL     1       2.939   3.170  20.249  0.00  0.00    +0.000 OA
BRANCH  11  12
ATOM     12  C   UNL     1       1.805   3.718  19.542  0.00  0.00    +0.000 C 
ATOM     13  C   UNL     1       0.925   2.582  19.026  0.00  0.00    +0.000 C 
ATOM     14  C   UNL     1       1.023   4.624  20.480  0.00  0.00    +0.000 C 
ENDBRANCH  11  12
ENDBRANCH   8  11
ENDBRANCH   4   7
BRANCH   1  16
ATOM     15  C   UNL     1       7.409   4.921  13.255  0.00  0.00    +0.000 C 
ATOM     16  O   UNL     1       7.643   5.558  14.514  0.00  0.00    +0.000 OA
ENDBRANCH   1  16
BRANCH   6  17
ATOM     17  O   UNL     1       7.303   7.100  17.017  0.00  0.00    +0.000 OA
ATOM     18  C   UNL     1       7.969   7.193  18.269  0.00  0.00    +0.000 C 
ENDBRANCH   6  17
TORSDOF 5
ENDMDL
MODEL 4
REMARK VINA RESULT:      -6.2      1.034      1.225
REMARK  Name = 
REMARK  9 active torsions:
REMARK  status: ('A' for Active; 'I' for Inactive)
REMARK    1  A    between atoms: C_1  and  O_2
REMARK    2  A    between atoms: O_2  and  C_3
REMARK    3  A    between atoms: C_6  and  N_7
REMARK    4  A    between atoms: C_8  and  O_10
REMARK    5  A    between atoms: O_10  and  C_11
REMARK    6  A    between atoms: C_11  and  C_12
REMARK    7  A    between atoms: C_11  and  C_13
REMARK    8  A    between atoms: C_15  and  O_16
REMARK    9  A    between atoms: O_16  and  C_17
REMARK                            x       y       z     vdW  Elec       q    Type
REMARK                         _______ _______ _______ _____ _____    ______ ____
ROOT
ATOM      1  C   UNL     1       6.464   5.082  15.312  0.00  0.00    +0.000 A 
ATOM      2  C   UNL     1       5.498   4.076  15.396  0.00  0.00    +0.000 A 
ATOM      3  C   UNL     1       4.780   3.872  16.570  0.00  0.00    +0.000 A 
ATOM      4  C   UNL     1       5.027   4.639  17.705  0.00  0.00    +0.000 A 
ATOM      5  C   UNL     1       6.076   5.562  17.660  0.00  0.00    +0.000 A 
ATOM      6  C   UNL     1       6.806   5.791  16.474  0.00  0.00    +0.000 A 
ENDROOT
BRANCH   4   7
ATOM      7  N   UNL     1       4.260   4.525  18.886  0.00  0.00    +0.000 N 
ATOM      8  C   UNL     1       3.189   5.316  19.228  0.00  0.00    +0.000 C 
ATOM      9  O   UNL     1       2.725   6.239  18.572  0.00  0.00    +0.000 OA
ATOM     10  H   UNL     1       4.540   3.854  19.586  0.00  0.00    +0.000 HD
BRANCH   8  11
ATOM     11  O   UNL     1       2.688   4.942  20.439  0.00  0.00    +0.000 OA
BRANCH  11  12
ATOM     12  C   UNL     1       2.212   3.579  20.466  0.00  0.00    +0.000 C 
ATOM     13  C   UNL     1       2.158   3.082  21.908  0.00  0.00    +0.000 C 
ATOM     14  C   UNL     1       0.836   3.519  19.821  0.00  0.00    +0.000 C 
ENDBRANCH  11  12
ENDBRANCH   8  11
ENDBRANCH   4   7
BRANCH   1  16
ATOM     15  C   UNL     1       6.897   4.368  13.103  0.00  0.00    +0.000 C 
ATOM     16  O   UNL     1       7.075   5.359  14.119  0.00  0.00    +0.000 OA
ENDBRANCH   1  16
BRANCH   6  17
ATOM     17  O   UNL     1       7.777   6.745  16.637  0.00  0.00    +0.000 OA
ATOM     18  C   UNL     1       7.598   7.749  17.627  0.00  0.00    +0.000 C 
ENDBRANCH   6  17
TORSDOF 5
ENDMDL
MODEL 5
REMARK VINA RESULT:      -6.2      1.013      1.205
REMARK  Name = 
REMARK  9 active torsions:
REMARK  status: ('A' for Active; 'I' for Inactive)
REMARK    1  A    between atoms: C_1  and  O_2
REMARK    2  A    between atoms: O_2  and  C_3
REMARK    3  A    between atoms: C_6  and  N_7
REMARK    4  A    between atoms: C_8  and  O_10
REMARK    5  A    between atoms: O_10  and  C_11
REMARK    6  A    between atoms: C_11  and  C_12
REMARK    7  A    between atoms: C_11  and  C_13
REMARK    8  A    between atoms: C_15  and  O_16
REMARK    9  A    between atoms: O_16  and  C_17
REMARK                            x       y       z     vdW  Elec       q    Type
REMARK                         _______ _______ _______ _____ _____    ______ ____
ROOT
ATOM      1  C   UNL     1       6.927   5.132  15.158  0.00  0.00    +0.000 A 
ATOM      2  C   UNL     1       6.028   4.089  14.922  0.00  0.00    +0.000 A 
ATOM      3  C   UNL     1       4.960   3.857  15.782  0.00  0.00    +0.000 A 
ATOM      4  C   UNL     1       4.777   4.633  16.924  0.00  0.00    +0.000 A 
ATOM      5  C   UNL     1       5.744   5.596  17.228  0.00  0.00    +0.000 A 
ATOM      6  C   UNL     1       6.825   5.854  16.358  0.00  0.00    +0.000 A 
ENDROOT
BRANCH   4   7
ATOM      7  N   UNL     1       3.658   4.489  17.773  0.00  0.00    +0.000 N 
ATOM      8  C   UNL     1       3.369   3.386  18.542  0.00  0.00    +0.000 C 
ATOM      9  O   UNL     1       4.029   2.358  18.620  0.00  0.00    +0.000 OA
ATOM     10  H   UNL     1       2.959   5.218  17.788  0.00  0.00    +0.000 HD
BRANCH   8  11
ATOM     11  O   UNL     1       2.208   3.575  19.231  0.00  0.00    +0.000 OA
BRANCH  11  12
ATOM     12  C   UNL     1       2.411   4.100  20.560  0.00  0.00    +0.000 C 
ATOM     13  C   UNL     1       1.709   5.449  20.692  0.00  0.00    +0.000 C 
ATOM     14  C   UNL     1       1.870   3.107  21.577  0.00  0.00    +0.000 C 
ENDBRANCH  11  12
ENDBRANCH   8  11
ENDBRANCH   4   7
BRANCH   1  16
ATOM     15  C   UNL     1       7.609   5.029  12.900  0.00  0.00    +0.000 C 
ATOM     16  O   UNL     1       7.898   5.432  14.242  0.00  0.00    +0.000 OA
ENDBRANCH   1  16
BRANCH   6  17
ATOM     17  O   UNL     1       7.647   6.844  16.830  0.00  0.00    +0.000 OA
ATOM     18  C   UNL     1       7.840   6.970  18.232  0.00  0.00    +0.000 C 
ENDBRANCH   6  17
TORSDOF 5
ENDMDL
MODEL 6
REMARK VINA RESULT:      -6.0      1.151      1.498
REMARK  Name = 
REMARK  9 active torsions:
REMARK  status: ('A' for Active; 'I' for Inactive)
REMARK    1  A    between atoms: C_1  and  O_2
REMARK    2  A    between atoms: O_2  and  C_3
REMARK    3  A    between atoms: C_6  and  N_7
REMARK    4  A    between atoms: C_8  and  O_10
REMARK    5  A    between atoms: O_10  and  C_11
REMARK    6  A    between atoms: C_11  and  C_12
REMARK    7  A    between atoms: C_11  and  C_13
REMARK    8  A    between atoms: C_15  and  O_16
REMARK    9  A    between atoms: O_16  and  C_17
REMARK                            x       y       z     vdW  Elec       q    Type
REMARK                         _______ _______ _______ _____ _____    ______ ____
ROOT
ATOM      1  C   UNL     1       7.163   5.063  14.703  0.00  0.00    +0.000 A 
ATOM      2  C   UNL     1       6.439   3.891  14.476  0.00  0.00    +0.000 A 
ATOM      3  C   UNL     1       5.610   3.361  15.460  0.00  0.00    +0.000 A 
ATOM      4  C   UNL     1       5.508   3.962  16.711  0.00  0.00    +0.000 A 
ATOM      5  C   UNL     1       6.325   5.063  16.982  0.00  0.00    +0.000 A 
ATOM      6  C   UNL     1       7.160   5.622  15.992  0.00  0.00    +0.000 A 
ENDROOT
BRANCH   4   7
ATOM      7  N   UNL     1       4.612   3.507  17.705  0.00  0.00    +0.000 N 
ATOM      8  C   UNL     1       3.474   4.158  18.118  0.00  0.00    +0.000 C 
ATOM      9  O   UNL     1       3.049   5.226  17.696  0.00  0.00    +0.000 OA
ATOM     10  H   UNL     1       4.837   2.667  18.217  0.00  0.00    +0.000 HD
BRANCH   8  11
ATOM     11  O   UNL     1       2.850   3.449  19.102  0.00  0.00    +0.000 OA
BRANCH  11  12
ATOM     12  C   UNL     1       1.417   3.633  19.118  0.00  0.00    +0.000 C 
ATOM     13  C   UNL     1       0.726   2.295  18.867  0.00  0.00    +0.000 C 
ATOM     14  C   UNL     1       1.004   4.212  20.462  0.00  0.00    +0.000 C 
ENDBRANCH  11  12
ENDBRANCH   8  11
ENDBRANCH   4   7
BRANCH   1  16
ATOM     15  C   UNL     1       7.702   5.045  12.404  0.00  0.00    +0.000 C 
ATOM     16  O   UNL     1       7.876   5.647  13.690  0.00  0.00    +0.000 OA
ENDBRANCH   1  16
BRANCH   6  17
ATOM     17  O   UNL     1       7.864   6.704  16.454  0.00  0.00    +0.000 OA
ATOM     18  C   UNL     1       7.464   7.317  17.672  0.00  0.00    +0.000 C 
ENDBRANCH   6  17
TORSDOF 5
ENDMDL
MODEL 7
REMARK VINA RESULT:      -6.0      2.594      6.270
REMARK  Name = 
REMARK  9 active torsions:
REMARK  status: ('A' for Active; 'I' for Inactive)
REMARK    1  A    between atoms: C_1  and  O_2
REMARK    2  A    between atoms: O_2  and  C_3
REMARK    3  A    between atoms: C_6  and  N_7
REMARK    4  A    between atoms: C_8  and  O_10
REMARK    5  A    between atoms: O_10  and  C_11
REMARK    6  A    between atoms: C_11  and  C_12
REMARK    7  A    between atoms: C_11  and  C_13
REMARK    8  A    between atoms: C_15  and  O_16
REMARK    9  A    between atoms: O_16  and  C_17
REMARK                            x       y       z     vdW  Elec       q    Type
REMARK                         _______ _______ _______ _____ _____    ______ ____
ROOT
ATOM      1  C   UNL     1       6.245   4.843  18.162  0.00  0.00    +0.000 A 
ATOM      2  C   UNL     1       7.434   4.762  17.434  0.00  0.00    +0.000 A 
ATOM      3  C   UNL     1       7.432   4.350  16.105  0.00  0.00    +0.000 A 
ATOM      4  C   UNL     1       6.250   3.972  15.474  0.00  0.00    +0.000 A 
ATOM      5  C   UNL     1       5.078   3.934  16.236  0.00  0.00    +0.000 A 
ATOM      6  C   UNL     1       5.061   4.361  17.581  0.00  0.00    +0.000 A 
ENDROOT
BRANCH   4   7
ATOM      7  N   UNL     1       6.191   3.634  14.103  0.00  0.00    +0.000 N 
ATOM      8  C   UNL     1       6.818   4.309  13.082  0.00  0.00    +0.000 C 
ATOM      9  O   UNL     1       7.526   5.301  13.190  0.00  0.00    +0.000 OA
ATOM     10  H   UNL     1       5.592   2.875  13.813  0.00  0.00    +0.000 HD
BRANCH   8  11
ATOM     11  O   UNL     1       6.539   3.724  11.883  0.00  0.00    +0.000 OA
BRANCH  11  12
ATOM     12  C   UNL     1       5.499   2.725  11.961  0.00  0.00    +0.000 C 
ATOM     13  C   UNL     1       4.232   3.250  11.291  0.00  0.00    +0.000 C 
ATOM     14  C   UNL     1       5.979   1.450  11.286  0.00  0.00    +0.000 C 
ENDBRANCH  11  12
ENDBRANCH   8  11
ENDBRANCH   4   7
BRANCH   1  16
ATOM     15  C   UNL     1       7.530   5.677  19.959  0.00  0.00    +0.000 C 
ATOM     16  O   UNL     1       6.239   5.368  19.427  0.00  0.00    +0.000 OA
ENDBRANCH   1  16
BRANCH   6  17
ATOM     17  O   UNL     1       3.814   4.262  18.142  0.00  0.00    +0.000 OA
ATOM     18  C   UNL     1       2.894   5.331  17.971  0.00  0.00    +0.000 C 
ENDBRANCH   6  17
TORSDOF 5
ENDMDL
MODEL 8
REMARK VINA RESULT:      -6.0      1.321      1.720
REMARK  Name = 
REMARK  9 active torsions:
REMARK  status: ('A' for Active; 'I' for Inactive)
REMARK    1  A    between atoms: C_1  and  O_2
REMARK    2  A    between atoms: O_2  and  C_3
REMARK    3  A    between atoms: C_6  and  N_7
REMARK    4  A    between atoms: C_8  and  O_10
REMARK    5  A    between atoms: O_10  and  C_11
REMARK    6  A    between atoms: C_11  and  C_12
REMARK    7  A    between atoms: C_11  and  C_13
REMARK    8  A    between atoms: C_15  and  O_16
REMARK    9  A    between atoms: O_16  and  C_17
REMARK                            x       y       z     vdW  Elec       q    Type
REMARK                         _______ _______ _______ _____ _____    ______ ____
ROOT
ATOM      1  C   UNL     1       6.714   5.212  16.292  0.00  0.00    +0.000 A 
ATOM      2  C   UNL     1       5.705   4.251  16.202  0.00  0.00    +0.000 A 
ATOM      3  C   UNL     1       4.850   4.009  17.272  0.00  0.00    +0.000 A 
ATOM      4  C   UNL     1       4.998   4.692  18.476  0.00  0.00    +0.000 A 
ATOM      5  C   UNL     1       6.082   5.564  18.610  0.00  0.00    +0.000 A 
ATOM      6  C   UNL     1       6.951   5.831  17.530  0.00  0.00    +0.000 A 
ENDROOT
BRANCH   4   7
ATOM      7  N   UNL     1       4.098   4.541  19.554  0.00  0.00    +0.000 N 
ATOM      8  C   UNL     1       2.925   5.238  19.725  0.00  0.00    +0.000 C 
ATOM      9  O   UNL     1       2.468   6.093  18.977  0.00  0.00    +0.000 OA
ATOM     10  H   UNL     1       4.343   3.922  20.313  0.00  0.00    +0.000 HD
BRANCH   8  11
ATOM     11  O   UNL     1       2.306   4.856  20.878  0.00  0.00    +0.000 OA
BRANCH  11  12
ATOM     12  C   UNL     1       1.252   3.892  20.669  0.00  0.00    +0.000 C 
ATOM     13  C   UNL     1       1.220   3.477  19.200  0.00  0.00    +0.000 C 
ATOM     14  C   UNL     1       1.492   2.687  21.566  0.00  0.00    +0.000 C 
ENDBRANCH  11  12
ENDBRANCH   8  11
ENDBRANCH   4   7
BRANCH   1  16
ATOM     15  C   UNL     1       7.135   4.818  14.002  0.00  0.00    +0.000 C 
ATOM     16  O   UNL     1       7.468   5.533  15.195  0.00  0.00    +0.000 OA
ENDBRANCH   1  16
BRANCH   6  17
ATOM     17  O   UNL     1       7.935   6.725  17.863  0.00  0.00    +0.000 OA
ATOM     18  C   UNL     1       7.725   8.107  17.611  0.00  0.00    +0.000 C 
ENDBRANCH   6  17
TORSDOF 5
ENDMDL
MODEL 9
REMARK VINA RESULT:      -5.9      0.711      1.107
REMARK  Name = 
REMARK  9 active torsions:
REMARK  status: ('A' for Active; 'I' for Inactive)
REMARK    1  A    between atoms: C_1  and  O_2
REMARK    2  A    between atoms: O_2  and  C_3
REMARK    3  A    between atoms: C_6  and  N_7
REMARK    4  A    between atoms: C_8  and  O_10
REMARK    5  A    between atoms: O_10  and  C_11
REMARK    6  A    between atoms: C_11  and  C_12
REMARK    7  A    between atoms: C_11  and  C_13
REMARK    8  A    between atoms: C_15  and  O_16
REMARK    9  A    between atoms: O_16  and  C_17
REMARK                            x       y       z     vdW  Elec       q    Type
REMARK                         _______ _______ _______ _____ _____    ______ ____
ROOT
ATOM      1  C   UNL     1       6.577   5.130  15.550  0.00  0.00    +0.000 A 
ATOM      2  C   UNL     1       5.506   4.235  15.562  0.00  0.00    +0.000 A 
ATOM      3  C   UNL     1       4.572   4.251  16.593  0.00  0.00    +0.000 A 
ATOM      4  C   UNL     1       4.698   5.136  17.660  0.00  0.00    +0.000 A 
ATOM      5  C   UNL     1       5.835   5.948  17.713  0.00  0.00    +0.000 A 
ATOM      6  C   UNL     1       6.785   5.953  16.669  0.00  0.00    +0.000 A 
ENDROOT
BRANCH   4   7
ATOM      7  N   UNL     1       3.725   5.247  18.679  0.00  0.00    +0.000 N 
ATOM      8  C   UNL     1       3.510   4.336  19.686  0.00  0.00    +0.000 C 
ATOM      9  O   UNL     1       4.121   3.292  19.869  0.00  0.00    +0.000 OA
ATOM     10  H   UNL     1       3.076   6.019  18.651  0.00  0.00    +0.000 HD
BRANCH   8  11
ATOM     11  O   UNL     1       2.486   4.746  20.489  0.00  0.00    +0.000 OA
BRANCH  11  12
ATOM     12  C   UNL     1       1.306   3.922  20.377  0.00  0.00    +0.000 C 
ATOM     13  C   UNL     1       1.210   3.352  18.964  0.00  0.00    +0.000 C 
ATOM     14  C   UNL     1       1.379   2.804  21.406  0.00  0.00    +0.000 C 
ENDBRANCH  11  12
ENDBRANCH   8  11
ENDBRANCH   4   7
BRANCH   1  16
ATOM     15  C   UNL     1       6.972   4.479  13.315  0.00  0.00    +0.000 C 
ATOM     16  O   UNL     1       7.418   5.192  14.472  0.00  0.00    +0.000 OA
ENDBRANCH   1  16
BRANCH   6  17
ATOM     17  O   UNL     1       7.812   6.830  16.905  0.00  0.00    +0.000 OA
ATOM     18  C   UNL     1       7.532   8.059  17.559  0.00  0.00    +0.000 C 
ENDBRANCH   6  17
TORSDOF 5
ENDMDL
