MODEL 1
REMARK VINA RESULT:      -7.9      0.000      0.000
REMARK  Name = 
REMARK  6 active torsions:
REMARK  status: ('A' for Active; 'I' for Inactive)
REMARK    1  A    between atoms: C_1  and  N_2
REMARK    2  A    between atoms: C_9  and  C_10
REMARK    3  A    between atoms: C_14  and  C_15
REMARK    4  A    between atoms: N_17  and  C_18
REMARK    5  A    between atoms: C_18  and  C_19
REMARK    6  A    between atoms: C_19  and  N_20
REMARK                            x       y       z     vdW  Elec       q    Type
REMARK                         _______ _______ _______ _____ _____    ______ ____
ROOT
ATOM      1  C   UNL     1       2.171   7.766  19.005  0.00  0.00    +0.000 A 
ATOM      2  C   UNL     1       1.871   8.505  17.847  0.00  0.00    +0.000 A 
ATOM      3  C   UNL     1       1.073   9.651  17.934  0.00  0.00    +0.000 A 
ATOM      4  C   UNL     1       0.598  10.091  19.178  0.00  0.00    +0.000 A 
ATOM      5  C   UNL     1       0.908   9.384  20.354  0.00  0.00    +0.000 A 
ATOM      6  C   UNL     1       1.681   8.219  20.236  0.00  0.00    +0.000 A 
ENDROOT
BRANCH   1  15
ATOM      7  C   UNL     1       2.620   2.771  21.447  0.00  0.00    +0.000 C 
ATOM      8  N   UNL     1       3.547   3.166  20.392  0.00  0.00    +0.000 N 
ATOM      9  C   UNL     1       4.565   2.433  19.844  0.00  0.00    +0.000 A 
ATOM     10  O   UNL     1       4.846   1.296  20.182  0.00  0.00    +0.000 OA
ATOM     11  N   UNL     1       5.235   3.113  18.871  0.00  0.00    +0.000 N 
ATOM     12  C   UNL     1       4.605   4.295  18.821  0.00  0.00    +0.000 A 
ATOM     13  N   UNL     1       4.890   5.326  17.998  0.00  0.00    +0.000 NA
ATOM     14  C   UNL     1       4.121   6.448  18.064  0.00  0.00    +0.000 A 
ATOM     15  C   UNL     1       3.039   6.554  18.996  0.00  0.00    +0.000 A 
ATOM     16  C   UNL     1       2.782   5.467  19.865  0.00  0.00    +0.000 A 
ATOM     17  C   UNL     1       3.589   4.340  19.733  0.00  0.00    +0.000 A 
ATOM     18  H   UNL     1       6.043   2.792  18.290  0.00  0.00    +0.000 HD
ENDBRANCH   1  15
BRANCH   5  19
ATOM     19  C   UNL     1       0.470   9.896  21.697  0.00  0.00    +0.000 C 
ATOM     20  O   UNL     1       1.213   9.733  22.655  0.00  0.00    +0.000 OA
ATOM     21  N   UNL     1      -0.752  10.494  21.881  0.00  0.00    +0.000 N 
ATOM     22  H   UNL     1      -1.391  10.660  21.102  0.00  0.00    +0.000 HD
BRANCH  21  23
ATOM     23  C   UNL     1      -1.269  10.909  23.171  0.00  0.00    +0.000 C 
BRANCH  23  24
ATOM     24  C   UNL     1      -2.095  12.188  22.978  0.00  0.00    +0.000 C 
BRANCH  24  25
ATOM     25  N   UNL     1      -3.418  12.034  23.571  0.00  0.00    +0.000 NA
ATOM     26  H   UNL     1      -3.930  12.942  23.498  0.00  0.00    +0.000 HD
ATOM     27  H   UNL     1      -3.297  11.818  24.587  0.00  0.00    +0.000 HD
ENDBRANCH  24  25
ENDBRANCH  23  24
ENDBRANCH  21  23
ENDBRANCH   5  19
TORSDOF 5
ENDMDL
MODEL 2
REMARK VINA RESULT:      -7.7      1.105      1.105
REMARK  Name = 
REMARK  6 active torsions:
REMARK  status: ('A' for Active; 'I' for Inactive)
REMARK    1  A    between atoms: C_1  and  N_2
REMARK    2  A    between atoms: C_9  and  C_10
REMARK    3  A    between atoms: C_14  and  C_15
REMARK    4  A    between atoms: N_17  and  C_18
REMARK    5  A    between atoms: C_18  and  C_19
REMARK    6  A    between atoms: C_19  and  N_20
REMARK                            x       y       z     vdW  Elec       q    Type
REMARK                         _______ _______ _______ _____ _____    ______ ____
ROOT
ATOM      1  C   UNL     1       2.254   7.845  18.632  0.00  0.00    +0.000 A 
ATOM      2  C   UNL     1       2.166   8.835  17.638  0.00  0.00    +0.000 A 
ATOM      3  C   UNL     1       1.552  10.061  17.922  0.00  0.00    +0.000 A 
ATOM      4  C   UNL     1       1.055  10.324  19.206  0.00  0.00    +0.000 A 
ATOM      5  C   UNL     1       1.156   9.359  20.225  0.00  0.00    +0.000 A 
ATOM      6  C   UNL     1       1.744   8.125  19.906  0.00  0.00    +0.000 A 
ENDROOT
BRANCH   1  15
ATOM      7  C   UNL     1       1.640   2.446  19.896  0.00  0.00    +0.000 C 
ATOM      8  N   UNL     1       2.733   2.886  19.035  0.00  0.00    +0.000 N 
ATOM      9  C   UNL     1       3.682   2.119  18.415  0.00  0.00    +0.000 A 
ATOM     10  O   UNL     1       3.743   0.905  18.506  0.00  0.00    +0.000 OA
ATOM     11  N   UNL     1       4.557   2.861  17.679  0.00  0.00    +0.000 N 
ATOM     12  C   UNL     1       4.127   4.119  17.852  0.00  0.00    +0.000 A 
ATOM     13  N   UNL     1       4.661   5.234  17.311  0.00  0.00    +0.000 NA
ATOM     14  C   UNL     1       4.072   6.434  17.571  0.00  0.00    +0.000 A 
ATOM     15  C   UNL     1       2.919   6.529  18.414  0.00  0.00    +0.000 A 
ATOM     16  C   UNL     1       2.398   5.345  18.989  0.00  0.00    +0.000 A 
ATOM     17  C   UNL     1       3.032   4.147  18.667  0.00  0.00    +0.000 A 
ATOM     18  H   UNL     1       5.367   2.533  17.106  0.00  0.00    +0.000 HD
ENDBRANCH   1  15
BRANCH   5  19
ATOM     19  C   UNL     1       0.698   9.666  21.622  0.00  0.00    +0.000 C 
ATOM     20  O   UNL     1       1.414   9.337  22.558  0.00  0.00    +0.000 OA
ATOM     21  N   UNL     1      -0.515  10.258  21.874  0.00  0.00    +0.000 N 
ATOM     22  H   UNL     1      -1.131  10.560  21.118  0.00  0.00    +0.000 HD
BRANCH  21  23
ATOM     23  C   UNL     1      -1.052  10.480  23.203  0.00  0.00    +0.000 C 
BRANCH  23  24
ATOM     24  C   UNL     1      -1.945  11.728  23.167  0.00  0.00    +0.000 C 
BRANCH  24  25
ATOM     25  N   UNL     1      -1.139  12.935  23.302  0.00  0.00    +0.000 NA
ATOM     26  H   UNL     1      -1.009  13.144  24.318  0.00  0.00    +0.000 HD
ATOM     27  H   UNL     1      -1.670  13.731  22.879  0.00  0.00    +0.000 HD
ENDBRANCH  24  25
ENDBRANCH  23  24
ENDBRANCH  21  23
ENDBRANCH   5  19
TORSDOF 5
ENDMDL
MODEL 3
REMARK VINA RESULT:      -7.6      2.136      8.258
REMARK  Name = 
REMARK  6 active torsions:
REMARK  status: ('A' for Active; 'I' for Inactive)
REMARK    1  A    between atoms: C_1  and  N_2
REMARK    2  A    between atoms: C_9  and  C_10
REMARK    3  A    between atoms: C_14  and  C_15
REMARK    4  A    between atoms: N_17  and  C_18
REMARK    5  A    between atoms: C_18  and  C_19
REMARK    6  A    between atoms: C_19  and  N_20
REMARK                            x       y       z     vdW  Elec       q    Type
REMARK                         _______ _______ _______ _____ _____    ______ ____
ROOT
ATOM      1  C   UNL     1       2.398   6.035  19.867  0.00  0.00    +0.000 A 
ATOM      2  C   UNL     1       1.949   5.032  20.742  0.00  0.00    +0.000 A 
ATOM      3  C   UNL     1       2.526   3.757  20.703  0.00  0.00    +0.000 A 
ATOM      4  C   UNL     1       3.580   3.484  19.820  0.00  0.00    +0.000 A 
ATOM      5  C   UNL     1       4.066   4.480  18.953  0.00  0.00    +0.000 A 
ATOM      6  C   UNL     1       3.447   5.739  18.987  0.00  0.00    +0.000 A 
ENDROOT
BRANCH   1  15
ATOM      7  C   UNL     1      -0.141   9.656  23.268  0.00  0.00    +0.000 C 
ATOM      8  N   UNL     1       0.232  10.048  21.913  0.00  0.00    +0.000 N 
ATOM      9  C   UNL     1       0.074  11.269  21.312  0.00  0.00    +0.000 A 
ATOM     10  O   UNL     1      -0.424  12.238  21.858  0.00  0.00    +0.000 OA
ATOM     11  N   UNL     1       0.540  11.286  20.031  0.00  0.00    +0.000 N 
ATOM     12  C   UNL     1       0.998  10.041  19.845  0.00  0.00    +0.000 A 
ATOM     13  N   UNL     1       1.573   9.554  18.726  0.00  0.00    +0.000 NA
ATOM     14  C   UNL     1       2.011   8.264  18.723  0.00  0.00    +0.000 A 
ATOM     15  C   UNL     1       1.854   7.423  19.871  0.00  0.00    +0.000 A 
ATOM     16  C   UNL     1       1.222   7.954  21.020  0.00  0.00    +0.000 A 
ATOM     17  C   UNL     1       0.816   9.286  20.968  0.00  0.00    +0.000 A 
ATOM     18  H   UNL     1       0.548  12.081  19.353  0.00  0.00    +0.000 HD
ENDBRANCH   1  15
BRANCH   5  19
ATOM     19  C   UNL     1       5.247   4.216  18.063  0.00  0.00    +0.000 C 
ATOM     20  O   UNL     1       6.370   4.357  18.526  0.00  0.00    +0.000 OA
ATOM     21  N   UNL     1       5.096   3.871  16.743  0.00  0.00    +0.000 N 
ATOM     22  H   UNL     1       4.174   3.730  16.327  0.00  0.00    +0.000 HD
BRANCH  21  23
ATOM     23  C   UNL     1       6.198   3.709  15.813  0.00  0.00    +0.000 C 
BRANCH  23  24
ATOM     24  C   UNL     1       6.441   5.049  15.105  0.00  0.00    +0.000 C 
BRANCH  24  25
ATOM     25  N   UNL     1       7.427   5.838  15.832  0.00  0.00    +0.000 NA
ATOM     26  H   UNL     1       6.932   6.457  16.513  0.00  0.00    +0.000 HD
ATOM     27  H   UNL     1       7.924   6.452  15.147  0.00  0.00    +0.000 HD
ENDBRANCH  24  25
ENDBRANCH  23  24
ENDBRANCH  21  23
ENDBRANCH   5  19
TORSDOF 5
ENDMDL
MODEL 4
REMARK VINA RESULT:      -7.6      5.515      9.235
REMARK  Name = 
REMARK  6 active torsions:
REMARK  status: ('A' for Active; 'I' for Inactive)
REMARK    1  A    between atoms: C_1  and  N_2
REMARK    2  A    between atoms: C_9  and  C_10
REMARK    3  A    between atoms: C_14  and  C_15
REMARK    4  A    between atoms: N_17  and  C_18
REMARK    5  A    between atoms: C_18  and  C_19
REMARK    6  A    between atoms: C_19  and  N_20
REMARK                            x       y       z     vdW  Elec       q    Type
REMARK                         _______ _______ _______ _____ _____    ______ ____
ROOT
ATOM      1  C   UNL     1       6.108   4.728  14.884  0.00  0.00    +0.000 A 
ATOM      2  C   UNL     1       7.387   5.159  14.491  0.00  0.00    +0.000 A 
ATOM      3  C   UNL     1       7.839   4.914  13.189  0.00  0.00    +0.000 A 
ATOM      4  C   UNL     1       7.009   4.272  12.260  0.00  0.00    +0.000 A 
ATOM      5  C   UNL     1       5.714   3.856  12.622  0.00  0.00    +0.000 A 
ATOM      6  C   UNL     1       5.297   4.082  13.943  0.00  0.00    +0.000 A 
ENDROOT
BRANCH   1  15
ATOM      7  C   UNL     1       1.432   3.944  17.824  0.00  0.00    +0.000 C 
ATOM      8  N   UNL     1       2.611   4.534  18.450  0.00  0.00    +0.000 N 
ATOM      9  C   UNL     1       2.771   4.922  19.754  0.00  0.00    +0.000 A 
ATOM     10  O   UNL     1       1.906   4.822  20.606  0.00  0.00    +0.000 OA
ATOM     11  N   UNL     1       4.011   5.433  19.999  0.00  0.00    +0.000 N 
ATOM     12  C   UNL     1       4.627   5.352  18.812  0.00  0.00    +0.000 A 
ATOM     13  N   UNL     1       5.893   5.727  18.534  0.00  0.00    +0.000 NA
ATOM     14  C   UNL     1       6.368   5.543  17.270  0.00  0.00    +0.000 A 
ATOM     15  C   UNL     1       5.546   4.980  16.242  0.00  0.00    +0.000 A 
ATOM     16  C   UNL     1       4.214   4.622  16.557  0.00  0.00    +0.000 A 
ATOM     17  C   UNL     1       3.795   4.815  17.871  0.00  0.00    +0.000 A 
ATOM     18  H   UNL     1       4.399   5.796  20.899  0.00  0.00    +0.000 HD
ENDBRANCH   1  15
BRANCH   5  19
ATOM     19  C   UNL     1       4.792   3.242  11.608  0.00  0.00    +0.000 C 
ATOM     20  O   UNL     1       4.983   2.081  11.272  0.00  0.00    +0.000 OA
ATOM     21  N   UNL     1       3.781   3.960  11.020  0.00  0.00    +0.000 N 
ATOM     22  H   UNL     1       3.582   4.925  11.287  0.00  0.00    +0.000 HD
BRANCH  21  23
ATOM     23  C   UNL     1       2.931   3.451   9.960  0.00  0.00    +0.000 C 
BRANCH  23  24
ATOM     24  C   UNL     1       2.889   4.485   8.827  0.00  0.00    +0.000 C 
BRANCH  24  25
ATOM     25  N   UNL     1       1.691   5.308   8.933  0.00  0.00    +0.000 NA
ATOM     26  H   UNL     1       1.947   6.227   9.358  0.00  0.00    +0.000 HD
ATOM     27  H   UNL     1       1.024   4.832   9.583  0.00  0.00    +0.000 HD
ENDBRANCH  24  25
ENDBRANCH  23  24
ENDBRANCH  21  23
ENDBRANCH   5  19
TORSDOF 5
ENDMDL
MODEL 5
REMARK VINA RESULT:      -7.6      3.791      5.338
REMARK  Name = 
REMARK  6 active torsions:
REMARK  status: ('A' for Active; 'I' for Inactive)
REMARK    1  A    between atoms: C_1  and  N_2
REMARK    2  A    between atoms: C_9  and  C_10
REMARK    3  A    between atoms: C_14  and  C_15
REMARK    4  A    between atoms: N_17  and  C_18
REMARK    5  A    between atoms: C_18  and  C_19
REMARK    6  A    between atoms: C_19  and  N_20
REMARK                            x       y       z     vdW  Elec       q    Type
REMARK                         _______ _______ _______ _____ _____    ______ ____
ROOT
ATOM      1  C   UNL     1       4.068   4.903  17.895  0.00  0.00    +0.000 A 
ATOM      2  C   UNL     1       3.482   3.699  18.320  0.00  0.00    +0.000 A 
ATOM      3  C   UNL     1       2.479   3.713  19.297  0.00  0.00    +0.000 A 
ATOM      4  C   UNL     1       2.027   4.928  19.829  0.00  0.00    +0.000 A 
ATOM      5  C   UNL     1       2.579   6.149  19.399  0.00  0.00    +0.000 A 
ATOM      6  C   UNL     1       3.607   6.106  18.446  0.00  0.00    +0.000 A 
ENDROOT
BRANCH   1  15
ATOM      7  C   UNL     1       4.977   3.334  12.619  0.00  0.00    +0.000 C 
ATOM      8  N   UNL     1       5.972   4.121  13.340  0.00  0.00    +0.000 N 
ATOM      9  C   UNL     1       7.169   4.599  12.878  0.00  0.00    +0.000 A 
ATOM     10  O   UNL     1       7.582   4.421  11.745  0.00  0.00    +0.000 OA
ATOM     11  N   UNL     1       7.853   5.303  13.824  0.00  0.00    +0.000 N 
ATOM     12  C   UNL     1       7.049   5.256  14.895  0.00  0.00    +0.000 A 
ATOM     13  N   UNL     1       7.276   5.821  16.099  0.00  0.00    +0.000 NA
ATOM     14  C   UNL     1       6.329   5.698  17.070  0.00  0.00    +0.000 A 
ATOM     15  C   UNL     1       5.118   4.970  16.839  0.00  0.00    +0.000 A 
ATOM     16  C   UNL     1       4.920   4.365  15.575  0.00  0.00    +0.000 A 
ATOM     17  C   UNL     1       5.915   4.546  14.617  0.00  0.00    +0.000 A 
ATOM     18  H   UNL     1       8.780   5.776  13.739  0.00  0.00    +0.000 HD
ENDBRANCH   1  15
BRANCH   5  19
ATOM     19  C   UNL     1       2.041   7.457  19.907  0.00  0.00    +0.000 C 
ATOM     20  O   UNL     1       1.952   8.394  19.127  0.00  0.00    +0.000 OA
ATOM     21  N   UNL     1       1.697   7.636  21.223  0.00  0.00    +0.000 N 
ATOM     22  H   UNL     1       1.743   6.872  21.899  0.00  0.00    +0.000 HD
BRANCH  21  23
ATOM     23  C   UNL     1       1.275   8.903  21.789  0.00  0.00    +0.000 C 
BRANCH  23  24
ATOM     24  C   UNL     1      -0.229   9.076  21.536  0.00  0.00    +0.000 C 
BRANCH  24  25
ATOM     25  N   UNL     1      -0.458  10.023  20.453  0.00  0.00    +0.000 NA
ATOM     26  H   UNL     1      -1.351  10.535  20.632  0.00  0.00    +0.000 HD
ATOM     27  H   UNL     1      -0.575   9.481  19.565  0.00  0.00    +0.000 HD
ENDBRANCH  24  25
ENDBRANCH  23  24
ENDBRANCH  21  23
ENDBRANCH   5  19
TORSDOF 5
ENDMDL
MODEL 6
REMARK VINA RESULT:      -7.4      2.034      8.581
REMARK  Name = 
REMARK  6 active torsions:
REMARK  status: ('A' for Active; 'I' for Inactive)
REMARK    1  A    between atoms: C_1  and  N_2
REMARK    2  A    between atoms: C_9  and  C_10
REMARK    3  A    between atoms: C_14  and  C_15
REMARK    4  A    between atoms: N_17  and  C_18
REMARK    5  A    between atoms: C_18  and  C_19
REMARK    6  A    between atoms: C_19  and  N_20
REMARK                            x       y       z     vdW  Elec       q    Type
REMARK                         _______ _______ _______ _____ _____    ______ ____
ROOT
ATOM      1  C   UNL     1       1.472   8.698  19.887  0.00  0.00    +0.000 A 
ATOM      2  C   UNL     1       1.774   9.110  18.577  0.00  0.00    +0.000 A 
ATOM      3  C   UNL     1       2.481   8.258  17.720  0.00  0.00    +0.000 A 
ATOM      4  C   UNL     1       2.859   6.977  18.148  0.00  0.00    +0.000 A 
ATOM      5  C   UNL     1       2.543   6.532  19.445  0.00  0.00    +0.000 A 
ATOM      6  C   UNL     1       1.865   7.418  20.297  0.00  0.00    +0.000 A 
ENDROOT
BRANCH   1  15
ATOM      7  C   UNL     1      -2.464  12.651  19.945  0.00  0.00    +0.000 C 
ATOM      8  N   UNL     1      -1.942  12.107  21.194  0.00  0.00    +0.000 N 
ATOM      9  C   UNL     1      -2.321  12.414  22.474  0.00  0.00    +0.000 A 
ATOM     10  O   UNL     1      -3.187  13.224  22.753  0.00  0.00    +0.000 OA
ATOM     11  N   UNL     1      -1.622  11.711  23.410  0.00  0.00    +0.000 N 
ATOM     12  C   UNL     1      -0.795  10.949  22.680  0.00  0.00    +0.000 A 
ATOM     13  N   UNL     1       0.103  10.058  23.149  0.00  0.00    +0.000 NA
ATOM     14  C   UNL     1       0.844   9.344  22.256  0.00  0.00    +0.000 A 
ATOM     15  C   UNL     1       0.697   9.537  20.845  0.00  0.00    +0.000 A 
ATOM     16  C   UNL     1      -0.234  10.499  20.385  0.00  0.00    +0.000 A 
ATOM     17  C   UNL     1      -0.976  11.180  21.346  0.00  0.00    +0.000 A 
ATOM     18  H   UNL     1      -1.711  11.745  24.450  0.00  0.00    +0.000 HD
ENDBRANCH   1  15
BRANCH   5  19
ATOM     19  C   UNL     1       2.874   5.133  19.880  0.00  0.00    +0.000 C 
ATOM     20  O   UNL     1       2.515   4.766  20.990  0.00  0.00    +0.000 OA
ATOM     21  N   UNL     1       3.604   4.282  19.088  0.00  0.00    +0.000 N 
ATOM     22  H   UNL     1       3.907   4.549  18.150  0.00  0.00    +0.000 HD
BRANCH  21  23
ATOM     23  C   UNL     1       4.042   2.962  19.500  0.00  0.00    +0.000 C 
BRANCH  23  24
ATOM     24  C   UNL     1       3.247   1.914  18.710  0.00  0.00    +0.000 C 
BRANCH  24  25
ATOM     25  N   UNL     1       4.100   0.785  18.360  0.00  0.00    +0.000 NA
ATOM     26  H   UNL     1       4.353   0.852  17.348  0.00  0.00    +0.000 HD
ATOM     27  H   UNL     1       3.548  -0.094  18.492  0.00  0.00    +0.000 HD
ENDBRANCH  24  25
ENDBRANCH  23  24
ENDBRANCH  21  23
ENDBRANCH   5  19
TORSDOF 5
ENDMDL
MODEL 7
REMARK VINA RESULT:      -7.4      1.723      2.673
REMARK  Name = 
REMARK  6 active torsions:
REMARK  status: ('A' for Active; 'I' for Inactive)
REMARK    1  A    between atoms: C_1  and  N_2
REMARK    2  A    between atoms: C_9  and  C_10
REMARK    3  A    between atoms: C_14  and  C_15
REMARK    4  A    between atoms: N_17  and  C_18
REMARK    5  A    between atoms: C_18  and  C_19
REMARK    6  A    between atoms: C_19  and  N_20
REMARK                            x       y       z     vdW  Elec       q    Type
REMARK                         _______ _______ _______ _____ _____    ______ ____
ROOT
ATOM      1  C   UNL     1       2.249   7.846  18.791  0.00  0.00    +0.000 A 
ATOM      2  C   UNL     1       1.773   8.541  17.666  0.00  0.00    +0.000 A 
ATOM      3  C   UNL     1       0.847   9.579  17.823  0.00  0.00    +0.000 A 
ATOM      4  C   UNL     1       0.417   9.957  19.102  0.00  0.00    +0.000 A 
ATOM      5  C   UNL     1       0.900   9.294  20.246  0.00  0.00    +0.000 A 
ATOM      6  C   UNL     1       1.801   8.234  20.060  0.00  0.00    +0.000 A 
ENDROOT
BRANCH   1  15
ATOM      7  C   UNL     1       7.395   6.870  16.870  0.00  0.00    +0.000 C 
ATOM      8  N   UNL     1       6.667   5.836  17.599  0.00  0.00    +0.000 N 
ATOM      9  C   UNL     1       7.097   4.581  17.940  0.00  0.00    +0.000 A 
ATOM     10  O   UNL     1       8.199   4.140  17.666  0.00  0.00    +0.000 OA
ATOM     11  N   UNL     1       6.155   3.875  18.627  0.00  0.00    +0.000 N 
ATOM     12  C   UNL     1       5.122   4.723  18.711  0.00  0.00    +0.000 A 
ATOM     13  N   UNL     1       3.938   4.494  19.316  0.00  0.00    +0.000 NA
ATOM     14  C   UNL     1       3.006   5.488  19.331  0.00  0.00    +0.000 A 
ATOM     15  C   UNL     1       3.257   6.751  18.706  0.00  0.00    +0.000 A 
ATOM     16  C   UNL     1       4.498   6.953  18.056  0.00  0.00    +0.000 A 
ATOM     17  C   UNL     1       5.416   5.906  18.094  0.00  0.00    +0.000 A 
ATOM     18  H   UNL     1       6.220   2.904  19.009  0.00  0.00    +0.000 HD
ENDBRANCH   1  15
BRANCH   5  19
ATOM     19  C   UNL     1       0.505   9.749  21.622  0.00  0.00    +0.000 C 
ATOM     20  O   UNL     1       1.185   9.390  22.574  0.00  0.00    +0.000 OA
ATOM     21  N   UNL     1      -0.617  10.508  21.840  0.00  0.00    +0.000 N 
ATOM     22  H   UNL     1      -1.199  10.839  21.069  0.00  0.00    +0.000 HD
BRANCH  21  23
ATOM     23  C   UNL     1      -1.103  10.884  23.154  0.00  0.00    +0.000 C 
BRANCH  23  24
ATOM     24  C   UNL     1      -1.433  12.383  23.143  0.00  0.00    +0.000 C 
BRANCH  24  25
ATOM     25  N   UNL     1      -0.365  13.135  22.495  0.00  0.00    +0.000 NA
ATOM     26  H   UNL     1       0.543  12.900  22.955  0.00  0.00    +0.000 HD
ATOM     27  H   UNL     1      -0.545  14.154  22.647  0.00  0.00    +0.000 HD
ENDBRANCH  24  25
ENDBRANCH  23  24
ENDBRANCH  21  23
ENDBRANCH   5  19
TORSDOF 5
ENDMDL
MODEL 8
REMARK VINA RESULT:      -7.4      2.444      8.445
REMARK  Name = 
REMARK  6 active torsions:
REMARK  status: ('A' for Active; 'I' for Inactive)
REMARK    1  A    between atoms: C_1  and  N_2
REMARK    2  A    between atoms: C_9  and  C_10
REMARK    3  A    between atoms: C_14  and  C_15
REMARK    4  A    between atoms: N_17  and  C_18
REMARK    5  A    between atoms: C_18  and  C_19
REMARK    6  A    between atoms: C_19  and  N_20
REMARK                            x       y       z     vdW  Elec       q    Type
REMARK                         _______ _______ _______ _____ _____    ______ ____
ROOT
ATOM      1  C   UNL     1       2.174   6.664  19.406  0.00  0.00    +0.000 A 
ATOM      2  C   UNL     1       1.861   6.039  20.626  0.00  0.00    +0.000 A 
ATOM      3  C   UNL     1       2.217   4.703  20.841  0.00  0.00    +0.000 A 
ATOM      4  C   UNL     1       2.919   3.990  19.860  0.00  0.00    +0.000 A 
ATOM      5  C   UNL     1       3.269   4.602  18.642  0.00  0.00    +0.000 A 
ATOM      6  C   UNL     1       2.870   5.931  18.436  0.00  0.00    +0.000 A 
ENDROOT
BRANCH   1  15
ATOM      7  C   UNL     1      -0.227  11.108  21.774  0.00  0.00    +0.000 C 
ATOM      8  N   UNL     1       0.389  11.212  20.456  0.00  0.00    +0.000 N 
ATOM      9  C   UNL     1       0.507  12.324  19.664  0.00  0.00    +0.000 A 
ATOM     10  O   UNL     1       0.093  13.427  19.972  0.00  0.00    +0.000 OA
ATOM     11  N   UNL     1       1.145  12.063  18.488  0.00  0.00    +0.000 N 
ATOM     12  C   UNL     1       1.426  10.755  18.564  0.00  0.00    +0.000 A 
ATOM     13  N   UNL     1       2.071  10.014  17.639  0.00  0.00    +0.000 NA
ATOM     14  C   UNL     1       2.300   8.697  17.898  0.00  0.00    +0.000 A 
ATOM     15  C   UNL     1       1.856   8.091  19.116  0.00  0.00    +0.000 A 
ATOM     16  C   UNL     1       1.158   8.887  20.056  0.00  0.00    +0.000 A 
ATOM     17  C   UNL     1       0.975  10.232  19.742  0.00  0.00    +0.000 A 
ATOM     18  H   UNL     1       1.371  12.723  17.710  0.00  0.00    +0.000 HD
ENDBRANCH   1  15
BRANCH   5  19
ATOM     19  C   UNL     1       4.091   3.868  17.621  0.00  0.00    +0.000 C 
ATOM     20  O   UNL     1       4.098   2.645  17.645  0.00  0.00    +0.000 OA
ATOM     21  N   UNL     1       4.866   4.531  16.702  0.00  0.00    +0.000 N 
ATOM     22  H   UNL     1       4.873   5.550  16.643  0.00  0.00    +0.000 HD
BRANCH  21  23
ATOM     23  C   UNL     1       5.760   3.876  15.767  0.00  0.00    +0.000 C 
BRANCH  23  24
ATOM     24  C   UNL     1       7.117   4.592  15.803  0.00  0.00    +0.000 C 
BRANCH  24  25
ATOM     25  N   UNL     1       7.859   4.216  17.000  0.00  0.00    +0.000 NA
ATOM     26  H   UNL     1       7.448   4.711  17.823  0.00  0.00    +0.000 HD
ATOM     27  H   UNL     1       8.845   4.547  16.890  0.00  0.00    +0.000 HD
ENDBRANCH  24  25
ENDBRANCH  23  24
ENDBRANCH  21  23
ENDBRANCH   5  19
TORSDOF 5
ENDMDL
MODEL 9
REMARK VINA RESULT:      -7.4      3.892      5.724
REMARK  Name = 
REMARK  6 active torsions:
REMARK  status: ('A' for Active; 'I' for Inactive)
REMARK    1  A    between atoms: C_1  and  N_2
REMARK    2  A    between atoms: C_9  and  C_10
REMARK    3  A    between atoms: C_14  and  C_15
REMARK    4  A    between atoms: N_17  and  C_18
REMARK    5  A    between atoms: C_18  and  C_19
REMARK    6  A    between atoms: C_19  and  N_20
REMARK                            x       y       z     vdW  Elec       q    Type
REMARK                         _______ _______ _______ _____ _____    ______ ____
ROOT
ATOM      1  C   UNL     1       4.211   4.599  18.062  0.00  0.00    +0.000 A 
ATOM      2  C   UNL     1       3.778   3.341  18.516  0.00  0.00    +0.000 A 
ATOM      3  C   UNL     1       2.797   3.255  19.512  0.00  0.00    +0.000 A 
ATOM      4  C   UNL     1       2.216   4.418  20.036  0.00  0.00    +0.000 A 
ATOM      5  C   UNL     1       2.614   5.688  19.577  0.00  0.00    +0.000 A 
ATOM      6  C   UNL     1       3.623   5.749  18.604  0.00  0.00    +0.000 A 
ENDROOT
BRANCH   1  15
ATOM      7  C   UNL     1       5.057   3.321  12.698  0.00  0.00    +0.000 C 
ATOM      8  N   UNL     1       6.028   4.127  13.430  0.00  0.00    +0.000 N 
ATOM      9  C   UNL     1       7.186   4.689  12.960  0.00  0.00    +0.000 A 
ATOM     10  O   UNL     1       7.577   4.584  11.811  0.00  0.00    +0.000 OA
ATOM     11  N   UNL     1       7.857   5.384  13.921  0.00  0.00    +0.000 N 
ATOM     12  C   UNL     1       7.086   5.246  15.008  0.00  0.00    +0.000 A 
ATOM     13  N   UNL     1       7.316   5.768  16.231  0.00  0.00    +0.000 NA
ATOM     14  C   UNL     1       6.404   5.550  17.219  0.00  0.00    +0.000 A 
ATOM     15  C   UNL     1       5.227   4.770  16.984  0.00  0.00    +0.000 A 
ATOM     16  C   UNL     1       5.026   4.213  15.699  0.00  0.00    +0.000 A 
ATOM     17  C   UNL     1       5.984   4.490  14.726  0.00  0.00    +0.000 A 
ATOM     18  H   UNL     1       8.756   5.911  13.835  0.00  0.00    +0.000 HD
ENDBRANCH   1  15
BRANCH   5  19
ATOM     19  C   UNL     1       1.937   6.932  20.076  0.00  0.00    +0.000 C 
ATOM     20  O   UNL     1       1.349   6.888  21.148  0.00  0.00    +0.000 OA
ATOM     21  N   UNL     1       1.921   8.093  19.343  0.00  0.00    +0.000 N 
ATOM     22  H   UNL     1       2.414   8.171  18.452  0.00  0.00    +0.000 HD
BRANCH  21  23
ATOM     23  C   UNL     1       1.195   9.288  19.726  0.00  0.00    +0.000 C 
BRANCH  23  24
ATOM     24  C   UNL     1       0.986  10.155  18.477  0.00  0.00    +0.000 C 
BRANCH  24  25
ATOM     25  N   UNL     1       1.954   9.803  17.445  0.00  0.00    +0.000 NA
ATOM     26  H   UNL     1       1.699   8.873  17.044  0.00  0.00    +0.000 HD
ATOM     27  H   UNL     1       2.893   9.709  17.897  0.00  0.00    +0.000 HD
ENDBRANCH  24  25
ENDBRANCH  23  24
ENDBRANCH  21  23
ENDBRANCH   5  19
TORSDOF 5
ENDMDL
