MODEL 1
REMARK VINA RESULT:      -7.8      0.000      0.000
REMARK  Name = 
REMARK  6 active torsions:
REMARK  status: ('A' for Active; 'I' for Inactive)
REMARK    1  A    between atoms: C_1  and  O_2
REMARK    2  A    between atoms: O_2  and  C_3
REMARK    3  A    between atoms: C_6  and  O_7
REMARK    4  A    between atoms: O_7  and  C_8
REMARK    5  A    between atoms: C_8  and  C_9
REMARK    6  A    between atoms: C_9  and  N_10
REMARK                            x       y       z     vdW  Elec       q    Type
REMARK                         _______ _______ _______ _____ _____    ______ ____
ROOT
ATOM      1  N   UNL     1       6.182   4.045  18.176  0.00  0.00    +0.000 N 
ATOM      2  C   UNL     1       5.147   4.782  18.693  0.00  0.00    +0.000 C 
ATOM      3  O   UNL     1       5.084   6.000  18.566  0.00  0.00    +0.000 OA
ATOM      4  N   UNL     1       4.195   4.064  19.396  0.00  0.00    +0.000 N 
ATOM      5  C   UNL     1       4.184   2.616  19.623  0.00  0.00    +0.000 C 
ATOM      6  C   UNL     1       3.003   1.979  18.920  0.00  0.00    +0.000 C 
ATOM      7  S   UNL     1       1.492   2.674  19.545  0.00  0.00    +0.000 S 
ATOM      8  O   UNL     1       0.426   2.303  18.631  0.00  0.00    +0.000 OA
ATOM      9  O   UNL     1       1.394   2.347  20.956  0.00  0.00    +0.000 OA
ATOM     10  C   UNL     1       1.760   4.424  19.392  0.00  0.00    +0.000 C 
ATOM     11  C   UNL     1       3.086   4.798  20.017  0.00  0.00    +0.000 C 
ATOM     12  H   UNL     1       5.928   3.139  17.821  0.00  0.00    +0.000 HD
ENDROOT
BRANCH   1  13
ATOM     13  C   UNL     1       7.263   4.690  17.440  0.00  0.00    +0.000 C 
BRANCH  13  14
ATOM     14  C   UNL     1       6.809   5.835  16.527  0.00  0.00    +0.000 C 
BRANCH  14  15
ATOM     15  O   UNL     1       7.469   5.710  15.265  0.00  0.00    +0.000 OA
BRANCH  15  19
ATOM     16  C   UNL     1       5.776   3.250  12.344  0.00  0.00    +0.000 A 
ATOM     17  C   UNL     1       7.036   3.828  12.190  0.00  0.00    +0.000 A 
ATOM     18  C   UNL     1       7.573   4.637  13.194  0.00  0.00    +0.000 A 
ATOM     19  C   UNL     1       6.840   4.909  14.348  0.00  0.00    +0.000 A 
ATOM     20  C   UNL     1       5.576   4.337  14.502  0.00  0.00    +0.000 A 
ATOM     21  C   UNL     1       5.044   3.512  13.499  0.00  0.00    +0.000 A 
BRANCH  16  23
ATOM     22  C   UNL     1       6.142   1.331  11.016  0.00  0.00    +0.000 C 
ATOM     23  O   UNL     1       5.353   2.482  11.295  0.00  0.00    +0.000 OA
ENDBRANCH  16  23
ENDBRANCH  15  19
ENDBRANCH  14  15
ENDBRANCH  13  14
ENDBRANCH   1  13
TORSDOF 5
ENDMDL
MODEL 2
REMARK VINA RESULT:      -7.7      1.247      2.141
REMARK  Name = 
REMARK  6 active torsions:
REMARK  status: ('A' for Active; 'I' for Inactive)
REMARK    1  A    between atoms: C_1  and  O_2
REMARK    2  A    between atoms: O_2  and  C_3
REMARK    3  A    between atoms: C_6  and  O_7
REMARK    4  A    between atoms: O_7  and  C_8
REMARK    5  A    between atoms: C_8  and  C_9
REMARK    6  A    between atoms: C_9  and  N_10
REMARK                            x       y       z     vdW  Elec       q    Type
REMARK                         _______ _______ _______ _____ _____    ______ ____
ROOT
ATOM      1  N   UNL     1       5.211   5.920  18.024  0.00  0.00    +0.000 N 
ATOM      2  C   UNL     1       5.382   4.631  18.462  0.00  0.00    +0.000 C 
ATOM      3  O   UNL     1       6.485   4.102  18.518  0.00  0.00    +0.000 OA
ATOM      4  N   UNL     1       4.222   3.958  18.805  0.00  0.00    +0.000 N 
ATOM      5  C   UNL     1       2.856   4.489  18.757  0.00  0.00    +0.000 C 
ATOM      6  C   UNL     1       2.276   4.584  20.153  0.00  0.00    +0.000 C 
ATOM      7  S   UNL     1       2.244   2.970  20.896  0.00  0.00    +0.000 S 
ATOM      8  O   UNL     1       2.012   3.146  22.319  0.00  0.00    +0.000 OA
ATOM      9  O   UNL     1       1.363   2.128  20.109  0.00  0.00    +0.000 OA
ATOM     10  C   UNL     1       3.911   2.394  20.681  0.00  0.00    +0.000 C 
ATOM     11  C   UNL     1       4.329   2.559  19.235  0.00  0.00    +0.000 C 
ATOM     12  H   UNL     1       4.493   6.443  18.497  0.00  0.00    +0.000 HD
ENDROOT
BRANCH   1  13
ATOM     13  C   UNL     1       6.353   6.724  17.605  0.00  0.00    +0.000 C 
BRANCH  13  14
ATOM     14  C   UNL     1       6.558   6.785  16.087  0.00  0.00    +0.000 C 
BRANCH  14  15
ATOM     15  O   UNL     1       7.411   5.707  15.692  0.00  0.00    +0.000 OA
BRANCH  15  19
ATOM     16  C   UNL     1       5.895   3.482  12.498  0.00  0.00    +0.000 A 
ATOM     17  C   UNL     1       5.263   3.524  13.741  0.00  0.00    +0.000 A 
ATOM     18  C   UNL     1       5.795   4.289  14.782  0.00  0.00    +0.000 A 
ATOM     19  C   UNL     1       6.988   4.989  14.605  0.00  0.00    +0.000 A 
ATOM     20  C   UNL     1       7.625   4.943  13.363  0.00  0.00    +0.000 A 
ATOM     21  C   UNL     1       7.082   4.187  12.314  0.00  0.00    +0.000 A 
BRANCH  16  23
ATOM     22  C   UNL     1       4.006   3.142  11.122  0.00  0.00    +0.000 C 
ATOM     23  O   UNL     1       5.286   2.698  11.559  0.00  0.00    +0.000 OA
ENDBRANCH  16  23
ENDBRANCH  15  19
ENDBRANCH  14  15
ENDBRANCH  13  14
ENDBRANCH   1  13
TORSDOF 5
ENDMDL
MODEL 3
REMARK VINA RESULT:      -7.6      1.091      1.594
REMARK  Name = 
REMARK  6 active torsions:
REMARK  status: ('A' for Active; 'I' for Inactive)
REMARK    1  A    between atoms: C_1  and  O_2
REMARK    2  A    between atoms: O_2  and  C_3
REMARK    3  A    between atoms: C_6  and  O_7
REMARK    4  A    between atoms: O_7  and  C_8
REMARK    5  A    between atoms: C_8  and  C_9
REMARK    6  A    between atoms: C_9  and  N_10
REMARK                            x       y       z     vdW  Elec       q    Type
REMARK                         _______ _______ _______ _____ _____    ______ ____
ROOT
ATOM      1  N   UNL     1       5.748   5.644  18.336  0.00  0.00    +0.000 N 
ATOM      2  C   UNL     1       4.478   5.918  17.896  0.00  0.00    +0.000 C 
ATOM      3  O   UNL     1       4.263   6.631  16.923  0.00  0.00    +0.000 OA
ATOM      4  N   UNL     1       3.455   5.360  18.643  0.00  0.00    +0.000 N 
ATOM      5  C   UNL     1       3.601   4.511  19.829  0.00  0.00    +0.000 C 
ATOM      6  C   UNL     1       3.092   3.113  19.545  0.00  0.00    +0.000 C 
ATOM      7  S   UNL     1       1.375   3.184  19.092  0.00  0.00    +0.000 S 
ATOM      8  O   UNL     1       1.021   1.902  18.506  0.00  0.00    +0.000 OA
ATOM      9  O   UNL     1       0.630   3.703  20.224  0.00  0.00    +0.000 OA
ATOM     10  C   UNL     1       1.350   4.402  17.798  0.00  0.00    +0.000 C 
ATOM     11  C   UNL     1       2.070   5.653  18.255  0.00  0.00    +0.000 C 
ATOM     12  H   UNL     1       5.888   4.715  18.695  0.00  0.00    +0.000 HD
ENDROOT
BRANCH   1  13
ATOM     13  C   UNL     1       6.911   6.198  17.652  0.00  0.00    +0.000 C 
BRANCH  13  14
ATOM     14  C   UNL     1       7.583   5.232  16.669  0.00  0.00    +0.000 C 
BRANCH  14  15
ATOM     15  O   UNL     1       7.581   5.821  15.366  0.00  0.00    +0.000 OA
BRANCH  15  19
ATOM     16  C   UNL     1       5.866   3.386  12.438  0.00  0.00    +0.000 A 
ATOM     17  C   UNL     1       5.293   3.548  13.700  0.00  0.00    +0.000 A 
ATOM     18  C   UNL     1       5.891   4.380  14.649  0.00  0.00    +0.000 A 
ATOM     19  C   UNL     1       7.091   5.030  14.362  0.00  0.00    +0.000 A 
ATOM     20  C   UNL     1       7.669   4.864  13.102  0.00  0.00    +0.000 A 
ATOM     21  C   UNL     1       7.059   4.040  12.144  0.00  0.00    +0.000 A 
BRANCH  16  23
ATOM     22  C   UNL     1       5.922   1.408  11.149  0.00  0.00    +0.000 C 
ATOM     23  O   UNL     1       5.194   2.546  11.595  0.00  0.00    +0.000 OA
ENDBRANCH  16  23
ENDBRANCH  15  19
ENDBRANCH  14  15
ENDBRANCH  13  14
ENDBRANCH   1  13
TORSDOF 5
ENDMDL
MODEL 4
REMARK VINA RESULT:      -7.5      1.293      1.923
REMARK  Name = 
REMARK  6 active torsions:
REMARK  status: ('A' for Active; 'I' for Inactive)
REMARK    1  A    between atoms: C_1  and  O_2
REMARK    2  A    between atoms: O_2  and  C_3
REMARK    3  A    between atoms: C_6  and  O_7
REMARK    4  A    between atoms: O_7  and  C_8
REMARK    5  A    between atoms: C_8  and  C_9
REMARK    6  A    between atoms: C_9  and  N_10
REMARK                            x       y       z     vdW  Elec       q    Type
REMARK                         _______ _______ _______ _____ _____    ______ ____
ROOT
ATOM      1  N   UNL     1       5.425   5.987  18.346  0.00  0.00    +0.000 N 
ATOM      2  C   UNL     1       5.292   4.631  18.502  0.00  0.00    +0.000 C 
ATOM      3  O   UNL     1       6.219   3.855  18.294  0.00  0.00    +0.000 OA
ATOM      4  N   UNL     1       4.034   4.194  18.878  0.00  0.00    +0.000 N 
ATOM      5  C   UNL     1       2.858   5.031  19.132  0.00  0.00    +0.000 C 
ATOM      6  C   UNL     1       2.457   4.950  20.591  0.00  0.00    +0.000 C 
ATOM      7  S   UNL     1       2.072   3.267  21.012  0.00  0.00    +0.000 S 
ATOM      8  O   UNL     1       2.029   3.175  22.461  0.00  0.00    +0.000 OA
ATOM      9  O   UNL     1       0.930   2.853  20.218  0.00  0.00    +0.000 OA
ATOM     10  C   UNL     1       3.502   2.374  20.449  0.00  0.00    +0.000 C 
ATOM     11  C   UNL     1       3.810   2.750  19.015  0.00  0.00    +0.000 C 
ATOM     12  H   UNL     1       4.918   6.548  19.009  0.00  0.00    +0.000 HD
ENDROOT
BRANCH   1  13
ATOM     13  C   UNL     1       6.694   6.569  17.923  0.00  0.00    +0.000 C 
BRANCH  13  14
ATOM     14  C   UNL     1       6.795   6.833  16.417  0.00  0.00    +0.000 C 
BRANCH  14  15
ATOM     15  O   UNL     1       7.571   5.793  15.816  0.00  0.00    +0.000 OA
BRANCH  15  19
ATOM     16  C   UNL     1       5.863   3.608  12.693  0.00  0.00    +0.000 A 
ATOM     17  C   UNL     1       7.116   4.210  12.580  0.00  0.00    +0.000 A 
ATOM     18  C   UNL     1       7.659   4.924  13.651  0.00  0.00    +0.000 A 
ATOM     19  C   UNL     1       6.938   5.078  14.834  0.00  0.00    +0.000 A 
ATOM     20  C   UNL     1       5.681   4.481  14.947  0.00  0.00    +0.000 A 
ATOM     21  C   UNL     1       5.143   3.751  13.877  0.00  0.00    +0.000 A 
BRANCH  16  23
ATOM     22  C   UNL     1       4.077   3.163  11.212  0.00  0.00    +0.000 C 
ATOM     23  O   UNL     1       5.433   2.939  11.581  0.00  0.00    +0.000 OA
ENDBRANCH  16  23
ENDBRANCH  15  19
ENDBRANCH  14  15
ENDBRANCH  13  14
ENDBRANCH   1  13
TORSDOF 5
ENDMDL
MODEL 5
REMARK VINA RESULT:      -7.5      5.015      7.444
REMARK  Name = 
REMARK  6 active torsions:
REMARK  status: ('A' for Active; 'I' for Inactive)
REMARK    1  A    between atoms: C_1  and  O_2
REMARK    2  A    between atoms: O_2  and  C_3
REMARK    3  A    between atoms: C_6  and  O_7
REMARK    4  A    between atoms: O_7  and  C_8
REMARK    5  A    between atoms: C_8  and  C_9
REMARK    6  A    between atoms: C_9  and  N_10
REMARK                            x       y       z     vdW  Elec       q    Type
REMARK                         _______ _______ _______ _____ _____    ______ ____
ROOT
ATOM      1  N   UNL     1       6.353   6.637  17.620  0.00  0.00    +0.000 N 
ATOM      2  C   UNL     1       6.007   5.377  17.201  0.00  0.00    +0.000 C 
ATOM      3  O   UNL     1       6.841   4.556  16.839  0.00  0.00    +0.000 OA
ATOM      4  N   UNL     1       4.650   5.106  17.184  0.00  0.00    +0.000 N 
ATOM      5  C   UNL     1       3.571   6.018  17.576  0.00  0.00    +0.000 C 
ATOM      6  C   UNL     1       2.858   5.495  18.806  0.00  0.00    +0.000 C 
ATOM      7  S   UNL     1       2.166   3.895  18.460  0.00  0.00    +0.000 S 
ATOM      8  O   UNL     1       1.800   3.291  19.729  0.00  0.00    +0.000 OA
ATOM      9  O   UNL     1       1.177   4.048  17.409  0.00  0.00    +0.000 OA
ATOM     10  C   UNL     1       3.548   2.993  17.803  0.00  0.00    +0.000 C 
ATOM     11  C   UNL     1       4.207   3.793  16.699  0.00  0.00    +0.000 C 
ATOM     12  H   UNL     1       5.795   7.008  18.370  0.00  0.00    +0.000 HD
ENDROOT
BRANCH   1  13
ATOM     13  C   UNL     1       7.750   7.054  17.655  0.00  0.00    +0.000 C 
BRANCH  13  14
ATOM     14  C   UNL     1       7.952   8.569  17.763  0.00  0.00    +0.000 C 
BRANCH  14  15
ATOM     15  O   UNL     1       8.742   8.850  18.922  0.00  0.00    +0.000 OA
BRANCH  15  19
ATOM     16  C   UNL     1       9.844  12.874  19.123  0.00  0.00    +0.000 A 
ATOM     17  C   UNL     1       9.316  12.304  17.964  0.00  0.00    +0.000 A 
ATOM     18  C   UNL     1       8.949  10.957  17.939  0.00  0.00    +0.000 A 
ATOM     19  C   UNL     1       9.142  10.152  19.061  0.00  0.00    +0.000 A 
ATOM     20  C   UNL     1       9.676  10.718  20.220  0.00  0.00    +0.000 A 
ATOM     21  C   UNL     1      10.030  12.076  20.249  0.00  0.00    +0.000 A 
BRANCH  16  23
ATOM     22  C   UNL     1      10.552  14.648  17.734  0.00  0.00    +0.000 C 
ATOM     23  O   UNL     1      10.169  14.198  19.028  0.00  0.00    +0.000 OA
ENDBRANCH  16  23
ENDBRANCH  15  19
ENDBRANCH  14  15
ENDBRANCH  13  14
ENDBRANCH   1  13
TORSDOF 5
ENDMDL
MODEL 6
REMARK VINA RESULT:      -7.5      5.351      9.747
REMARK  Name = 
REMARK  6 active torsions:
REMARK  status: ('A' for Active; 'I' for Inactive)
REMARK    1  A    between atoms: C_1  and  O_2
REMARK    2  A    between atoms: O_2  and  C_3
REMARK    3  A    between atoms: C_6  and  O_7
REMARK    4  A    between atoms: O_7  and  C_8
REMARK    5  A    between atoms: C_8  and  C_9
REMARK    6  A    between atoms: C_9  and  N_10
REMARK                            x       y       z     vdW  Elec       q    Type
REMARK                         _______ _______ _______ _____ _____    ______ ____
ROOT
ATOM      1  N   UNL     1       3.158   5.731  19.994  0.00  0.00    +0.000 N 
ATOM      2  C   UNL     1       3.256   5.379  18.671  0.00  0.00    +0.000 C 
ATOM      3  O   UNL     1       2.287   5.379  17.922  0.00  0.00    +0.000 OA
ATOM      4  N   UNL     1       4.517   4.995  18.247  0.00  0.00    +0.000 N 
ATOM      5  C   UNL     1       5.735   4.942  19.062  0.00  0.00    +0.000 C 
ATOM      6  C   UNL     1       6.743   5.960  18.572  0.00  0.00    +0.000 C 
ATOM      7  S   UNL     1       7.163   5.616  16.880  0.00  0.00    +0.000 S 
ATOM      8  O   UNL     1       7.849   6.783  16.351  0.00  0.00    +0.000 OA
ATOM      9  O   UNL     1       7.794   4.311  16.827  0.00  0.00    +0.000 OA
ATOM     10  C   UNL     1       5.577   5.506  16.085  0.00  0.00    +0.000 C 
ATOM     11  C   UNL     1       4.682   4.560  16.855  0.00  0.00    +0.000 C 
ATOM     12  H   UNL     1       3.947   6.234  20.364  0.00  0.00    +0.000 HD
ENDROOT
BRANCH   1  13
ATOM     13  C   UNL     1       1.878   6.126  20.568  0.00  0.00    +0.000 C 
BRANCH  13  14
ATOM     14  C   UNL     1       1.593   7.630  20.497  0.00  0.00    +0.000 C 
BRANCH  14  15
ATOM     15  O   UNL     1       1.177   8.084  21.788  0.00  0.00    +0.000 OA
BRANCH  15  19
ATOM     16  C   UNL     1      -1.120  11.562  22.070  0.00  0.00    +0.000 A 
ATOM     17  C   UNL     1      -0.995  10.665  23.132  0.00  0.00    +0.000 A 
ATOM     18  C   UNL     1      -0.209   9.517  23.002  0.00  0.00    +0.000 A 
ATOM     19  C   UNL     1       0.431   9.232  21.797  0.00  0.00    +0.000 A 
ATOM     20  C   UNL     1       0.303  10.126  20.731  0.00  0.00    +0.000 A 
ATOM     21  C   UNL     1      -0.475  11.286  20.867  0.00  0.00    +0.000 A 
BRANCH  16  23
ATOM     22  C   UNL     1      -1.399  13.599  23.232  0.00  0.00    +0.000 C 
ATOM     23  O   UNL     1      -1.917  12.645  22.311  0.00  0.00    +0.000 OA
ENDBRANCH  16  23
ENDBRANCH  15  19
ENDBRANCH  14  15
ENDBRANCH  13  14
ENDBRANCH   1  13
TORSDOF 5
ENDMDL
MODEL 7
REMARK VINA RESULT:      -7.5      0.823      1.376
REMARK  Name = 
REMARK  6 active torsions:
REMARK  status: ('A' for Active; 'I' for Inactive)
REMARK    1  A    between atoms: C_1  and  O_2
REMARK    2  A    between atoms: O_2  and  C_3
REMARK    3  A    between atoms: C_6  and  O_7
REMARK    4  A    between atoms: O_7  and  C_8
REMARK    5  A    between atoms: C_8  and  C_9
REMARK    6  A    between atoms: C_9  and  N_10
REMARK                            x       y       z     vdW  Elec       q    Type
REMARK                         _______ _______ _______ _____ _____    ______ ____
ROOT
ATOM      1  N   UNL     1       5.461   4.942  18.032  0.00  0.00    +0.000 N 
ATOM      2  C   UNL     1       4.350   5.457  18.649  0.00  0.00    +0.000 C 
ATOM      3  O   UNL     1       4.030   6.635  18.541  0.00  0.00    +0.000 OA
ATOM      4  N   UNL     1       3.631   4.566  19.426  0.00  0.00    +0.000 N 
ATOM      5  C   UNL     1       3.935   3.147  19.637  0.00  0.00    +0.000 C 
ATOM      6  C   UNL     1       2.849   2.279  19.037  0.00  0.00    +0.000 C 
ATOM      7  S   UNL     1       1.291   2.657  19.804  0.00  0.00    +0.000 S 
ATOM      8  O   UNL     1       0.244   2.070  18.985  0.00  0.00    +0.000 OA
ATOM      9  O   UNL     1       1.389   2.328  21.214  0.00  0.00    +0.000 OA
ATOM     10  C   UNL     1       1.183   4.424  19.646  0.00  0.00    +0.000 C 
ATOM     11  C   UNL     1       2.457   5.064  20.153  0.00  0.00    +0.000 C 
ATOM     12  H   UNL     1       5.366   4.000  17.692  0.00  0.00    +0.000 HD
ENDROOT
BRANCH   1  13
ATOM     13  C   UNL     1       6.318   5.787  17.210  0.00  0.00    +0.000 C 
BRANCH  13  14
ATOM     14  C   UNL     1       7.442   5.034  16.490  0.00  0.00    +0.000 C 
BRANCH  14  15
ATOM     15  O   UNL     1       7.612   5.593  15.184  0.00  0.00    +0.000 OA
BRANCH  15  19
ATOM     16  C   UNL     1       5.725   3.359  12.201  0.00  0.00    +0.000 A 
ATOM     17  C   UNL     1       5.228   3.431  13.503  0.00  0.00    +0.000 A 
ATOM     18  C   UNL     1       5.882   4.198  14.470  0.00  0.00    +0.000 A 
ATOM     19  C   UNL     1       7.063   4.871  14.159  0.00  0.00    +0.000 A 
ATOM     20  C   UNL     1       7.565   4.795  12.858  0.00  0.00    +0.000 A 
ATOM     21  C   UNL     1       6.899   4.037  11.882  0.00  0.00    +0.000 A 
BRANCH  16  23
ATOM     22  C   UNL     1       3.767   3.124  10.902  0.00  0.00    +0.000 C 
ATOM     23  O   UNL     1       5.004   2.577  11.343  0.00  0.00    +0.000 OA
ENDBRANCH  16  23
ENDBRANCH  15  19
ENDBRANCH  14  15
ENDBRANCH  13  14
ENDBRANCH   1  13
TORSDOF 5
ENDMDL
MODEL 8
REMARK VINA RESULT:      -7.4      3.890      7.782
REMARK  Name = 
REMARK  6 active torsions:
REMARK  status: ('A' for Active; 'I' for Inactive)
REMARK    1  A    between atoms: C_1  and  O_2
REMARK    2  A    between atoms: O_2  and  C_3
REMARK    3  A    between atoms: C_6  and  O_7
REMARK    4  A    between atoms: O_7  and  C_8
REMARK    5  A    between atoms: C_8  and  C_9
REMARK    6  A    between atoms: C_9  and  N_10
REMARK                            x       y       z     vdW  Elec       q    Type
REMARK                         _______ _______ _______ _____ _____    ______ ____
ROOT
ATOM      1  N   UNL     1       3.201   4.057  19.567  0.00  0.00    +0.000 N 
ATOM      2  C   UNL     1       3.309   4.189  18.205  0.00  0.00    +0.000 C 
ATOM      3  O   UNL     1       2.327   4.285  17.478  0.00  0.00    +0.000 OA
ATOM      4  N   UNL     1       4.599   4.175  17.705  0.00  0.00    +0.000 N 
ATOM      5  C   UNL     1       5.837   4.047  18.480  0.00  0.00    +0.000 C 
ATOM      6  C   UNL     1       6.656   5.317  18.382  0.00  0.00    +0.000 C 
ATOM      7  S   UNL     1       7.068   5.631  16.682  0.00  0.00    +0.000 S 
ATOM      8  O   UNL     1       7.543   7.001  16.591  0.00  0.00    +0.000 OA
ATOM      9  O   UNL     1       7.894   4.537  16.208  0.00  0.00    +0.000 OA
ATOM     10  C   UNL     1       5.494   5.543  15.863  0.00  0.00    +0.000 C 
ATOM     11  C   UNL     1       4.784   4.263  16.251  0.00  0.00    +0.000 C 
ATOM     12  H   UNL     1       3.913   4.525  20.102  0.00  0.00    +0.000 HD
ENDROOT
BRANCH   1  13
ATOM     13  C   UNL     1       1.894   4.027  20.212  0.00  0.00    +0.000 C 
BRANCH  13  14
ATOM     14  C   UNL     1       1.372   5.404  20.640  0.00  0.00    +0.000 C 
BRANCH  14  15
ATOM     15  O   UNL     1       2.371   6.387  20.358  0.00  0.00    +0.000 OA
BRANCH  15  19
ATOM     16  C   UNL     1       0.978  10.122  19.112  0.00  0.00    +0.000 A 
ATOM     17  C   UNL     1       1.677   9.267  18.259  0.00  0.00    +0.000 A 
ATOM     18  C   UNL     1       2.118   8.021  18.710  0.00  0.00    +0.000 A 
ATOM     19  C   UNL     1       1.899   7.630  20.031  0.00  0.00    +0.000 A 
ATOM     20  C   UNL     1       1.205   8.487  20.887  0.00  0.00    +0.000 A 
ATOM     21  C   UNL     1       0.748   9.732  20.429  0.00  0.00    +0.000 A 
BRANCH  16  23
ATOM     22  C   UNL     1       1.224  12.471  19.108  0.00  0.00    +0.000 C 
ATOM     23  O   UNL     1       0.600  11.315  18.562  0.00  0.00    +0.000 OA
ENDBRANCH  16  23
ENDBRANCH  15  19
ENDBRANCH  14  15
ENDBRANCH  13  14
ENDBRANCH   1  13
TORSDOF 5
ENDMDL
MODEL 9
REMARK VINA RESULT:      -7.4      5.371      9.727
REMARK  Name = 
REMARK  6 active torsions:
REMARK  status: ('A' for Active; 'I' for Inactive)
REMARK    1  A    between atoms: C_1  and  O_2
REMARK    2  A    between atoms: O_2  and  C_3
REMARK    3  A    between atoms: C_6  and  O_7
REMARK    4  A    between atoms: O_7  and  C_8
REMARK    5  A    between atoms: C_8  and  C_9
REMARK    6  A    between atoms: C_9  and  N_10
REMARK                            x       y       z     vdW  Elec       q    Type
REMARK                         _______ _______ _______ _____ _____    ______ ____
ROOT
ATOM      1  N   UNL     1       3.100   5.840  20.059  0.00  0.00    +0.000 N 
ATOM      2  C   UNL     1       3.176   5.523  18.726  0.00  0.00    +0.000 C 
ATOM      3  O   UNL     1       2.201   5.575  17.986  0.00  0.00    +0.000 OA
ATOM      4  N   UNL     1       4.420   5.110  18.281  0.00  0.00    +0.000 N 
ATOM      5  C   UNL     1       5.642   4.995  19.083  0.00  0.00    +0.000 C 
ATOM      6  C   UNL     1       6.679   5.992  18.613  0.00  0.00    +0.000 C 
ATOM      7  S   UNL     1       7.075   5.683  16.908  0.00  0.00    +0.000 S 
ATOM      8  O   UNL     1       7.794   6.841  16.406  0.00  0.00    +0.000 OA
ATOM      9  O   UNL     1       7.662   4.359  16.814  0.00  0.00    +0.000 OA
ATOM     10  C   UNL     1       5.480   5.647  16.125  0.00  0.00    +0.000 C 
ATOM     11  C   UNL     1       4.560   4.709  16.876  0.00  0.00    +0.000 C 
ATOM     12  H   UNL     1       3.907   6.307  20.436  0.00  0.00    +0.000 HD
ENDROOT
BRANCH   1  13
ATOM     13  C   UNL     1       1.838   6.260  20.655  0.00  0.00    +0.000 C 
BRANCH  13  14
ATOM     14  C   UNL     1       1.555   7.763  20.539  0.00  0.00    +0.000 C 
BRANCH  14  15
ATOM     15  O   UNL     1       1.518   8.329  21.852  0.00  0.00    +0.000 OA
BRANCH  15  19
ATOM     16  C   UNL     1      -1.093  11.579  22.113  0.00  0.00    +0.000 A 
ATOM     17  C   UNL     1      -0.224  11.408  21.035  0.00  0.00    +0.000 A 
ATOM     18  C   UNL     1       0.627  10.302  20.979  0.00  0.00    +0.000 A 
ATOM     19  C   UNL     1       0.648   9.373  22.018  0.00  0.00    +0.000 A 
ATOM     20  C   UNL     1      -0.216   9.546  23.102  0.00  0.00    +0.000 A 
ATOM     21  C   UNL     1      -1.082  10.649  23.151  0.00  0.00    +0.000 A 
BRANCH  16  23
ATOM     22  C   UNL     1      -2.377  13.158  23.312  0.00  0.00    +0.000 C 
ATOM     23  O   UNL     1      -1.875  12.699  22.062  0.00  0.00    +0.000 OA
ENDBRANCH  16  23
ENDBRANCH  15  19
ENDBRANCH  14  15
ENDBRANCH  13  14
ENDBRANCH   1  13
TORSDOF 5
ENDMDL
