MODEL 1
REMARK VINA RESULT:      -8.2      0.000      0.000
REMARK  Name = 
REMARK  3 active torsions:
REMARK  status: ('A' for Active; 'I' for Inactive)
REMARK    1  A    between atoms: C_2  and  C_18
REMARK    2  A    between atoms: C_6  and  N_7
REMARK    3  A    between atoms: N_7  and  C_8
REMARK                            x       y       z     vdW  Elec       q    Type
REMARK                         _______ _______ _______ _____ _____    ______ ____
ROOT
ATOM      1  O   UNL     1       4.696   3.780  14.310  0.00  0.00    +0.000 OA
ATOM      2  C   UNL     1       5.829   3.987  13.882  0.00  0.00    +0.000 C 
ATOM      3  N   UNL     1       6.877   4.500  14.606  0.00  0.00    +0.000 N 
ATOM      4  C   UNL     1       6.795   4.861  15.954  0.00  0.00    +0.000 A 
ATOM      5  C   UNL     1       6.097   4.100  16.880  0.00  0.00    +0.000 A 
ATOM      6  C   UNL     1       6.037   4.522  18.215  0.00  0.00    +0.000 A 
ATOM      7  C   UNL     1       6.642   5.734  18.536  0.00  0.00    +0.000 A 
ATOM      8  C   UNL     1       7.331   6.419  17.547  0.00  0.00    +0.000 A 
ATOM      9  N   UNL     1       7.459   5.985  16.276  0.00  0.00    +0.000 NA
ATOM     10  H   UNL     1       7.616   4.977  14.107  0.00  0.00    +0.000 HD
ENDROOT
BRANCH   2  11
ATOM     11  C   UNL     1       6.091   3.735  12.432  0.00  0.00    +0.000 C 
ATOM     12  C   UNL     1       6.183   2.348  11.843  0.00  0.00    +0.000 C 
ATOM     13  C   UNL     1       5.021   3.233  11.491  0.00  0.00    +0.000 C 
ENDBRANCH   2  11
BRANCH   6  14
ATOM     14  N   UNL     1       5.321   3.825  19.210  0.00  0.00    +0.000 N 
ATOM     15  H   UNL     1       5.796   3.004  19.579  0.00  0.00    +0.000 HD
BRANCH  14  16
ATOM     16  C   UNL     1       3.935   3.844  19.487  0.00  0.00    +0.000 A 
ATOM     17  C   UNL     1       3.354   4.991  20.044  0.00  0.00    +0.000 A 
ATOM     18  C   UNL     1       1.977   5.071  20.258  0.00  0.00    +0.000 A 
ATOM     19  C   UNL     1       1.155   4.005  19.912  0.00  0.00    +0.000 A 
ATOM     20  C   UNL     1       1.706   2.848  19.358  0.00  0.00    +0.000 A 
ATOM     21  C   UNL     1       3.091   2.768  19.156  0.00  0.00    +0.000 A 
ATOM     22 CL   UNL     1       3.722   1.331  18.431  0.00  0.00    +0.000 Cl
ENDBRANCH  14  16
ENDBRANCH   6  14
TORSDOF 3
ENDMDL
MODEL 2
REMARK VINA RESULT:      -8.0      3.048      7.241
REMARK  Name = 
REMARK  3 active torsions:
REMARK  status: ('A' for Active; 'I' for Inactive)
REMARK    1  A    between atoms: C_2  and  C_18
REMARK    2  A    between atoms: C_6  and  N_7
REMARK    3  A    between atoms: N_7  and  C_8
REMARK                            x       y       z     vdW  Elec       q    Type
REMARK                         _______ _______ _______ _____ _____    ______ ____
ROOT
ATOM      1  O   UNL     1       2.396   7.682  19.096  0.00  0.00    +0.000 OA
ATOM      2  C   UNL     1       1.809   7.551  20.167  0.00  0.00    +0.000 C 
ATOM      3  N   UNL     1       1.703   6.387  20.886  0.00  0.00    +0.000 N 
ATOM      4  C   UNL     1       2.261   5.168  20.489  0.00  0.00    +0.000 A 
ATOM      5  C   UNL     1       3.521   5.087  19.913  0.00  0.00    +0.000 A 
ATOM      6  C   UNL     1       4.021   3.838  19.520  0.00  0.00    +0.000 A 
ATOM      7  C   UNL     1       3.189   2.732  19.677  0.00  0.00    +0.000 A 
ATOM      8  C   UNL     1       1.951   2.908  20.276  0.00  0.00    +0.000 A 
ATOM      9  N   UNL     1       1.490   4.093  20.727  0.00  0.00    +0.000 NA
ATOM     10  H   UNL     1       0.921   6.283  21.518  0.00  0.00    +0.000 HD
ENDROOT
BRANCH   2  11
ATOM     11  C   UNL     1       1.077   8.734  20.717  0.00  0.00    +0.000 C 
ATOM     12  C   UNL     1      -0.090   8.608  21.667  0.00  0.00    +0.000 C 
ATOM     13  C   UNL     1       1.214   9.174  22.156  0.00  0.00    +0.000 C 
ENDBRANCH   2  11
BRANCH   6  14
ATOM     14  N   UNL     1       5.275   3.673  18.898  0.00  0.00    +0.000 N 
ATOM     15  H   UNL     1       6.035   3.434  19.530  0.00  0.00    +0.000 HD
BRANCH  14  16
ATOM     16  C   UNL     1       5.718   4.159  17.646  0.00  0.00    +0.000 A 
ATOM     17  C   UNL     1       5.016   3.818  16.482  0.00  0.00    +0.000 A 
ATOM     18  C   UNL     1       5.380   4.343  15.241  0.00  0.00    +0.000 A 
ATOM     19  C   UNL     1       6.452   5.222  15.143  0.00  0.00    +0.000 A 
ATOM     20  C   UNL     1       7.172   5.576  16.285  0.00  0.00    +0.000 A 
ATOM     21  C   UNL     1       6.809   5.038  17.528  0.00  0.00    +0.000 A 
ATOM     22 CL   UNL     1       7.706   5.537  18.920  0.00  0.00    +0.000 Cl
ENDBRANCH  14  16
ENDBRANCH   6  14
TORSDOF 3
ENDMDL
MODEL 3
REMARK VINA RESULT:      -7.9      1.231      1.640
REMARK  Name = 
REMARK  3 active torsions:
REMARK  status: ('A' for Active; 'I' for Inactive)
REMARK    1  A    between atoms: C_2  and  C_18
REMARK    2  A    between atoms: C_6  and  N_7
REMARK    3  A    between atoms: N_7  and  C_8
REMARK                            x       y       z     vdW  Elec       q    Type
REMARK                         _______ _______ _______ _____ _____    ______ ____
ROOT
ATOM      1  O   UNL     1       4.695   3.868  14.264  0.00  0.00    +0.000 OA
ATOM      2  C   UNL     1       5.836   4.019  13.834  0.00  0.00    +0.000 C 
ATOM      3  N   UNL     1       6.897   4.530  14.541  0.00  0.00    +0.000 N 
ATOM      4  C   UNL     1       6.820   4.954  15.870  0.00  0.00    +0.000 A 
ATOM      5  C   UNL     1       6.093   4.258  16.826  0.00  0.00    +0.000 A 
ATOM      6  C   UNL     1       6.041   4.741  18.140  0.00  0.00    +0.000 A 
ATOM      7  C   UNL     1       6.684   5.947  18.410  0.00  0.00    +0.000 A 
ATOM      8  C   UNL     1       7.399   6.564  17.395  0.00  0.00    +0.000 A 
ATOM      9  N   UNL     1       7.519   6.069  16.146  0.00  0.00    +0.000 NA
ATOM     10  H   UNL     1       7.653   4.960  14.025  0.00  0.00    +0.000 HD
ENDROOT
BRANCH   2  11
ATOM     11  C   UNL     1       6.096   3.694  12.398  0.00  0.00    +0.000 C 
ATOM     12  C   UNL     1       6.103   2.281  11.865  0.00  0.00    +0.000 C 
ATOM     13  C   UNL     1       5.005   3.226  11.463  0.00  0.00    +0.000 C 
ENDBRANCH   2  11
BRANCH   6  14
ATOM     14  N   UNL     1       5.299   4.113  19.161  0.00  0.00    +0.000 N 
ATOM     15  H   UNL     1       5.860   3.671  19.885  0.00  0.00    +0.000 HD
BRANCH  14  16
ATOM     16  C   UNL     1       3.957   3.665  19.138  0.00  0.00    +0.000 A 
ATOM     17  C   UNL     1       3.684   2.298  18.998  0.00  0.00    +0.000 A 
ATOM     18  C   UNL     1       2.376   1.816  19.049  0.00  0.00    +0.000 A 
ATOM     19  C   UNL     1       1.316   2.693  19.247  0.00  0.00    +0.000 A 
ATOM     20  C   UNL     1       1.558   4.060  19.387  0.00  0.00    +0.000 A 
ATOM     21  C   UNL     1       2.873   4.542  19.323  0.00  0.00    +0.000 A 
ATOM     22 CL   UNL     1       3.126   6.239  19.541  0.00  0.00    +0.000 Cl
ENDBRANCH  14  16
ENDBRANCH   6  14
TORSDOF 3
ENDMDL
MODEL 4
REMARK VINA RESULT:      -7.9      1.790      2.115
REMARK  Name = 
REMARK  3 active torsions:
REMARK  status: ('A' for Active; 'I' for Inactive)
REMARK    1  A    between atoms: C_2  and  C_18
REMARK    2  A    between atoms: C_6  and  N_7
REMARK    3  A    between atoms: N_7  and  C_8
REMARK                            x       y       z     vdW  Elec       q    Type
REMARK                         _______ _______ _______ _____ _____    ______ ____
ROOT
ATOM      1  O   UNL     1       5.178   4.906  14.522  0.00  0.00    +0.000 OA
ATOM      2  C   UNL     1       6.050   4.040  14.502  0.00  0.00    +0.000 C 
ATOM      3  N   UNL     1       6.856   3.690  15.556  0.00  0.00    +0.000 N 
ATOM      4  C   UNL     1       6.792   4.282  16.821  0.00  0.00    +0.000 A 
ATOM      5  C   UNL     1       5.584   4.606  17.423  0.00  0.00    +0.000 A 
ATOM      6  C   UNL     1       5.585   5.213  18.686  0.00  0.00    +0.000 A 
ATOM      7  C   UNL     1       6.819   5.518  19.255  0.00  0.00    +0.000 A 
ATOM      8  C   UNL     1       7.974   5.142  18.586  0.00  0.00    +0.000 A 
ATOM      9  N   UNL     1       7.985   4.489  17.405  0.00  0.00    +0.000 NA
ATOM     10  H   UNL     1       7.753   3.270  15.354  0.00  0.00    +0.000 HD
ENDROOT
BRANCH   2  11
ATOM     11  C   UNL     1       6.322   3.347  13.205  0.00  0.00    +0.000 C 
ATOM     12  C   UNL     1       5.389   3.427  12.020  0.00  0.00    +0.000 C 
ATOM     13  C   UNL     1       6.735   4.094  11.958  0.00  0.00    +0.000 C 
ENDBRANCH   2  11
BRANCH   6  14
ATOM     14  N   UNL     1       4.405   5.604  19.351  0.00  0.00    +0.000 N 
ATOM     15  H   UNL     1       4.476   6.477  19.867  0.00  0.00    +0.000 HD
BRANCH  14  16
ATOM     16  C   UNL     1       3.297   4.813  19.736  0.00  0.00    +0.000 A 
ATOM     17  C   UNL     1       3.418   3.417  19.764  0.00  0.00    +0.000 A 
ATOM     18  C   UNL     1       2.370   2.612  20.212  0.00  0.00    +0.000 A 
ATOM     19  C   UNL     1       1.182   3.190  20.645  0.00  0.00    +0.000 A 
ATOM     20  C   UNL     1       1.032   4.578  20.625  0.00  0.00    +0.000 A 
ATOM     21  C   UNL     1       2.084   5.382  20.163  0.00  0.00    +0.000 A 
ATOM     22 CL   UNL     1       1.866   7.098  20.194  0.00  0.00    +0.000 Cl
ENDBRANCH  14  16
ENDBRANCH   6  14
TORSDOF 3
ENDMDL
MODEL 5
REMARK VINA RESULT:      -7.9      1.210      1.438
REMARK  Name = 
REMARK  3 active torsions:
REMARK  status: ('A' for Active; 'I' for Inactive)
REMARK    1  A    between atoms: C_2  and  C_18
REMARK    2  A    between atoms: C_6  and  N_7
REMARK    3  A    between atoms: N_7  and  C_8
REMARK                            x       y       z     vdW  Elec       q    Type
REMARK                         _______ _______ _______ _____ _____    ______ ____
ROOT
ATOM      1  O   UNL     1       4.933   4.487  14.620  0.00  0.00    +0.000 OA
ATOM      2  C   UNL     1       6.036   3.951  14.538  0.00  0.00    +0.000 C 
ATOM      3  N   UNL     1       6.970   3.882  15.542  0.00  0.00    +0.000 N 
ATOM      4  C   UNL     1       6.789   4.424  16.817  0.00  0.00    +0.000 A 
ATOM      5  C   UNL     1       5.578   4.340  17.489  0.00  0.00    +0.000 A 
ATOM      6  C   UNL     1       5.452   4.917  18.760  0.00  0.00    +0.000 A 
ATOM      7  C   UNL     1       6.552   5.606  19.267  0.00  0.00    +0.000 A 
ATOM      8  C   UNL     1       7.726   5.623  18.530  0.00  0.00    +0.000 A 
ATOM      9  N   UNL     1       7.882   5.007  17.340  0.00  0.00    +0.000 NA
ATOM     10  H   UNL     1       7.942   3.775  15.285  0.00  0.00    +0.000 HD
ENDROOT
BRANCH   2  11
ATOM     11  C   UNL     1       6.444   3.381  13.217  0.00  0.00    +0.000 C 
ATOM     12  C   UNL     1       5.584   3.479  11.980  0.00  0.00    +0.000 C 
ATOM     13  C   UNL     1       6.873   4.249  12.057  0.00  0.00    +0.000 C 
ENDBRANCH   2  11
BRANCH   6  14
ATOM     14  N   UNL     1       4.249   4.906  19.494  0.00  0.00    +0.000 N 
ATOM     15  H   UNL     1       4.310   5.326  20.418  0.00  0.00    +0.000 HD
BRANCH  14  16
ATOM     16  C   UNL     1       3.112   4.081  19.326  0.00  0.00    +0.000 A 
ATOM     17  C   UNL     1       2.002   4.565  18.620  0.00  0.00    +0.000 A 
ATOM     18  C   UNL     1       0.897   3.751  18.370  0.00  0.00    +0.000 A 
ATOM     19  C   UNL     1       0.884   2.435  18.817  0.00  0.00    +0.000 A 
ATOM     20  C   UNL     1       1.974   1.927  19.526  0.00  0.00    +0.000 A 
ATOM     21  C   UNL     1       3.077   2.752  19.785  0.00  0.00    +0.000 A 
ATOM     22 CL   UNL     1       4.421   2.067  20.632  0.00  0.00    +0.000 Cl
ENDBRANCH  14  16
ENDBRANCH   6  14
TORSDOF 3
ENDMDL
MODEL 6
REMARK VINA RESULT:      -7.8      1.329      1.547
REMARK  Name = 
REMARK  3 active torsions:
REMARK  status: ('A' for Active; 'I' for Inactive)
REMARK    1  A    between atoms: C_2  and  C_18
REMARK    2  A    between atoms: C_6  and  N_7
REMARK    3  A    between atoms: N_7  and  C_8
REMARK                            x       y       z     vdW  Elec       q    Type
REMARK                         _______ _______ _______ _____ _____    ______ ____
ROOT
ATOM      1  O   UNL     1       4.618   3.902  12.591  0.00  0.00    +0.000 OA
ATOM      2  C   UNL     1       5.745   3.416  12.652  0.00  0.00    +0.000 C 
ATOM      3  N   UNL     1       6.578   3.458  13.742  0.00  0.00    +0.000 N 
ATOM      4  C   UNL     1       6.249   4.070  14.955  0.00  0.00    +0.000 A 
ATOM      5  C   UNL     1       4.982   3.969  15.512  0.00  0.00    +0.000 A 
ATOM      6  C   UNL     1       4.707   4.618  16.723  0.00  0.00    +0.000 A 
ATOM      7  C   UNL     1       5.720   5.391  17.285  0.00  0.00    +0.000 A 
ATOM      8  C   UNL     1       6.960   5.420  16.664  0.00  0.00    +0.000 A 
ATOM      9  N   UNL     1       7.258   4.739  15.539  0.00  0.00    +0.000 NA
ATOM     10  H   UNL     1       7.574   3.384  13.588  0.00  0.00    +0.000 HD
ENDROOT
BRANCH   2  11
ATOM     11  C   UNL     1       6.306   2.785  11.418  0.00  0.00    +0.000 C 
ATOM     12  C   UNL     1       7.539   1.914  11.429  0.00  0.00    +0.000 C 
ATOM     13  C   UNL     1       6.195   1.303  11.143  0.00  0.00    +0.000 C 
ENDBRANCH   2  11
BRANCH   6  14
ATOM     14  N   UNL     1       3.438   4.593  17.338  0.00  0.00    +0.000 N 
ATOM     15  H   UNL     1       2.727   5.147  16.868  0.00  0.00    +0.000 HD
BRANCH  14  16
ATOM     16  C   UNL     1       3.103   4.262  18.672  0.00  0.00    +0.000 A 
ATOM     17  C   UNL     1       2.699   5.271  19.557  0.00  0.00    +0.000 A 
ATOM     18  C   UNL     1       2.288   4.968  20.855  0.00  0.00    +0.000 A 
ATOM     19  C   UNL     1       2.269   3.649  21.291  0.00  0.00    +0.000 A 
ATOM     20  C   UNL     1       2.670   2.624  20.433  0.00  0.00    +0.000 A 
ATOM     21  C   UNL     1       3.093   2.934  19.133  0.00  0.00    +0.000 A 
ATOM     22 CL   UNL     1       3.542   1.626  18.093  0.00  0.00    +0.000 Cl
ENDBRANCH  14  16
ENDBRANCH   6  14
TORSDOF 3
ENDMDL
MODEL 7
REMARK VINA RESULT:      -7.7      1.036      1.118
REMARK  Name = 
REMARK  3 active torsions:
REMARK  status: ('A' for Active; 'I' for Inactive)
REMARK    1  A    between atoms: C_2  and  C_18
REMARK    2  A    between atoms: C_6  and  N_7
REMARK    3  A    between atoms: N_7  and  C_8
REMARK                            x       y       z     vdW  Elec       q    Type
REMARK                         _______ _______ _______ _____ _____    ______ ____
ROOT
ATOM      1  O   UNL     1       4.707   4.018  14.063  0.00  0.00    +0.000 OA
ATOM      2  C   UNL     1       5.868   4.103  13.669  0.00  0.00    +0.000 C 
ATOM      3  N   UNL     1       6.927   4.588  14.395  0.00  0.00    +0.000 N 
ATOM      4  C   UNL     1       6.826   5.060  15.707  0.00  0.00    +0.000 A 
ATOM      5  C   UNL     1       6.036   4.430  16.658  0.00  0.00    +0.000 A 
ATOM      6  C   UNL     1       5.962   4.960  17.953  0.00  0.00    +0.000 A 
ATOM      7  C   UNL     1       6.652   6.143  18.207  0.00  0.00    +0.000 A 
ATOM      8  C   UNL     1       7.428   6.692  17.198  0.00  0.00    +0.000 A 
ATOM      9  N   UNL     1       7.567   6.150  15.970  0.00  0.00    +0.000 NA
ATOM     10  H   UNL     1       7.719   4.965  13.893  0.00  0.00    +0.000 HD
ENDROOT
BRANCH   2  11
ATOM     11  C   UNL     1       6.159   3.717  12.254  0.00  0.00    +0.000 C 
ATOM     12  C   UNL     1       7.313   2.822  11.868  0.00  0.00    +0.000 C 
ATOM     13  C   UNL     1       5.901   2.327  11.723  0.00  0.00    +0.000 C 
ENDBRANCH   2  11
BRANCH   6  14
ATOM     14  N   UNL     1       5.158   4.401  18.968  0.00  0.00    +0.000 N 
ATOM     15  H   UNL     1       5.669   4.069  19.782  0.00  0.00    +0.000 HD
BRANCH  14  16
ATOM     16  C   UNL     1       3.847   3.879  18.876  0.00  0.00    +0.000 A 
ATOM     17  C   UNL     1       2.876   4.567  18.135  0.00  0.00    +0.000 A 
ATOM     18  C   UNL     1       1.596   4.041  17.961  0.00  0.00    +0.000 A 
ATOM     19  C   UNL     1       1.263   2.814  18.523  0.00  0.00    +0.000 A 
ATOM     20  C   UNL     1       2.208   2.108  19.270  0.00  0.00    +0.000 A 
ATOM     21  C   UNL     1       3.490   2.646  19.451  0.00  0.00    +0.000 A 
ATOM     22 CL   UNL     1       4.639   1.717  20.350  0.00  0.00    +0.000 Cl
ENDBRANCH  14  16
ENDBRANCH   6  14
TORSDOF 3
ENDMDL
MODEL 8
REMARK VINA RESULT:      -7.7      3.521      5.024
REMARK  Name = 
REMARK  3 active torsions:
REMARK  status: ('A' for Active; 'I' for Inactive)
REMARK    1  A    between atoms: C_2  and  C_18
REMARK    2  A    between atoms: C_6  and  N_7
REMARK    3  A    between atoms: N_7  and  C_8
REMARK                            x       y       z     vdW  Elec       q    Type
REMARK                         _______ _______ _______ _____ _____    ______ ____
ROOT
ATOM      1  O   UNL     1       6.051   4.951  17.551  0.00  0.00    +0.000 OA
ATOM      2  C   UNL     1       5.423   4.346  16.685  0.00  0.00    +0.000 C 
ATOM      3  N   UNL     1       4.087   4.031  16.737  0.00  0.00    +0.000 N 
ATOM      4  C   UNL     1       3.245   4.363  17.802  0.00  0.00    +0.000 A 
ATOM      5  C   UNL     1       3.319   5.590  18.446  0.00  0.00    +0.000 A 
ATOM      6  C   UNL     1       2.459   5.859  19.519  0.00  0.00    +0.000 A 
ATOM      7  C   UNL     1       1.600   4.842  19.928  0.00  0.00    +0.000 A 
ATOM      8  C   UNL     1       1.586   3.653  19.214  0.00  0.00    +0.000 A 
ATOM      9  N   UNL     1       2.356   3.411  18.133  0.00  0.00    +0.000 NA
ATOM     10  H   UNL     1       3.760   3.240  16.199  0.00  0.00    +0.000 HD
ENDROOT
BRANCH   2  11
ATOM     11  C   UNL     1       6.175   3.836  15.498  0.00  0.00    +0.000 C 
ATOM     12  C   UNL     1       5.694   4.024  14.079  0.00  0.00    +0.000 C 
ATOM     13  C   UNL     1       6.919   4.753  14.555  0.00  0.00    +0.000 C 
ENDBRANCH   2  11
BRANCH   6  14
ATOM     14  N   UNL     1       2.492   7.067  20.246  0.00  0.00    +0.000 N 
ATOM     15  H   UNL     1       3.138   7.073  21.031  0.00  0.00    +0.000 HD
BRANCH  14  16
ATOM     16  C   UNL     1       1.522   8.094  20.309  0.00  0.00    +0.000 A 
ATOM     17  C   UNL     1       0.754   8.254  21.470  0.00  0.00    +0.000 A 
ATOM     18  C   UNL     1      -0.157   9.304  21.593  0.00  0.00    +0.000 A 
ATOM     19  C   UNL     1      -0.312  10.217  20.557  0.00  0.00    +0.000 A 
ATOM     20  C   UNL     1       0.437  10.081  19.387  0.00  0.00    +0.000 A 
ATOM     21  C   UNL     1       1.342   9.018  19.264  0.00  0.00    +0.000 A 
ATOM     22 CL   UNL     1       2.276   8.913  17.812  0.00  0.00    +0.000 Cl
ENDBRANCH  14  16
ENDBRANCH   6  14
TORSDOF 3
ENDMDL
MODEL 9
REMARK VINA RESULT:      -7.7      2.405      6.233
REMARK  Name = 
REMARK  3 active torsions:
REMARK  status: ('A' for Active; 'I' for Inactive)
REMARK    1  A    between atoms: C_2  and  C_18
REMARK    2  A    between atoms: C_6  and  N_7
REMARK    3  A    between atoms: N_7  and  C_8
REMARK                            x       y       z     vdW  Elec       q    Type
REMARK                         _______ _______ _______ _____ _____    ______ ____
ROOT
ATOM      1  O   UNL     1       4.073   2.381  17.533  0.00  0.00    +0.000 OA
ATOM      2  C   UNL     1       3.619   2.971  18.511  0.00  0.00    +0.000 C 
ATOM      3  N   UNL     1       4.165   4.086  19.097  0.00  0.00    +0.000 N 
ATOM      4  C   UNL     1       5.332   4.714  18.652  0.00  0.00    +0.000 A 
ATOM      5  C   UNL     1       5.610   4.882  17.303  0.00  0.00    +0.000 A 
ATOM      6  C   UNL     1       6.805   5.504  16.918  0.00  0.00    +0.000 A 
ATOM      7  C   UNL     1       7.693   5.876  17.925  0.00  0.00    +0.000 A 
ATOM      8  C   UNL     1       7.322   5.681  19.246  0.00  0.00    +0.000 A 
ATOM      9  N   UNL     1       6.142   5.152  19.631  0.00  0.00    +0.000 NA
ATOM     10  H   UNL     1       3.960   4.264  20.071  0.00  0.00    +0.000 HD
ENDROOT
BRANCH   2  11
ATOM     11  C   UNL     1       2.410   2.399  19.179  0.00  0.00    +0.000 C 
ATOM     12  C   UNL     1       1.487   3.219  20.048  0.00  0.00    +0.000 C 
ATOM     13  C   UNL     1       1.006   2.711  18.718  0.00  0.00    +0.000 C 
ENDBRANCH   2  11
BRANCH   6  14
ATOM     14  N   UNL     1       7.178   5.684  15.570  0.00  0.00    +0.000 N 
ATOM     15  H   UNL     1       7.497   6.621  15.338  0.00  0.00    +0.000 HD
BRANCH  14  16
ATOM     16  C   UNL     1       6.818   4.917  14.438  0.00  0.00    +0.000 A 
ATOM     17  C   UNL     1       5.645   4.151  14.463  0.00  0.00    +0.000 A 
ATOM     18  C   UNL     1       5.221   3.445  13.336  0.00  0.00    +0.000 A 
ATOM     19  C   UNL     1       5.962   3.495  12.162  0.00  0.00    +0.000 A 
ATOM     20  C   UNL     1       7.138   4.246  12.109  0.00  0.00    +0.000 A 
ATOM     21  C   UNL     1       7.565   4.945  13.246  0.00  0.00    +0.000 A 
ATOM     22 CL   UNL     1       9.006   5.893  13.121  0.00  0.00    +0.000 Cl
ENDBRANCH  14  16
ENDBRANCH   6  14
TORSDOF 3
ENDMDL
