MODEL 1
REMARK VINA RESULT:      -8.9      0.000      0.000
REMARK  Name = 
REMARK  8 active torsions:
REMARK  status: ('A' for Active; 'I' for Inactive)
REMARK    1  A    between atoms: C_1  and  O_2
REMARK    2  A    between atoms: O_2  and  C_3
REMARK    3  A    between atoms: C_7  and  C_8
REMARK    4  A    between atoms: C_13  and  O_14
REMARK    5  A    between atoms: O_14  and  C_15
REMARK    6  A    between atoms: C_19  and  O_20
REMARK    7  A    between atoms: O_20  and  C_21
REMARK    8  A    between atoms: N_23  and  C_24
REMARK                            x       y       z     vdW  Elec       q    Type
REMARK                         _______ _______ _______ _____ _____    ______ ____
ROOT
ATOM      1  C   UNL     1      -0.240  11.892  19.090  0.00  0.00    +0.000 C 
ATOM      2  O   UNL     1      -1.289  12.273  20.026  0.00  0.00    +0.000 OA
ATOM      3  C   UNL     1      -2.527  11.952  19.485  0.00  0.00    +0.000 A 
ATOM      4  C   UNL     1      -3.658  12.595  19.977  0.00  0.00    +0.000 A 
ATOM      5  C   UNL     1      -4.882  12.440  19.307  0.00  0.00    +0.000 A 
ATOM      6  C   UNL     1      -4.976  11.650  18.155  0.00  0.00    +0.000 A 
ATOM      7  C   UNL     1      -3.863  10.933  17.735  0.00  0.00    +0.000 A 
ATOM      8  C   UNL     1      -2.654  11.047  18.417  0.00  0.00    +0.000 A 
ATOM      9  C   UNL     1      -1.486  10.231  17.933  0.00  0.00    +0.000 C 
ATOM     10  C   UNL     1      -0.327  10.358  18.926  0.00  0.00    +0.000 C 
ENDROOT
BRANCH   1  15
ATOM     11  C   UNL     1       2.787  13.595  20.677  0.00  0.00    +0.000 A 
ATOM     12  C   UNL     1       3.370  14.166  19.542  0.00  0.00    +0.000 A 
ATOM     13  C   UNL     1       2.870  13.883  18.275  0.00  0.00    +0.000 A 
ATOM     14  C   UNL     1       1.758  13.060  18.154  0.00  0.00    +0.000 A 
ATOM     15  C   UNL     1       1.117  12.526  19.294  0.00  0.00    +0.000 A 
ATOM     16  C   UNL     1       1.655  12.781  20.554  0.00  0.00    +0.000 A 
BRANCH  11  18
ATOM     17  C   UNL     1       4.699  14.389  21.794  0.00  0.00    +0.000 C 
ATOM     18  O   UNL     1       3.340  13.973  21.871  0.00  0.00    +0.000 OA
ENDBRANCH  11  18
ENDBRANCH   1  15
BRANCH   6  19
ATOM     19  O   UNL     1      -6.183  11.648  17.508  0.00  0.00    +0.000 OA
ATOM     20  C   UNL     1      -6.659  12.925  17.082  0.00  0.00    +0.000 C 
ENDBRANCH   6  19
BRANCH  10  21
ATOM     21  O   UNL     1       0.840   9.708  18.410  0.00  0.00    +0.000 OA
BRANCH  21  22
ATOM     22  C   UNL     1       1.504   8.954  19.347  0.00  0.00    +0.000 C 
ATOM     23  O   UNL     1       1.418   9.106  20.548  0.00  0.00    +0.000 OA
ATOM     24  N   UNL     1       2.215   7.980  18.737  0.00  0.00    +0.000 N 
ATOM     25  H   UNL     1       2.210   7.969  17.728  0.00  0.00    +0.000 HD
BRANCH  24  26
ATOM     26  C   UNL     1       2.690   6.804  19.463  0.00  0.00    +0.000 C 
ATOM     27  C   UNL     1       1.555   6.314  20.378  0.00  0.00    +0.000 C 
ATOM     28  C   UNL     1       1.295   4.818  20.477  0.00  0.00    +0.000 C 
ATOM     29  C   UNL     1       1.729   3.939  19.312  0.00  0.00    +0.000 C 
ATOM     30  C   UNL     1       2.811   4.477  18.425  0.00  0.00    +0.000 A 
ATOM     31  C   UNL     1       3.379   3.606  17.477  0.00  0.00    +0.000 A 
ATOM     32  C   UNL     1       4.391   4.034  16.618  0.00  0.00    +0.000 A 
ATOM     33  C   UNL     1       4.855   5.339  16.700  0.00  0.00    +0.000 A 
ATOM     34  C   UNL     1       4.292   6.213  17.629  0.00  0.00    +0.000 A 
ATOM     35  C   UNL     1       3.251   5.801  18.486  0.00  0.00    +0.000 A 
ENDBRANCH  24  26
ENDBRANCH  21  22
ENDBRANCH  10  21
TORSDOF 6
ENDMDL
MODEL 2
REMARK VINA RESULT:      -8.5      2.651      7.677
REMARK  Name = 
REMARK  8 active torsions:
REMARK  status: ('A' for Active; 'I' for Inactive)
REMARK    1  A    between atoms: C_1  and  O_2
REMARK    2  A    between atoms: O_2  and  C_3
REMARK    3  A    between atoms: C_7  and  C_8
REMARK    4  A    between atoms: C_13  and  O_14
REMARK    5  A    between atoms: O_14  and  C_15
REMARK    6  A    between atoms: C_19  and  O_20
REMARK    7  A    between atoms: O_20  and  C_21
REMARK    8  A    between atoms: N_23  and  C_24
REMARK                            x       y       z     vdW  Elec       q    Type
REMARK                         _______ _______ _______ _____ _____    ______ ____
ROOT
ATOM      1  C   UNL     1      -0.543  10.695  19.380  0.00  0.00    +0.000 C 
ATOM      2  O   UNL     1      -1.288  10.753  18.130  0.00  0.00    +0.000 OA
ATOM      3  C   UNL     1      -2.514  11.365  18.352  0.00  0.00    +0.000 A 
ATOM      4  C   UNL     1      -3.544  11.149  17.442  0.00  0.00    +0.000 A 
ATOM      5  C   UNL     1      -4.841  11.586  17.756  0.00  0.00    +0.000 A 
ATOM      6  C   UNL     1      -5.108  12.232  18.970  0.00  0.00    +0.000 A 
ATOM      7  C   UNL     1      -4.053  12.531  19.822  0.00  0.00    +0.000 A 
ATOM      8  C   UNL     1      -2.756  12.140  19.500  0.00  0.00    +0.000 A 
ATOM      9  C   UNL     1      -1.646  12.509  20.448  0.00  0.00    +0.000 C 
ATOM     10  C   UNL     1      -0.297  12.155  19.818  0.00  0.00    +0.000 C 
ENDROOT
BRANCH   1  15
ATOM     11  C   UNL     1       2.270   8.306  18.400  0.00  0.00    +0.000 A 
ATOM     12  C   UNL     1       2.330   7.512  19.549  0.00  0.00    +0.000 A 
ATOM     13  C   UNL     1       1.572   7.838  20.669  0.00  0.00    +0.000 A 
ATOM     14  C   UNL     1       0.724   8.936  20.618  0.00  0.00    +0.000 A 
ATOM     15  C   UNL     1       0.604   9.712  19.444  0.00  0.00    +0.000 A 
ATOM     16  C   UNL     1       1.400   9.402  18.343  0.00  0.00    +0.000 A 
BRANCH  11  18
ATOM     17  C   UNL     1       3.942   6.824  17.664  0.00  0.00    +0.000 C 
ATOM     18  O   UNL     1       3.030   7.870  17.348  0.00  0.00    +0.000 OA
ENDBRANCH  11  18
ENDBRANCH   1  15
BRANCH   6  19
ATOM     19  O   UNL     1      -6.419  12.521  19.236  0.00  0.00    +0.000 OA
ATOM     20  C   UNL     1      -7.272  12.636  18.096  0.00  0.00    +0.000 C 
ENDBRANCH   6  19
BRANCH  10  21
ATOM     21  O   UNL     1       0.760  12.364  20.762  0.00  0.00    +0.000 OA
BRANCH  21  22
ATOM     22  C   UNL     1       1.043  13.691  20.979  0.00  0.00    +0.000 C 
ATOM     23  O   UNL     1       1.189  14.201  22.071  0.00  0.00    +0.000 OA
ATOM     24  N   UNL     1       1.198  14.329  19.798  0.00  0.00    +0.000 N 
ATOM     25  H   UNL     1       1.039  13.791  18.959  0.00  0.00    +0.000 HD
BRANCH  24  26
ATOM     26  C   UNL     1       1.880  15.617  19.702  0.00  0.00    +0.000 C 
ATOM     27  C   UNL     1       3.332  15.360  19.264  0.00  0.00    +0.000 C 
ATOM     28  C   UNL     1       3.950  16.280  18.221  0.00  0.00    +0.000 C 
ATOM     29  C   UNL     1       3.015  17.010  17.268  0.00  0.00    +0.000 C 
ATOM     30  C   UNL     1       1.599  17.202  17.723  0.00  0.00    +0.000 A 
ATOM     31  C   UNL     1       0.774  18.054  16.965  0.00  0.00    +0.000 A 
ATOM     32  C   UNL     1      -0.553  18.282  17.327  0.00  0.00    +0.000 A 
ATOM     33  C   UNL     1      -1.073  17.667  18.457  0.00  0.00    +0.000 A 
ATOM     34  C   UNL     1      -0.267  16.814  19.209  0.00  0.00    +0.000 A 
ATOM     35  C   UNL     1       1.070  16.554  18.841  0.00  0.00    +0.000 A 
ENDBRANCH  24  26
ENDBRANCH  21  22
ENDBRANCH  10  21
TORSDOF 6
ENDMDL
MODEL 3
REMARK VINA RESULT:      -8.5      1.556      2.453
REMARK  Name = 
REMARK  8 active torsions:
REMARK  status: ('A' for Active; 'I' for Inactive)
REMARK    1  A    between atoms: C_1  and  O_2
REMARK    2  A    between atoms: O_2  and  C_3
REMARK    3  A    between atoms: C_7  and  C_8
REMARK    4  A    between atoms: C_13  and  O_14
REMARK    5  A    between atoms: O_14  and  C_15
REMARK    6  A    between atoms: C_19  and  O_20
REMARK    7  A    between atoms: O_20  and  C_21
REMARK    8  A    between atoms: N_23  and  C_24
REMARK                            x       y       z     vdW  Elec       q    Type
REMARK                         _______ _______ _______ _____ _____    ______ ____
ROOT
ATOM      1  C   UNL     1       0.466  11.493  18.771  0.00  0.00    +0.000 C 
ATOM      2  O   UNL     1      -0.884  11.947  19.073  0.00  0.00    +0.000 OA
ATOM      3  C   UNL     1      -1.782  11.322  18.219  0.00  0.00    +0.000 A 
ATOM      4  C   UNL     1      -3.033  11.899  18.024  0.00  0.00    +0.000 A 
ATOM      5  C   UNL     1      -3.870  11.400  17.014  0.00  0.00    +0.000 A 
ATOM      6  C   UNL     1      -3.461  10.333  16.203  0.00  0.00    +0.000 A 
ATOM      7  C   UNL     1      -2.255   9.702  16.476  0.00  0.00    +0.000 A 
ATOM      8  C   UNL     1      -1.436  10.162  17.504  0.00  0.00    +0.000 A 
ATOM      9  C   UNL     1      -0.150   9.427  17.772  0.00  0.00    +0.000 C 
ATOM     10  C   UNL     1       0.495   9.974  19.048  0.00  0.00    +0.000 C 
ENDROOT
BRANCH   1  15
ATOM     11  C   UNL     1       2.599  13.806  20.935  0.00  0.00    +0.000 A 
ATOM     12  C   UNL     1       3.452  14.336  19.962  0.00  0.00    +0.000 A 
ATOM     13  C   UNL     1       3.426  13.844  18.661  0.00  0.00    +0.000 A 
ATOM     14  C   UNL     1       2.515  12.850  18.330  0.00  0.00    +0.000 A 
ATOM     15  C   UNL     1       1.602  12.348  19.285  0.00  0.00    +0.000 A 
ATOM     16  C   UNL     1       1.668  12.818  20.595  0.00  0.00    +0.000 A 
BRANCH  11  18
ATOM     17  C   UNL     1       3.917  15.059  22.427  0.00  0.00    +0.000 C 
ATOM     18  O   UNL     1       2.687  14.391  22.170  0.00  0.00    +0.000 OA
ENDBRANCH  11  18
ENDBRANCH   1  15
BRANCH   6  19
ATOM     19  O   UNL     1      -4.296   9.989  15.174  0.00  0.00    +0.000 OA
ATOM     20  C   UNL     1      -3.722  10.044  13.867  0.00  0.00    +0.000 C 
ENDBRANCH   6  19
BRANCH  10  21
ATOM     21  O   UNL     1       1.789   9.388  19.238  0.00  0.00    +0.000 OA
BRANCH  21  22
ATOM     22  C   UNL     1       2.232   8.679  18.148  0.00  0.00    +0.000 C 
ATOM     23  O   UNL     1       2.464   9.155  17.056  0.00  0.00    +0.000 OA
ATOM     24  N   UNL     1       2.432   7.386  18.489  0.00  0.00    +0.000 N 
ATOM     25  H   UNL     1       2.190   7.115  19.431  0.00  0.00    +0.000 HD
BRANCH  24  26
ATOM     26  C   UNL     1       3.259   6.495  17.679  0.00  0.00    +0.000 C 
ATOM     27  C   UNL     1       4.723   6.948  17.810  0.00  0.00    +0.000 C 
ATOM     28  C   UNL     1       5.801   5.886  17.971  0.00  0.00    +0.000 C 
ATOM     29  C   UNL     1       5.395   4.539  18.551  0.00  0.00    +0.000 C 
ATOM     30  C   UNL     1       3.949   4.159  18.434  0.00  0.00    +0.000 A 
ATOM     31  C   UNL     1       3.586   2.840  18.765  0.00  0.00    +0.000 A 
ATOM     32  C   UNL     1       2.261   2.413  18.680  0.00  0.00    +0.000 A 
ATOM     33  C   UNL     1       1.280   3.298  18.255  0.00  0.00    +0.000 A 
ATOM     34  C   UNL     1       1.628   4.609  17.934  0.00  0.00    +0.000 A 
ATOM     35  C   UNL     1       2.959   5.062  18.040  0.00  0.00    +0.000 A 
ENDBRANCH  24  26
ENDBRANCH  21  22
ENDBRANCH  10  21
TORSDOF 6
ENDMDL
MODEL 4
REMARK VINA RESULT:      -8.5      0.854      1.165
REMARK  Name = 
REMARK  8 active torsions:
REMARK  status: ('A' for Active; 'I' for Inactive)
REMARK    1  A    between atoms: C_1  and  O_2
REMARK    2  A    between atoms: O_2  and  C_3
REMARK    3  A    between atoms: C_7  and  C_8
REMARK    4  A    between atoms: C_13  and  O_14
REMARK    5  A    between atoms: O_14  and  C_15
REMARK    6  A    between atoms: C_19  and  O_20
REMARK    7  A    between atoms: O_20  and  C_21
REMARK    8  A    between atoms: N_23  and  C_24
REMARK                            x       y       z     vdW  Elec       q    Type
REMARK                         _______ _______ _______ _____ _____    ______ ____
ROOT
ATOM      1  C   UNL     1       0.060  11.757  18.844  0.00  0.00    +0.000 C 
ATOM      2  O   UNL     1      -0.990  12.034  19.815  0.00  0.00    +0.000 OA
ATOM      3  C   UNL     1      -2.221  11.693  19.272  0.00  0.00    +0.000 A 
ATOM      4  C   UNL     1      -3.371  12.255  19.817  0.00  0.00    +0.000 A 
ATOM      5  C   UNL     1      -4.598  12.087  19.155  0.00  0.00    +0.000 A 
ATOM      6  C   UNL     1      -4.676  11.365  17.957  0.00  0.00    +0.000 A 
ATOM      7  C   UNL     1      -3.540  10.724  17.480  0.00  0.00    +0.000 A 
ATOM      8  C   UNL     1      -2.326  10.849  18.152  0.00  0.00    +0.000 A 
ATOM      9  C   UNL     1      -1.131  10.116  17.604  0.00  0.00    +0.000 C 
ATOM     10  C   UNL     1       0.036  10.234  18.588  0.00  0.00    +0.000 C 
ENDROOT
BRANCH   1  15
ATOM     11  C   UNL     1       2.901  13.789  20.384  0.00  0.00    +0.000 A 
ATOM     12  C   UNL     1       3.620  14.120  19.232  0.00  0.00    +0.000 A 
ATOM     13  C   UNL     1       3.267  13.574  18.002  0.00  0.00    +0.000 A 
ATOM     14  C   UNL     1       2.167  12.730  17.925  0.00  0.00    +0.000 A 
ATOM     15  C   UNL     1       1.392  12.436  19.069  0.00  0.00    +0.000 A 
ATOM     16  C   UNL     1       1.782  12.954  20.302  0.00  0.00    +0.000 A 
BRANCH  11  18
ATOM     17  C   UNL     1       2.318  15.192  22.180  0.00  0.00    +0.000 C 
ATOM     18  O   UNL     1       3.316  14.413  21.530  0.00  0.00    +0.000 OA
ENDBRANCH  11  18
ENDBRANCH   1  15
BRANCH   6  19
ATOM     19  O   UNL     1      -5.891  11.349  17.327  0.00  0.00    +0.000 OA
ATOM     20  C   UNL     1      -6.613  12.581  17.343  0.00  0.00    +0.000 C 
ENDBRANCH   6  19
BRANCH  10  21
ATOM     21  O   UNL     1       1.222   9.668  18.018  0.00  0.00    +0.000 OA
BRANCH  21  22
ATOM     22  C   UNL     1       1.819   8.728  18.823  0.00  0.00    +0.000 C 
ATOM     23  O   UNL     1       1.654   8.634  20.021  0.00  0.00    +0.000 OA
ATOM     24  N   UNL     1       2.565   7.886  18.074  0.00  0.00    +0.000 N 
ATOM     25  H   UNL     1       2.628   8.080  17.086  0.00  0.00    +0.000 HD
BRANCH  24  26
ATOM     26  C   UNL     1       2.987   6.580  18.574  0.00  0.00    +0.000 C 
ATOM     27  C   UNL     1       1.734   5.701  18.736  0.00  0.00    +0.000 C 
ATOM     28  C   UNL     1       1.804   4.247  18.293  0.00  0.00    +0.000 C 
ATOM     29  C   UNL     1       2.831   3.872  17.234  0.00  0.00    +0.000 C 
ATOM     30  C   UNL     1       4.014   4.780  17.086  0.00  0.00    +0.000 A 
ATOM     31  C   UNL     1       5.079   4.348  16.273  0.00  0.00    +0.000 A 
ATOM     32  C   UNL     1       6.213   5.138  16.089  0.00  0.00    +0.000 A 
ATOM     33  C   UNL     1       6.303   6.370  16.722  0.00  0.00    +0.000 A 
ATOM     34  C   UNL     1       5.250   6.811  17.521  0.00  0.00    +0.000 A 
ATOM     35  C   UNL     1       4.086   6.034  17.696  0.00  0.00    +0.000 A 
ENDBRANCH  24  26
ENDBRANCH  21  22
ENDBRANCH  10  21
TORSDOF 6
ENDMDL
MODEL 5
REMARK VINA RESULT:      -8.4      1.509      5.678
REMARK  Name = 
REMARK  8 active torsions:
REMARK  status: ('A' for Active; 'I' for Inactive)
REMARK    1  A    between atoms: C_1  and  O_2
REMARK    2  A    between atoms: O_2  and  C_3
REMARK    3  A    between atoms: C_7  and  C_8
REMARK    4  A    between atoms: C_13  and  O_14
REMARK    5  A    between atoms: O_14  and  C_15
REMARK    6  A    between atoms: C_19  and  O_20
REMARK    7  A    between atoms: O_20  and  C_21
REMARK    8  A    between atoms: N_23  and  C_24
REMARK                            x       y       z     vdW  Elec       q    Type
REMARK                         _______ _______ _______ _____ _____    ______ ____
ROOT
ATOM      1  C   UNL     1      -0.176  11.721  19.008  0.00  0.00    +0.000 C 
ATOM      2  O   UNL     1       0.614  12.580  18.137  0.00  0.00    +0.000 OA
ATOM      3  C   UNL     1       1.527  13.295  18.900  0.00  0.00    +0.000 A 
ATOM      4  C   UNL     1       2.071  14.461  18.373  0.00  0.00    +0.000 A 
ATOM      5  C   UNL     1       2.829  15.302  19.203  0.00  0.00    +0.000 A 
ATOM      6  C   UNL     1       3.041  14.982  20.550  0.00  0.00    +0.000 A 
ATOM      7  C   UNL     1       2.578  13.766  21.036  0.00  0.00    +0.000 A 
ATOM      8  C   UNL     1       1.861  12.905  20.209  0.00  0.00    +0.000 A 
ATOM      9  C   UNL     1       1.402  11.589  20.779  0.00  0.00    +0.000 C 
ATOM     10  C   UNL     1       0.809  10.727  19.663  0.00  0.00    +0.000 C 
ENDROOT
BRANCH   1  15
ATOM     11  C   UNL     1      -2.774  10.136  16.701  0.00  0.00    +0.000 A 
ATOM     12  C   UNL     1      -3.939  10.725  17.202  0.00  0.00    +0.000 A 
ATOM     13  C   UNL     1      -3.894  11.504  18.353  0.00  0.00    +0.000 A 
ATOM     14  C   UNL     1      -2.673  11.727  18.974  0.00  0.00    +0.000 A 
ATOM     15  C   UNL     1      -1.476  11.193  18.445  0.00  0.00    +0.000 A 
ATOM     16  C   UNL     1      -1.540  10.377  17.317  0.00  0.00    +0.000 A 
BRANCH  11  18
ATOM     17  C   UNL     1      -3.369  10.183  14.425  0.00  0.00    +0.000 C 
ATOM     18  O   UNL     1      -2.931   9.420  15.544  0.00  0.00    +0.000 OA
ENDBRANCH  11  18
ENDBRANCH   1  15
BRANCH   6  19
ATOM     19  O   UNL     1       3.696  15.915  21.308  0.00  0.00    +0.000 OA
ATOM     20  C   UNL     1       4.477  16.865  20.581  0.00  0.00    +0.000 C 
ENDBRANCH   6  19
BRANCH  10  21
ATOM     21  O   UNL     1       0.235   9.534  20.210  0.00  0.00    +0.000 OA
BRANCH  21  22
ATOM     22  C   UNL     1       1.168   8.671  20.732  0.00  0.00    +0.000 C 
ATOM     23  O   UNL     1       1.490   8.620  21.901  0.00  0.00    +0.000 OA
ATOM     24  N   UNL     1       1.626   7.846  19.765  0.00  0.00    +0.000 N 
ATOM     25  H   UNL     1       1.284   8.000  18.827  0.00  0.00    +0.000 HD
BRANCH  24  26
ATOM     26  C   UNL     1       2.307   6.592  20.080  0.00  0.00    +0.000 C 
ATOM     27  C   UNL     1       1.275   5.625  20.685  0.00  0.00    +0.000 C 
ATOM     28  C   UNL     1       1.302   4.168  20.248  0.00  0.00    +0.000 C 
ATOM     29  C   UNL     1       1.907   3.840  18.890  0.00  0.00    +0.000 C 
ATOM     30  C   UNL     1       2.877   4.832  18.324  0.00  0.00    +0.000 A 
ATOM     31  C   UNL     1       3.610   4.459  17.182  0.00  0.00    +0.000 A 
ATOM     32  C   UNL     1       4.532   5.329  16.600  0.00  0.00    +0.000 A 
ATOM     33  C   UNL     1       4.740   6.583  17.156  0.00  0.00    +0.000 A 
ATOM     34  C   UNL     1       4.012   6.966  18.281  0.00  0.00    +0.000 A 
ATOM     35  C   UNL     1       3.058   6.107  18.866  0.00  0.00    +0.000 A 
ENDBRANCH  24  26
ENDBRANCH  21  22
ENDBRANCH  10  21
TORSDOF 6
ENDMDL
MODEL 6
REMARK VINA RESULT:      -8.4      2.978      9.136
REMARK  Name = 
REMARK  8 active torsions:
REMARK  status: ('A' for Active; 'I' for Inactive)
REMARK    1  A    between atoms: C_1  and  O_2
REMARK    2  A    between atoms: O_2  and  C_3
REMARK    3  A    between atoms: C_7  and  C_8
REMARK    4  A    between atoms: C_13  and  O_14
REMARK    5  A    between atoms: O_14  and  C_15
REMARK    6  A    between atoms: C_19  and  O_20
REMARK    7  A    between atoms: O_20  and  C_21
REMARK    8  A    between atoms: N_23  and  C_24
REMARK                            x       y       z     vdW  Elec       q    Type
REMARK                         _______ _______ _______ _____ _____    ______ ____
ROOT
ATOM      1  C   UNL     1       0.221   9.998  19.312  0.00  0.00    +0.000 C 
ATOM      2  O   UNL     1       0.662   9.075  20.350  0.00  0.00    +0.000 OA
ATOM      3  C   UNL     1       1.587   8.189  19.816  0.00  0.00    +0.000 A 
ATOM      4  C   UNL     1       1.814   6.983  20.470  0.00  0.00    +0.000 A 
ATOM      5  C   UNL     1       2.584   5.993  19.840  0.00  0.00    +0.000 A 
ATOM      6  C   UNL     1       3.123   6.205  18.565  0.00  0.00    +0.000 A 
ATOM      7  C   UNL     1       2.975   7.450  17.967  0.00  0.00    +0.000 A 
ATOM      8  C   UNL     1       2.248   8.454  18.603  0.00  0.00    +0.000 A 
ATOM      9  C   UNL     1       2.138   9.791  17.922  0.00  0.00    +0.000 C 
ATOM     10  C   UNL     1       1.469  10.793  18.867  0.00  0.00    +0.000 C 
ENDROOT
BRANCH   1  15
ATOM     11  C   UNL     1      -3.152  11.722  18.837  0.00  0.00    +0.000 A 
ATOM     12  C   UNL     1      -3.146  12.583  19.939  0.00  0.00    +0.000 A 
ATOM     13  C   UNL     1      -2.135  12.500  20.890  0.00  0.00    +0.000 A 
ATOM     14  C   UNL     1      -1.109  11.581  20.711  0.00  0.00    +0.000 A 
ATOM     15  C   UNL     1      -1.066  10.748  19.571  0.00  0.00    +0.000 A 
ATOM     16  C   UNL     1      -2.108  10.809  18.648  0.00  0.00    +0.000 A 
BRANCH  11  18
ATOM     17  C   UNL     1      -4.006  11.271  16.692  0.00  0.00    +0.000 C 
ATOM     18  O   UNL     1      -4.176  11.918  17.949  0.00  0.00    +0.000 OA
ENDBRANCH  11  18
ENDBRANCH   1  15
BRANCH   6  19
ATOM     19  O   UNL     1       3.764   5.144  17.985  0.00  0.00    +0.000 OA
ATOM     20  C   UNL     1       4.552   5.451  16.833  0.00  0.00    +0.000 C 
ENDBRANCH   6  19
BRANCH  10  21
ATOM     21  O   UNL     1       1.223  12.029  18.185  0.00  0.00    +0.000 OA
BRANCH  21  22
ATOM     22  C   UNL     1       1.626  13.133  18.897  0.00  0.00    +0.000 C 
ATOM     23  O   UNL     1       2.491  13.134  19.747  0.00  0.00    +0.000 OA
ATOM     24  N   UNL     1       0.961  14.228  18.464  0.00  0.00    +0.000 N 
ATOM     25  H   UNL     1       0.256  14.089  17.755  0.00  0.00    +0.000 HD
BRANCH  24  26
ATOM     26  C   UNL     1       1.443  15.579  18.739  0.00  0.00    +0.000 C 
ATOM     27  C   UNL     1       2.642  15.857  17.816  0.00  0.00    +0.000 C 
ATOM     28  C   UNL     1       2.743  17.220  17.147  0.00  0.00    +0.000 C 
ATOM     29  C   UNL     1       1.460  18.012  16.941  0.00  0.00    +0.000 C 
ATOM     30  C   UNL     1       0.306  17.678  17.838  0.00  0.00    +0.000 A 
ATOM     31  C   UNL     1      -0.814  18.530  17.817  0.00  0.00    +0.000 A 
ATOM     32  C   UNL     1      -1.923  18.284  18.625  0.00  0.00    +0.000 A 
ATOM     33  C   UNL     1      -1.927  17.184  19.472  0.00  0.00    +0.000 A 
ATOM     34  C   UNL     1      -0.826  16.328  19.493  0.00  0.00    +0.000 A 
ATOM     35  C   UNL     1       0.292  16.551  18.663  0.00  0.00    +0.000 A 
ENDBRANCH  24  26
ENDBRANCH  21  22
ENDBRANCH  10  21
TORSDOF 6
ENDMDL
MODEL 7
REMARK VINA RESULT:      -8.2      2.741      7.877
REMARK  Name = 
REMARK  8 active torsions:
REMARK  status: ('A' for Active; 'I' for Inactive)
REMARK    1  A    between atoms: C_1  and  O_2
REMARK    2  A    between atoms: O_2  and  C_3
REMARK    3  A    between atoms: C_7  and  C_8
REMARK    4  A    between atoms: C_13  and  O_14
REMARK    5  A    between atoms: O_14  and  C_15
REMARK    6  A    between atoms: C_19  and  O_20
REMARK    7  A    between atoms: O_20  and  C_21
REMARK    8  A    between atoms: N_23  and  C_24
REMARK                            x       y       z     vdW  Elec       q    Type
REMARK                         _______ _______ _______ _____ _____    ______ ____
ROOT
ATOM      1  C   UNL     1       0.114  10.112  18.841  0.00  0.00    +0.000 C 
ATOM      2  O   UNL     1      -0.789   9.954  17.709  0.00  0.00    +0.000 OA
ATOM      3  C   UNL     1      -1.964  10.650  17.956  0.00  0.00    +0.000 A 
ATOM      4  C   UNL     1      -3.109  10.303  17.247  0.00  0.00    +0.000 A 
ATOM      5  C   UNL     1      -4.345  10.848  17.628  0.00  0.00    +0.000 A 
ATOM      6  C   UNL     1      -4.438  11.733  18.710  0.00  0.00    +0.000 A 
ATOM      7  C   UNL     1      -3.275  12.149  19.343  0.00  0.00    +0.000 A 
ATOM      8  C   UNL     1      -2.038  11.647  18.946  0.00  0.00    +0.000 A 
ATOM      9  C   UNL     1      -0.807  12.148  19.651  0.00  0.00    +0.000 C 
ATOM     10  C   UNL     1       0.441  11.619  18.940  0.00  0.00    +0.000 C 
ENDROOT
BRANCH   1  15
ATOM     11  C   UNL     1       2.950   7.702  17.989  0.00  0.00    +0.000 A 
ATOM     12  C   UNL     1       2.931   6.889  19.126  0.00  0.00    +0.000 A 
ATOM     13  C   UNL     1       2.113   7.207  20.204  0.00  0.00    +0.000 A 
ATOM     14  C   UNL     1       1.284   8.317  20.122  0.00  0.00    +0.000 A 
ATOM     15  C   UNL     1       1.243   9.113  18.956  0.00  0.00    +0.000 A 
ATOM     16  C   UNL     1       2.100   8.810  17.900  0.00  0.00    +0.000 A 
BRANCH  11  18
ATOM     17  C   UNL     1       4.424   6.035  17.225  0.00  0.00    +0.000 C 
ATOM     18  O   UNL     1       3.766   7.273  16.977  0.00  0.00    +0.000 OA
ENDBRANCH  11  18
ENDBRANCH   1  15
BRANCH   6  19
ATOM     19  O   UNL     1      -5.697  12.125  19.077  0.00  0.00    +0.000 OA
ATOM     20  C   UNL     1      -5.920  12.257  20.481  0.00  0.00    +0.000 C 
ENDBRANCH   6  19
BRANCH  10  21
ATOM     21  O   UNL     1       1.618  11.965  19.681  0.00  0.00    +0.000 OA
BRANCH  21  22
ATOM     22  C   UNL     1       1.629  13.271  20.106  0.00  0.00    +0.000 C 
ATOM     23  O   UNL     1       1.804  13.626  21.253  0.00  0.00    +0.000 OA
ATOM     24  N   UNL     1       1.482  14.102  19.050  0.00  0.00    +0.000 N 
ATOM     25  H   UNL     1       1.334  13.677  18.146  0.00  0.00    +0.000 HD
BRANCH  24  26
ATOM     26  C   UNL     1       1.846  15.514  19.125  0.00  0.00    +0.000 C 
ATOM     27  C   UNL     1       3.011  15.762  18.152  0.00  0.00    +0.000 C 
ATOM     28  C   UNL     1       2.991  17.021  17.298  0.00  0.00    +0.000 C 
ATOM     29  C   UNL     1       1.642  17.663  17.005  0.00  0.00    +0.000 C 
ATOM     30  C   UNL     1       0.526  17.361  17.960  0.00  0.00    +0.000 A 
ATOM     31  C   UNL     1      -0.663  18.103  17.839  0.00  0.00    +0.000 A 
ATOM     32  C   UNL     1      -1.743  17.879  18.692  0.00  0.00    +0.000 A 
ATOM     33  C   UNL     1      -1.647  16.913  19.684  0.00  0.00    +0.000 A 
ATOM     34  C   UNL     1      -0.477  16.165  19.806  0.00  0.00    +0.000 A 
ATOM     35  C   UNL     1       0.614  16.364  18.934  0.00  0.00    +0.000 A 
ENDBRANCH  24  26
ENDBRANCH  21  22
ENDBRANCH  10  21
TORSDOF 6
ENDMDL
MODEL 8
REMARK VINA RESULT:      -8.1      1.379      1.862
REMARK  Name = 
REMARK  8 active torsions:
REMARK  status: ('A' for Active; 'I' for Inactive)
REMARK    1  A    between atoms: C_1  and  O_2
REMARK    2  A    between atoms: O_2  and  C_3
REMARK    3  A    between atoms: C_7  and  C_8
REMARK    4  A    between atoms: C_13  and  O_14
REMARK    5  A    between atoms: O_14  and  C_15
REMARK    6  A    between atoms: C_19  and  O_20
REMARK    7  A    between atoms: O_20  and  C_21
REMARK    8  A    between atoms: N_23  and  C_24
REMARK                            x       y       z     vdW  Elec       q    Type
REMARK                         _______ _______ _______ _____ _____    ______ ____
ROOT
ATOM      1  C   UNL     1       0.517  11.469  18.691  0.00  0.00    +0.000 C 
ATOM      2  O   UNL     1      -0.825  11.758  19.179  0.00  0.00    +0.000 OA
ATOM      3  C   UNL     1      -1.758  11.189  18.324  0.00  0.00    +0.000 A 
ATOM      4  C   UNL     1      -3.059  11.680  18.332  0.00  0.00    +0.000 A 
ATOM      5  C   UNL     1      -3.957  11.263  17.336  0.00  0.00    +0.000 A 
ATOM      6  C   UNL     1      -3.559  10.364  16.340  0.00  0.00    +0.000 A 
ATOM      7  C   UNL     1      -2.290   9.804  16.403  0.00  0.00    +0.000 A 
ATOM      8  C   UNL     1      -1.405  10.178  17.411  0.00  0.00    +0.000 A 
ATOM      9  C   UNL     1      -0.050   9.524  17.448  0.00  0.00    +0.000 C 
ATOM     10  C   UNL     1       0.681   9.933  18.729  0.00  0.00    +0.000 C 
ENDROOT
BRANCH   1  15
ATOM     11  C   UNL     1       2.605  13.771  20.909  0.00  0.00    +0.000 A 
ATOM     12  C   UNL     1       3.446  14.341  19.948  0.00  0.00    +0.000 A 
ATOM     13  C   UNL     1       3.429  13.880  18.636  0.00  0.00    +0.000 A 
ATOM     14  C   UNL     1       2.538  12.877  18.281  0.00  0.00    +0.000 A 
ATOM     15  C   UNL     1       1.636  12.334  19.224  0.00  0.00    +0.000 A 
ATOM     16  C   UNL     1       1.694  12.772  20.546  0.00  0.00    +0.000 A 
BRANCH  11  18
ATOM     17  C   UNL     1       3.780  15.213  22.349  0.00  0.00    +0.000 C 
ATOM     18  O   UNL     1       2.682  14.327  22.157  0.00  0.00    +0.000 OA
ENDBRANCH  11  18
ENDBRANCH   1  15
BRANCH   6  19
ATOM     19  O   UNL     1      -4.467  10.102  15.349  0.00  0.00    +0.000 OA
ATOM     20  C   UNL     1      -3.947  10.092  14.019  0.00  0.00    +0.000 C 
ENDBRANCH   6  19
BRANCH  10  21
ATOM     21  O   UNL     1       2.026   9.438  18.711  0.00  0.00    +0.000 OA
BRANCH  21  22
ATOM     22  C   UNL     1       2.173   8.236  19.359  0.00  0.00    +0.000 C 
ATOM     23  O   UNL     1       1.595   7.921  20.378  0.00  0.00    +0.000 OA
ATOM     24  N   UNL     1       3.007   7.434  18.660  0.00  0.00    +0.000 N 
ATOM     25  H   UNL     1       3.432   7.822  17.830  0.00  0.00    +0.000 HD
BRANCH  24  26
ATOM     26  C   UNL     1       3.046   5.990  18.874  0.00  0.00    +0.000 C 
ATOM     27  C   UNL     1       1.654   5.420  18.552  0.00  0.00    +0.000 C 
ATOM     28  C   UNL     1       1.565   4.119  17.767  0.00  0.00    +0.000 C 
ATOM     29  C   UNL     1       2.737   3.744  16.871  0.00  0.00    +0.000 C 
ATOM     30  C   UNL     1       4.065   4.356  17.201  0.00  0.00    +0.000 A 
ATOM     31  C   UNL     1       5.201   3.867  16.529  0.00  0.00    +0.000 A 
ATOM     32  C   UNL     1       6.469   4.386  16.785  0.00  0.00    +0.000 A 
ATOM     33  C   UNL     1       6.622   5.398  17.722  0.00  0.00    +0.000 A 
ATOM     34  C   UNL     1       5.502   5.897  18.386  0.00  0.00    +0.000 A 
ATOM     35  C   UNL     1       4.210   5.399  18.119  0.00  0.00    +0.000 A 
ENDBRANCH  24  26
ENDBRANCH  21  22
ENDBRANCH  10  21
TORSDOF 6
ENDMDL
MODEL 9
REMARK VINA RESULT:      -8.1      3.054      8.937
REMARK  Name = 
REMARK  8 active torsions:
REMARK  status: ('A' for Active; 'I' for Inactive)
REMARK    1  A    between atoms: C_1  and  O_2
REMARK    2  A    between atoms: O_2  and  C_3
REMARK    3  A    between atoms: C_7  and  C_8
REMARK    4  A    between atoms: C_13  and  O_14
REMARK    5  A    between atoms: O_14  and  C_15
REMARK    6  A    between atoms: C_19  and  O_20
REMARK    7  A    between atoms: O_20  and  C_21
REMARK    8  A    between atoms: N_23  and  C_24
REMARK                            x       y       z     vdW  Elec       q    Type
REMARK                         _______ _______ _______ _____ _____    ______ ____
ROOT
ATOM      1  C   UNL     1       0.263  10.383  19.382  0.00  0.00    +0.000 C 
ATOM      2  O   UNL     1       0.633   9.469  20.454  0.00  0.00    +0.000 OA
ATOM      3  C   UNL     1       1.403   8.438  19.935  0.00  0.00    +0.000 A 
ATOM      4  C   UNL     1       1.504   7.251  20.653  0.00  0.00    +0.000 A 
ATOM      5  C   UNL     1       2.101   6.132  20.052  0.00  0.00    +0.000 A 
ATOM      6  C   UNL     1       2.593   6.196  18.742  0.00  0.00    +0.000 A 
ATOM      7  C   UNL     1       2.578   7.414  18.075  0.00  0.00    +0.000 A 
ATOM      8  C   UNL     1       2.026   8.541  18.678  0.00  0.00    +0.000 A 
ATOM      9  C   UNL     1       2.057   9.841  17.920  0.00  0.00    +0.000 C 
ATOM     10  C   UNL     1       1.579  10.975  18.829  0.00  0.00    +0.000 C 
ENDROOT
BRANCH   1  15
ATOM     11  C   UNL     1      -2.270  12.639  21.134  0.00  0.00    +0.000 A 
ATOM     12  C   UNL     1      -3.330  12.571  20.225  0.00  0.00    +0.000 A 
ATOM     13  C   UNL     1      -3.169  11.924  19.005  0.00  0.00    +0.000 A 
ATOM     14  C   UNL     1      -1.958  11.310  18.717  0.00  0.00    +0.000 A 
ATOM     15  C   UNL     1      -0.898  11.313  19.651  0.00  0.00    +0.000 A 
ATOM     16  C   UNL     1      -1.056  12.003  20.851  0.00  0.00    +0.000 A 
BRANCH  11  18
ATOM     17  C   UNL     1      -3.335  12.504  23.227  0.00  0.00    +0.000 C 
ATOM     18  O   UNL     1      -2.554  13.269  22.316  0.00  0.00    +0.000 OA
ENDBRANCH  11  18
ENDBRANCH   1  15
BRANCH   6  19
ATOM     19  O   UNL     1       3.056   5.027  18.202  0.00  0.00    +0.000 OA
ATOM     20  C   UNL     1       4.417   4.706  18.494  0.00  0.00    +0.000 C 
ENDBRANCH   6  19
BRANCH  10  21
ATOM     21  O   UNL     1       1.462  12.193  18.083  0.00  0.00    +0.000 OA
BRANCH  21  22
ATOM     22  C   UNL     1       1.792  13.311  18.809  0.00  0.00    +0.000 C 
ATOM     23  O   UNL     1       2.803  13.438  19.467  0.00  0.00    +0.000 OA
ATOM     24  N   UNL     1       0.857  14.270  18.630  0.00  0.00    +0.000 N 
ATOM     25  H   UNL     1       0.056  14.033  18.064  0.00  0.00    +0.000 HD
BRANCH  24  26
ATOM     26  C   UNL     1       1.124  15.673  18.939  0.00  0.00    +0.000 C 
ATOM     27  C   UNL     1       2.103  16.218  17.886  0.00  0.00    +0.000 C 
ATOM     28  C   UNL     1       1.858  17.608  17.316  0.00  0.00    +0.000 C 
ATOM     29  C   UNL     1       0.437  18.152  17.348  0.00  0.00    +0.000 C 
ATOM     30  C   UNL     1      -0.492  17.562  18.365  0.00  0.00    +0.000 A 
ATOM     31  C   UNL     1      -1.737  18.188  18.562  0.00  0.00    +0.000 A 
ATOM     32  C   UNL     1      -2.653  17.696  19.492  0.00  0.00    +0.000 A 
ATOM     33  C   UNL     1      -2.334  16.575  20.244  0.00  0.00    +0.000 A 
ATOM     34  C   UNL     1      -1.107  15.941  20.050  0.00  0.00    +0.000 A 
ATOM     35  C   UNL     1      -0.182  16.412  19.096  0.00  0.00    +0.000 A 
ENDBRANCH  24  26
ENDBRANCH  21  22
ENDBRANCH  10  21
TORSDOF 6
ENDMDL
