MODEL 1
REMARK VINA RESULT:      -7.0      0.000      0.000
REMARK  Name = 
REMARK  9 active torsions:
REMARK  status: ('A' for Active; 'I' for Inactive)
REMARK    1  A    between atoms: C_1  and  C_2
REMARK    2  A    between atoms: C_2  and  C_3
REMARK    3  A    between atoms: C_2  and  C_4
REMARK    4  A    between atoms: C_4  and  C_5
REMARK    5  A    between atoms: C_5  and  C_6
REMARK    6  A    between atoms: C_5  and  C_7
REMARK    7  A    between atoms: C_5  and  N_8
REMARK    8  A    between atoms: N_10  and  C_11
REMARK    9  A    between atoms: N_13  and  C_14
REMARK                            x       y       z     vdW  Elec       q    Type
REMARK                         _______ _______ _______ _____ _____    ______ ____
ROOT
ATOM      1  N   UNL     1       4.488   5.188  17.289  0.00  0.00    +0.000 NA
ATOM      2  C   UNL     1       4.954   4.045  16.947  0.00  0.00    +0.000 C 
ATOM      3  N   UNL     1       5.998   3.616  16.167  0.00  0.00    +0.000 N 
ATOM      4  N   UNL     1       4.329   2.890  17.401  0.00  0.00    +0.000 N 
ATOM      5  H   UNL     1       6.364   2.718  16.431  0.00  0.00    +0.000 HD
ATOM      6  H   UNL     1       4.127   2.223  16.668  0.00  0.00    +0.000 HD
ENDROOT
BRANCH   4   7
ATOM      7  C   UNL     1       3.421   2.820  18.476  0.00  0.00    +0.000 A 
ATOM      8  C   UNL     1       2.046   2.763  18.227  0.00  0.00    +0.000 A 
ATOM      9  C   UNL     1       1.145   2.694  19.289  0.00  0.00    +0.000 A 
ATOM     10  C   UNL     1       1.648   2.657  20.578  0.00  0.00    +0.000 A 
ATOM     11  N   UNL     1       2.964   2.668  20.867  0.00  0.00    +0.000 NA
ATOM     12  C   UNL     1       3.813   2.753  19.813  0.00  0.00    +0.000 A 
ENDBRANCH   4   7
BRANCH   1  13
ATOM     13  C   UNL     1       4.973   6.535  17.010  0.00  0.00    +0.000 C 
ATOM     14  C   UNL     1       4.880   6.874  15.517  0.00  0.00    +0.000 C 
ATOM     15  C   UNL     1       6.405   6.625  17.596  0.00  0.00    +0.000 C 
BRANCH  13  16
ATOM     16  C   UNL     1       4.100   7.589  17.795  0.00  0.00    +0.000 C 
BRANCH  16  18
ATOM     17  C   UNL     1       2.422   6.759  19.545  0.00  0.00    +0.000 C 
ATOM     18  C   UNL     1       2.617   7.252  18.114  0.00  0.00    +0.000 C 
ATOM     19  C   UNL     1       1.717   8.472  17.864  0.00  0.00    +0.000 C 
ENDBRANCH  16  18
ENDBRANCH  13  16
ENDBRANCH   1  13
BRANCH   3  20
ATOM     20  C   UNL     1       6.904   4.414  15.395  0.00  0.00    +0.000 C 
ATOM     21  N   UNL     1       7.581   5.024  14.682  0.00  0.00    +0.000 NA
ENDBRANCH   3  20
TORSDOF 5
ENDMDL
MODEL 2
REMARK VINA RESULT:      -6.8      0.681      1.128
REMARK  Name = 
REMARK  9 active torsions:
REMARK  status: ('A' for Active; 'I' for Inactive)
REMARK    1  A    between atoms: C_1  and  C_2
REMARK    2  A    between atoms: C_2  and  C_3
REMARK    3  A    between atoms: C_2  and  C_4
REMARK    4  A    between atoms: C_4  and  C_5
REMARK    5  A    between atoms: C_5  and  C_6
REMARK    6  A    between atoms: C_5  and  C_7
REMARK    7  A    between atoms: C_5  and  N_8
REMARK    8  A    between atoms: N_10  and  C_11
REMARK    9  A    between atoms: N_13  and  C_14
REMARK                            x       y       z     vdW  Elec       q    Type
REMARK                         _______ _______ _______ _____ _____    ______ ____
ROOT
ATOM      1  N   UNL     1       4.360   5.101  17.409  0.00  0.00    +0.000 NA
ATOM      2  C   UNL     1       4.759   3.930  17.078  0.00  0.00    +0.000 C 
ATOM      3  N   UNL     1       5.776   3.434  16.301  0.00  0.00    +0.000 N 
ATOM      4  N   UNL     1       4.070   2.818  17.545  0.00  0.00    +0.000 N 
ATOM      5  H   UNL     1       6.090   2.519  16.573  0.00  0.00    +0.000 HD
ATOM      6  H   UNL     1       3.829   2.156  16.819  0.00  0.00    +0.000 HD
ENDROOT
BRANCH   4   7
ATOM      7  C   UNL     1       3.162   2.811  18.622  0.00  0.00    +0.000 A 
ATOM      8  C   UNL     1       3.638   2.804  19.937  0.00  0.00    +0.000 A 
ATOM      9  C   UNL     1       2.742   2.796  21.005  0.00  0.00    +0.000 A 
ATOM     10  C   UNL     1       1.386   2.823  20.727  0.00  0.00    +0.000 A 
ATOM     11  N   UNL     1       0.879   2.873  19.480  0.00  0.00    +0.000 NA
ATOM     12  C   UNL     1       1.777   2.861  18.463  0.00  0.00    +0.000 A 
ENDBRANCH   4   7
BRANCH   1  13
ATOM     13  C   UNL     1       4.920   6.415  17.116  0.00  0.00    +0.000 C 
ATOM     14  C   UNL     1       4.905   6.716  15.611  0.00  0.00    +0.000 C 
ATOM     15  C   UNL     1       6.330   6.454  17.759  0.00  0.00    +0.000 C 
BRANCH  13  16
ATOM     16  C   UNL     1       4.068   7.531  17.834  0.00  0.00    +0.000 C 
BRANCH  16  18
ATOM     17  C   UNL     1       2.369   6.784  19.602  0.00  0.00    +0.000 C 
ATOM     18  C   UNL     1       2.576   7.246  18.163  0.00  0.00    +0.000 C 
ATOM     19  C   UNL     1       1.714   8.490  17.894  0.00  0.00    +0.000 C 
ENDBRANCH  16  18
ENDBRANCH  13  16
ENDBRANCH   1  13
BRANCH   3  20
ATOM     20  C   UNL     1       6.723   4.171  15.520  0.00  0.00    +0.000 C 
ATOM     21  N   UNL     1       7.567   4.703  14.933  0.00  0.00    +0.000 NA
ENDBRANCH   3  20
TORSDOF 5
ENDMDL
MODEL 3
REMARK VINA RESULT:      -6.8      1.461      4.992
REMARK  Name = 
REMARK  9 active torsions:
REMARK  status: ('A' for Active; 'I' for Inactive)
REMARK    1  A    between atoms: C_1  and  C_2
REMARK    2  A    between atoms: C_2  and  C_3
REMARK    3  A    between atoms: C_2  and  C_4
REMARK    4  A    between atoms: C_4  and  C_5
REMARK    5  A    between atoms: C_5  and  C_6
REMARK    6  A    between atoms: C_5  and  C_7
REMARK    7  A    between atoms: C_5  and  N_8
REMARK    8  A    between atoms: N_10  and  C_11
REMARK    9  A    between atoms: N_13  and  C_14
REMARK                            x       y       z     vdW  Elec       q    Type
REMARK                         _______ _______ _______ _____ _____    ______ ____
ROOT
ATOM      1  N   UNL     1       3.703   4.709  18.679  0.00  0.00    +0.000 NA
ATOM      2  C   UNL     1       4.469   3.775  19.106  0.00  0.00    +0.000 C 
ATOM      3  N   UNL     1       4.379   2.815  20.082  0.00  0.00    +0.000 N 
ATOM      4  N   UNL     1       5.721   3.602  18.527  0.00  0.00    +0.000 N 
ATOM      5  H   UNL     1       4.921   1.990  19.897  0.00  0.00    +0.000 HD
ATOM      6  H   UNL     1       6.473   3.542  19.200  0.00  0.00    +0.000 HD
ENDROOT
BRANCH   4   7
ATOM      7  C   UNL     1       6.129   4.132  17.288  0.00  0.00    +0.000 A 
ATOM      8  C   UNL     1       5.576   3.641  16.101  0.00  0.00    +0.000 A 
ATOM      9  C   UNL     1       5.979   4.163  14.873  0.00  0.00    +0.000 A 
ATOM     10  C   UNL     1       6.911   5.187  14.866  0.00  0.00    +0.000 A 
ATOM     11  N   UNL     1       7.441   5.722  15.983  0.00  0.00    +0.000 NA
ATOM     12  C   UNL     1       7.042   5.180  17.161  0.00  0.00    +0.000 A 
ENDBRANCH   4   7
BRANCH   1  13
ATOM     13  C   UNL     1       2.342   5.070  19.057  0.00  0.00    +0.000 C 
ATOM     14  C   UNL     1       2.252   5.475  20.534  0.00  0.00    +0.000 C 
ATOM     15  C   UNL     1       1.437   3.873  18.668  0.00  0.00    +0.000 C 
BRANCH  13  16
ATOM     16  C   UNL     1       1.857   6.298  18.195  0.00  0.00    +0.000 C 
BRANCH  16  18
ATOM     17  C   UNL     1       3.903   7.507  17.235  0.00  0.00    +0.000 C 
ATOM     18  C   UNL     1       2.711   7.596  18.183  0.00  0.00    +0.000 C 
ATOM     19  C   UNL     1       1.847   8.811  17.808  0.00  0.00    +0.000 C 
ENDBRANCH  16  18
ENDBRANCH  13  16
ENDBRANCH   1  13
BRANCH   3  20
ATOM     20  C   UNL     1       3.320   2.622  21.028  0.00  0.00    +0.000 C 
ATOM     21  N   UNL     1       2.514   2.541  21.854  0.00  0.00    +0.000 NA
ENDBRANCH   3  20
TORSDOF 5
ENDMDL
MODEL 4
REMARK VINA RESULT:      -6.7      1.725      5.117
REMARK  Name = 
REMARK  9 active torsions:
REMARK  status: ('A' for Active; 'I' for Inactive)
REMARK    1  A    between atoms: C_1  and  C_2
REMARK    2  A    between atoms: C_2  and  C_3
REMARK    3  A    between atoms: C_2  and  C_4
REMARK    4  A    between atoms: C_4  and  C_5
REMARK    5  A    between atoms: C_5  and  C_6
REMARK    6  A    between atoms: C_5  and  C_7
REMARK    7  A    between atoms: C_5  and  N_8
REMARK    8  A    between atoms: N_10  and  C_11
REMARK    9  A    between atoms: N_13  and  C_14
REMARK                            x       y       z     vdW  Elec       q    Type
REMARK                         _______ _______ _______ _____ _____    ______ ____
ROOT
ATOM      1  N   UNL     1       3.985   5.041  19.113  0.00  0.00    +0.000 NA
ATOM      2  C   UNL     1       4.617   3.959  18.849  0.00  0.00    +0.000 C 
ATOM      3  N   UNL     1       4.282   2.630  18.782  0.00  0.00    +0.000 N 
ATOM      4  N   UNL     1       5.975   4.016  18.558  0.00  0.00    +0.000 N 
ATOM      5  H   UNL     1       4.853   2.095  18.152  0.00  0.00    +0.000 HD
ATOM      6  H   UNL     1       6.531   3.361  19.091  0.00  0.00    +0.000 HD
ENDROOT
BRANCH   4   7
ATOM      7  C   UNL     1       6.686   5.176  18.194  0.00  0.00    +0.000 A 
ATOM      8  C   UNL     1       7.468   5.843  19.142  0.00  0.00    +0.000 A 
ATOM      9  C   UNL     1       8.172   6.992  18.784  0.00  0.00    +0.000 A 
ATOM     10  C   UNL     1       8.095   7.430  17.473  0.00  0.00    +0.000 A 
ATOM     11  N   UNL     1       7.390   6.799  16.514  0.00  0.00    +0.000 NA
ATOM     12  C   UNL     1       6.702   5.695  16.898  0.00  0.00    +0.000 A 
ENDBRANCH   4   7
BRANCH   1  13
ATOM     13  C   UNL     1       2.573   5.275  19.389  0.00  0.00    +0.000 C 
ATOM     14  C   UNL     1       2.151   4.671  20.736  0.00  0.00    +0.000 C 
ATOM     15  C   UNL     1       1.783   4.732  18.171  0.00  0.00    +0.000 C 
BRANCH  13  16
ATOM     16  C   UNL     1       2.291   6.826  19.452  0.00  0.00    +0.000 C 
BRANCH  16  18
ATOM     17  C   UNL     1       1.600   9.016  18.315  0.00  0.00    +0.000 C 
ATOM     18  C   UNL     1       2.218   7.634  18.127  0.00  0.00    +0.000 C 
ATOM     19  C   UNL     1       3.615   7.778  17.502  0.00  0.00    +0.000 C 
ENDBRANCH  16  18
ENDBRANCH  13  16
ENDBRANCH   1  13
BRANCH   3  20
ATOM     20  C   UNL     1       3.017   2.028  19.083  0.00  0.00    +0.000 C 
ATOM     21  N   UNL     1       1.956   1.593  19.237  0.00  0.00    +0.000 NA
ENDBRANCH   3  20
TORSDOF 5
ENDMDL
MODEL 5
REMARK VINA RESULT:      -6.3      1.943      4.977
REMARK  Name = 
REMARK  9 active torsions:
REMARK  status: ('A' for Active; 'I' for Inactive)
REMARK    1  A    between atoms: C_1  and  C_2
REMARK    2  A    between atoms: C_2  and  C_3
REMARK    3  A    between atoms: C_2  and  C_4
REMARK    4  A    between atoms: C_4  and  C_5
REMARK    5  A    between atoms: C_5  and  C_6
REMARK    6  A    between atoms: C_5  and  C_7
REMARK    7  A    between atoms: C_5  and  N_8
REMARK    8  A    between atoms: N_10  and  C_11
REMARK    9  A    between atoms: N_13  and  C_14
REMARK                            x       y       z     vdW  Elec       q    Type
REMARK                         _______ _______ _______ _____ _____    ______ ____
ROOT
ATOM      1  N   UNL     1       3.941   5.037  19.176  0.00  0.00    +0.000 NA
ATOM      2  C   UNL     1       4.566   3.956  18.893  0.00  0.00    +0.000 C 
ATOM      3  N   UNL     1       4.211   2.639  18.744  0.00  0.00    +0.000 N 
ATOM      4  N   UNL     1       5.938   3.998  18.678  0.00  0.00    +0.000 N 
ATOM      5  H   UNL     1       4.805   2.122  18.120  0.00  0.00    +0.000 HD
ATOM      6  H   UNL     1       6.453   3.307  19.207  0.00  0.00    +0.000 HD
ENDROOT
BRANCH   4   7
ATOM      7  C   UNL     1       6.689   5.159  18.409  0.00  0.00    +0.000 A 
ATOM      8  C   UNL     1       6.521   5.834  17.195  0.00  0.00    +0.000 A 
ATOM      9  C   UNL     1       7.263   6.983  16.926  0.00  0.00    +0.000 A 
ATOM     10  C   UNL     1       8.138   7.445  17.894  0.00  0.00    +0.000 A 
ATOM     11  N   UNL     1       8.304   6.855  19.094  0.00  0.00    +0.000 NA
ATOM     12  C   UNL     1       7.581   5.729  19.318  0.00  0.00    +0.000 A 
ENDBRANCH   4   7
BRANCH   1  13
ATOM     13  C   UNL     1       2.520   5.286  19.388  0.00  0.00    +0.000 C 
ATOM     14  C   UNL     1       2.017   4.635  20.684  0.00  0.00    +0.000 C 
ATOM     15  C   UNL     1       1.787   4.811  18.109  0.00  0.00    +0.000 C 
BRANCH  13  16
ATOM     16  C   UNL     1       2.262   6.839  19.503  0.00  0.00    +0.000 C 
BRANCH  16  18
ATOM     17  C   UNL     1       1.517   9.052  18.448  0.00  0.00    +0.000 C 
ATOM     18  C   UNL     1       2.144   7.683  18.204  0.00  0.00    +0.000 C 
ATOM     19  C   UNL     1       3.521   7.858  17.544  0.00  0.00    +0.000 C 
ENDBRANCH  16  18
ENDBRANCH  13  16
ENDBRANCH   1  13
BRANCH   3  20
ATOM     20  C   UNL     1       2.921   2.050  18.948  0.00  0.00    +0.000 C 
ATOM     21  N   UNL     1       1.898   1.513  19.022  0.00  0.00    +0.000 NA
ENDBRANCH   3  20
TORSDOF 5
ENDMDL
MODEL 6
REMARK VINA RESULT:      -6.2      1.388      5.106
REMARK  Name = 
REMARK  9 active torsions:
REMARK  status: ('A' for Active; 'I' for Inactive)
REMARK    1  A    between atoms: C_1  and  C_2
REMARK    2  A    between atoms: C_2  and  C_3
REMARK    3  A    between atoms: C_2  and  C_4
REMARK    4  A    between atoms: C_4  and  C_5
REMARK    5  A    between atoms: C_5  and  C_6
REMARK    6  A    between atoms: C_5  and  C_7
REMARK    7  A    between atoms: C_5  and  N_8
REMARK    8  A    between atoms: N_10  and  C_11
REMARK    9  A    between atoms: N_13  and  C_14
REMARK                            x       y       z     vdW  Elec       q    Type
REMARK                         _______ _______ _______ _____ _____    ______ ____
ROOT
ATOM      1  N   UNL     1       3.521   4.661  18.853  0.00  0.00    +0.000 NA
ATOM      2  C   UNL     1       4.236   3.698  19.302  0.00  0.00    +0.000 C 
ATOM      3  N   UNL     1       4.067   2.724  20.254  0.00  0.00    +0.000 N 
ATOM      4  N   UNL     1       5.513   3.500  18.790  0.00  0.00    +0.000 N 
ATOM      5  H   UNL     1       4.595   1.887  20.082  0.00  0.00    +0.000 HD
ATOM      6  H   UNL     1       6.225   3.407  19.501  0.00  0.00    +0.000 HD
ENDROOT
BRANCH   4   7
ATOM      7  C   UNL     1       6.003   4.041  17.585  0.00  0.00    +0.000 A 
ATOM      8  C   UNL     1       6.866   5.141  17.613  0.00  0.00    +0.000 A 
ATOM      9  C   UNL     1       7.352   5.679  16.422  0.00  0.00    +0.000 A 
ATOM     10  C   UNL     1       6.983   5.080  15.229  0.00  0.00    +0.000 A 
ATOM     11  N   UNL     1       6.190   3.994  15.153  0.00  0.00    +0.000 NA
ATOM     12  C   UNL     1       5.718   3.507  16.328  0.00  0.00    +0.000 A 
ENDBRANCH   4   7
BRANCH   1  13
ATOM     13  C   UNL     1       2.151   5.054  19.163  0.00  0.00    +0.000 C 
ATOM     14  C   UNL     1       2.002   5.479  20.630  0.00  0.00    +0.000 C 
ATOM     15  C   UNL     1       1.242   3.870  18.747  0.00  0.00    +0.000 C 
BRANCH  13  16
ATOM     16  C   UNL     1       1.732   6.281  18.265  0.00  0.00    +0.000 C 
BRANCH  16  18
ATOM     17  C   UNL     1       3.837   7.423  17.353  0.00  0.00    +0.000 C 
ATOM     18  C   UNL     1       2.621   7.555  18.265  0.00  0.00    +0.000 C 
ATOM     19  C   UNL     1       1.802   8.788  17.853  0.00  0.00    +0.000 C 
ENDBRANCH  16  18
ENDBRANCH  13  16
ENDBRANCH   1  13
BRANCH   3  20
ATOM     20  C   UNL     1       2.953   2.544  21.136  0.00  0.00    +0.000 C 
ATOM     21  N   UNL     1       2.090   2.485  21.905  0.00  0.00    +0.000 NA
ENDBRANCH   3  20
TORSDOF 5
ENDMDL
MODEL 7
REMARK VINA RESULT:      -6.1      1.589      4.920
REMARK  Name = 
REMARK  9 active torsions:
REMARK  status: ('A' for Active; 'I' for Inactive)
REMARK    1  A    between atoms: C_1  and  C_2
REMARK    2  A    between atoms: C_2  and  C_3
REMARK    3  A    between atoms: C_2  and  C_4
REMARK    4  A    between atoms: C_4  and  C_5
REMARK    5  A    between atoms: C_5  and  C_6
REMARK    6  A    between atoms: C_5  and  C_7
REMARK    7  A    between atoms: C_5  and  N_8
REMARK    8  A    between atoms: N_10  and  C_11
REMARK    9  A    between atoms: N_13  and  C_14
REMARK                            x       y       z     vdW  Elec       q    Type
REMARK                         _______ _______ _______ _____ _____    ______ ____
ROOT
ATOM      1  N   UNL     1       3.976   4.610  17.774  0.00  0.00    +0.000 NA
ATOM      2  C   UNL     1       4.139   3.356  17.573  0.00  0.00    +0.000 C 
ATOM      3  N   UNL     1       3.500   2.215  17.988  0.00  0.00    +0.000 N 
ATOM      4  N   UNL     1       5.188   2.925  16.769  0.00  0.00    +0.000 N 
ATOM      5  H   UNL     1       3.577   1.446  17.346  0.00  0.00    +0.000 HD
ATOM      6  H   UNL     1       5.749   2.197  17.191  0.00  0.00    +0.000 HD
ENDROOT
BRANCH   4   7
ATOM      7  C   UNL     1       5.913   3.730  15.870  0.00  0.00    +0.000 A 
ATOM      8  C   UNL     1       5.640   3.667  14.499  0.00  0.00    +0.000 A 
ATOM      9  C   UNL     1       6.357   4.462  13.607  0.00  0.00    +0.000 A 
ATOM     10  C   UNL     1       7.315   5.323  14.114  0.00  0.00    +0.000 A 
ATOM     11  N   UNL     1       7.585   5.450  15.427  0.00  0.00    +0.000 NA
ATOM     12  C   UNL     1       6.883   4.650  16.268  0.00  0.00    +0.000 A 
ENDBRANCH   4   7
BRANCH   1  13
ATOM     13  C   UNL     1       2.944   5.329  18.512  0.00  0.00    +0.000 C 
ATOM     14  C   UNL     1       2.991   5.009  20.012  0.00  0.00    +0.000 C 
ATOM     15  C   UNL     1       1.593   4.994  17.830  0.00  0.00    +0.000 C 
BRANCH  13  16
ATOM     16  C   UNL     1       3.157   6.884  18.348  0.00  0.00    +0.000 C 
BRANCH  16  18
ATOM     17  C   UNL     1       1.758   8.219  20.031  0.00  0.00    +0.000 C 
ATOM     18  C   UNL     1       1.949   7.838  18.566  0.00  0.00    +0.000 C 
ATOM     19  C   UNL     1       2.105   9.112  17.721  0.00  0.00    +0.000 C 
ENDBRANCH  16  18
ENDBRANCH  13  16
ENDBRANCH   1  13
BRANCH   3  20
ATOM     20  C   UNL     1       2.405   2.106  18.905  0.00  0.00    +0.000 C 
ATOM     21  N   UNL     1       1.474   1.947  19.574  0.00  0.00    +0.000 NA
ENDBRANCH   3  20
TORSDOF 5
ENDMDL
MODEL 8
REMARK VINA RESULT:      -6.1      1.808      5.070
REMARK  Name = 
REMARK  9 active torsions:
REMARK  status: ('A' for Active; 'I' for Inactive)
REMARK    1  A    between atoms: C_1  and  C_2
REMARK    2  A    between atoms: C_2  and  C_3
REMARK    3  A    between atoms: C_2  and  C_4
REMARK    4  A    between atoms: C_4  and  C_5
REMARK    5  A    between atoms: C_5  and  C_6
REMARK    6  A    between atoms: C_5  and  C_7
REMARK    7  A    between atoms: C_5  and  N_8
REMARK    8  A    between atoms: N_10  and  C_11
REMARK    9  A    between atoms: N_13  and  C_14
REMARK                            x       y       z     vdW  Elec       q    Type
REMARK                         _______ _______ _______ _____ _____    ______ ____
ROOT
ATOM      1  N   UNL     1       3.782   4.885  18.622  0.00  0.00    +0.000 NA
ATOM      2  C   UNL     1       4.622   3.920  18.679  0.00  0.00    +0.000 C 
ATOM      3  N   UNL     1       4.527   2.554  18.770  0.00  0.00    +0.000 N 
ATOM      4  N   UNL     1       5.983   4.199  18.665  0.00  0.00    +0.000 N 
ATOM      5  H   UNL     1       5.306   2.062  18.369  0.00  0.00    +0.000 HD
ATOM      6  H   UNL     1       6.498   3.739  19.404  0.00  0.00    +0.000 HD
ENDROOT
BRANCH   4   7
ATOM      7  C   UNL     1       6.564   5.418  18.263  0.00  0.00    +0.000 A 
ATOM      8  C   UNL     1       7.606   5.976  19.011  0.00  0.00    +0.000 A 
ATOM      9  C   UNL     1       8.182   7.182  18.616  0.00  0.00    +0.000 A 
ATOM     10  C   UNL     1       7.717   7.787  17.461  0.00  0.00    +0.000 A 
ATOM     11  N   UNL     1       6.746   7.269  16.684  0.00  0.00    +0.000 NA
ATOM     12  C   UNL     1       6.194   6.104  17.106  0.00  0.00    +0.000 A 
ENDBRANCH   4   7
BRANCH   1  13
ATOM     13  C   UNL     1       2.325   4.875  18.561  0.00  0.00    +0.000 C 
ATOM     14  C   UNL     1       1.703   4.485  19.908  0.00  0.00    +0.000 C 
ATOM     15  C   UNL     1       1.933   3.945  17.385  0.00  0.00    +0.000 C 
BRANCH  13  16
ATOM     16  C   UNL     1       1.797   6.315  18.190  0.00  0.00    +0.000 C 
BRANCH  16  18
ATOM     17  C   UNL     1       2.477   8.767  17.879  0.00  0.00    +0.000 C 
ATOM     18  C   UNL     1       2.494   7.557  18.810  0.00  0.00    +0.000 C 
ATOM     19  C   UNL     1       1.844   7.932  20.151  0.00  0.00    +0.000 C 
ENDBRANCH  16  18
ENDBRANCH  13  16
ENDBRANCH   1  13
BRANCH   3  20
ATOM     20  C   UNL     1       3.340   1.763  18.904  0.00  0.00    +0.000 C 
ATOM     21  N   UNL     1       2.355   1.187  19.099  0.00  0.00    +0.000 NA
ENDBRANCH   3  20
TORSDOF 5
ENDMDL
MODEL 9
REMARK VINA RESULT:      -6.0      2.044      4.055
REMARK  Name = 
REMARK  9 active torsions:
REMARK  status: ('A' for Active; 'I' for Inactive)
REMARK    1  A    between atoms: C_1  and  C_2
REMARK    2  A    between atoms: C_2  and  C_3
REMARK    3  A    between atoms: C_2  and  C_4
REMARK    4  A    between atoms: C_4  and  C_5
REMARK    5  A    between atoms: C_5  and  C_6
REMARK    6  A    between atoms: C_5  and  C_7
REMARK    7  A    between atoms: C_5  and  N_8
REMARK    8  A    between atoms: N_10  and  C_11
REMARK    9  A    between atoms: N_13  and  C_14
REMARK                            x       y       z     vdW  Elec       q    Type
REMARK                         _______ _______ _______ _____ _____    ______ ____
ROOT
ATOM      1  N   UNL     1       5.266   4.556  16.680  0.00  0.00    +0.000 NA
ATOM      2  C   UNL     1       5.335   5.194  17.788  0.00  0.00    +0.000 C 
ATOM      3  N   UNL     1       6.032   6.288  18.237  0.00  0.00    +0.000 N 
ATOM      4  N   UNL     1       4.580   4.763  18.872  0.00  0.00    +0.000 N 
ATOM      5  H   UNL     1       5.572   6.793  18.974  0.00  0.00    +0.000 HD
ATOM      6  H   UNL     1       5.114   4.665  19.725  0.00  0.00    +0.000 HD
ENDROOT
BRANCH   4   7
ATOM      7  C   UNL     1       3.479   3.886  18.805  0.00  0.00    +0.000 A 
ATOM      8  C   UNL     1       2.229   4.364  18.398  0.00  0.00    +0.000 A 
ATOM      9  C   UNL     1       1.138   3.498  18.331  0.00  0.00    +0.000 A 
ATOM     10  C   UNL     1       1.335   2.165  18.649  0.00  0.00    +0.000 A 
ATOM     11  N   UNL     1       2.527   1.649  19.005  0.00  0.00    +0.000 NA
ATOM     12  C   UNL     1       3.564   2.521  19.078  0.00  0.00    +0.000 A 
ENDBRANCH   4   7
BRANCH   1  13
ATOM     13  C   UNL     1       5.893   4.819  15.390  0.00  0.00    +0.000 C 
ATOM     14  C   UNL     1       7.424   4.779  15.485  0.00  0.00    +0.000 C 
ATOM     15  C   UNL     1       5.321   6.167  14.882  0.00  0.00    +0.000 C 
BRANCH  13  16
ATOM     16  C   UNL     1       5.450   3.721  14.348  0.00  0.00    +0.000 C 
BRANCH  16  18
ATOM     17  C   UNL     1       6.906   3.626  12.241  0.00  0.00    +0.000 C 
ATOM     18  C   UNL     1       5.558   4.034  12.830  0.00  0.00    +0.000 C 
ATOM     19  C   UNL     1       4.428   3.343  12.051  0.00  0.00    +0.000 C 
ENDBRANCH  16  18
ENDBRANCH  13  16
ENDBRANCH   1  13
BRANCH   3  20
ATOM     20  C   UNL     1       7.020   7.049  17.533  0.00  0.00    +0.000 C 
ATOM     21  N   UNL     1       7.791   7.750  17.028  0.00  0.00    +0.000 NA
ENDBRANCH   3  20
TORSDOF 5
ENDMDL
