MODEL 1
REMARK VINA RESULT:      -6.6      0.000      0.000
REMARK  Name = 
REMARK  7 active torsions:
REMARK  status: ('A' for Active; 'I' for Inactive)
REMARK    1  A    between atoms: C_1  and  C_2
REMARK    2  A    between atoms: N_4  and  C_5
REMARK    3  A    between atoms: C_5  and  C_6
REMARK    4  A    between atoms: C_5  and  C_23
REMARK    5  A    between atoms: N_8  and  C_9
REMARK    6  A    between atoms: C_16  and  C_17
REMARK    7  A    between atoms: C_24  and  O_25
REMARK                            x       y       z     vdW  Elec       q    Type
REMARK                         _______ _______ _______ _____ _____    ______ ____
ROOT
ATOM      1  C   UNL     1      -1.345  12.471  21.169  0.00  0.00    +0.000 C 
ENDROOT
BRANCH   1   2
ATOM      2  C   UNL     1      -2.879  12.402  21.007  0.00  0.00    +0.000 A 
ATOM      3  C   UNL     1      -3.493  12.392  19.734  0.00  0.00    +0.000 A 
ATOM      4  C   UNL     1      -4.866  12.519  19.570  0.00  0.00    +0.000 A 
ATOM      5  C   UNL     1      -5.665  12.784  20.669  0.00  0.00    +0.000 A 
ATOM      6  C   UNL     1      -5.119  12.795  21.955  0.00  0.00    +0.000 A 
ATOM      7  C   UNL     1      -5.952  13.112  23.039  0.00  0.00    +0.000 A 
ATOM      8  C   UNL     1      -5.494  13.005  24.346  0.00  0.00    +0.000 A 
ATOM      9  C   UNL     1      -4.209  12.541  24.579  0.00  0.00    +0.000 A 
ATOM     10  C   UNL     1      -3.340  12.309  23.504  0.00  0.00    +0.000 A 
ATOM     11  C   UNL     1      -3.743  12.492  22.156  0.00  0.00    +0.000 A 
BRANCH   3  12
ATOM     12  O   UNL     1      -2.796  12.326  18.561  0.00  0.00    +0.000 OA
ATOM     13  H   UNL     1      -2.136  11.616  18.663  0.00  0.00    +0.000 HD
ENDBRANCH   3  12
ENDBRANCH   1   2
BRANCH   1  17
ATOM     14  C   UNL     1       0.989   9.699  19.902  0.00  0.00    +0.000 C 
ATOM     15  C   UNL     1       0.369  10.575  20.960  0.00  0.00    +0.000 C 
ATOM     16  O   UNL     1       0.817  10.587  22.099  0.00  0.00    +0.000 OA
ATOM     17  N   UNL     1      -0.638  11.375  20.480  0.00  0.00    +0.000 N 
ATOM     18  H   UNL     1      -0.789  11.358  19.477  0.00  0.00    +0.000 HD
ENDBRANCH   1  17
BRANCH   1  19
ATOM     19  C   UNL     1      -0.906  13.843  20.720  0.00  0.00    +0.000 A 
ATOM     20  C   UNL     1      -0.131  14.148  19.609  0.00  0.00    +0.000 A 
ATOM     21  N   UNL     1       0.123  15.491  19.617  0.00  0.00    +0.000 N 
ATOM     22  N   UNL     1      -0.509  16.100  20.637  0.00  0.00    +0.000 NA
ATOM     23  C   UNL     1      -1.127  15.129  21.333  0.00  0.00    +0.000 A 
BRANCH  21  24
ATOM     24  C   UNL     1       0.910  16.227  18.685  0.00  0.00    +0.000 A 
ATOM     25  C   UNL     1       2.227  15.844  18.392  0.00  0.00    +0.000 A 
ATOM     26  C   UNL     1       2.979  16.570  17.464  0.00  0.00    +0.000 A 
ATOM     27  C   UNL     1       2.429  17.684  16.834  0.00  0.00    +0.000 A 
ATOM     28  C   UNL     1       1.124  18.076  17.128  0.00  0.00    +0.000 A 
ATOM     29  C   UNL     1       0.362  17.349  18.047  0.00  0.00    +0.000 A 
ENDBRANCH  21  24
BRANCH  23  30
ATOM     30  C   UNL     1      -1.905  15.515  22.525  0.00  0.00    +0.000 A 
ATOM     31  C   UNL     1      -3.212  16.012  22.360  0.00  0.00    +0.000 A 
ATOM     32  C   UNL     1      -4.005  16.355  23.458  0.00  0.00    +0.000 A 
ATOM     33  C   UNL     1      -3.505  16.207  24.746  0.00  0.00    +0.000 A 
ATOM     34  C   UNL     1      -2.201  15.751  24.931  0.00  0.00    +0.000 A 
ATOM     35  C   UNL     1      -1.403  15.421  23.828  0.00  0.00    +0.000 A 
ENDBRANCH  23  30
ENDBRANCH   1  19
TORSDOF 6
ENDMDL
MODEL 2
REMARK VINA RESULT:      -6.5      1.564      2.146
REMARK  Name = 
REMARK  7 active torsions:
REMARK  status: ('A' for Active; 'I' for Inactive)
REMARK    1  A    between atoms: C_1  and  C_2
REMARK    2  A    between atoms: N_4  and  C_5
REMARK    3  A    between atoms: C_5  and  C_6
REMARK    4  A    between atoms: C_5  and  C_23
REMARK    5  A    between atoms: N_8  and  C_9
REMARK    6  A    between atoms: C_16  and  C_17
REMARK    7  A    between atoms: C_24  and  O_25
REMARK                            x       y       z     vdW  Elec       q    Type
REMARK                         _______ _______ _______ _____ _____    ______ ____
ROOT
ATOM      1  C   UNL     1      -0.814  11.986  22.177  0.00  0.00    +0.000 C 
ENDROOT
BRANCH   1   2
ATOM      2  C   UNL     1      -2.227  12.147  21.576  0.00  0.00    +0.000 A 
ATOM      3  C   UNL     1      -2.439  12.191  20.179  0.00  0.00    +0.000 A 
ATOM      4  C   UNL     1      -3.669  12.521  19.624  0.00  0.00    +0.000 A 
ATOM      5  C   UNL     1      -4.700  12.939  20.447  0.00  0.00    +0.000 A 
ATOM      6  C   UNL     1      -4.555  12.907  21.836  0.00  0.00    +0.000 A 
ATOM      7  C   UNL     1      -5.607  13.381  22.636  0.00  0.00    +0.000 A 
ATOM      8  C   UNL     1      -5.570  13.246  24.018  0.00  0.00    +0.000 A 
ATOM      9  C   UNL     1      -4.496  12.598  24.608  0.00  0.00    +0.000 A 
ATOM     10  C   UNL     1      -3.400  12.203  23.829  0.00  0.00    +0.000 A 
ATOM     11  C   UNL     1      -3.362  12.404  22.425  0.00  0.00    +0.000 A 
BRANCH   3  12
ATOM     12  O   UNL     1      -1.451  11.984  19.258  0.00  0.00    +0.000 OA
ATOM     13  H   UNL     1      -0.602  12.113  19.720  0.00  0.00    +0.000 HD
ENDBRANCH   3  12
ENDBRANCH   1   2
BRANCH   1  17
ATOM     14  C   UNL     1       1.241   8.787  21.655  0.00  0.00    +0.000 C 
ATOM     15  C   UNL     1       0.436   9.766  22.469  0.00  0.00    +0.000 C 
ATOM     16  O   UNL     1       0.389   9.671  23.688  0.00  0.00    +0.000 OA
ATOM     17  N   UNL     1      -0.121  10.769  21.716  0.00  0.00    +0.000 N 
ATOM     18  H   UNL     1       0.139  10.794  20.735  0.00  0.00    +0.000 HD
ENDBRANCH   1  17
BRANCH   1  19
ATOM     19  C   UNL     1      -0.053  13.256  21.888  0.00  0.00    +0.000 A 
ATOM     20  C   UNL     1       1.085  13.386  21.104  0.00  0.00    +0.000 A 
ATOM     21  N   UNL     1       1.516  14.681  21.180  0.00  0.00    +0.000 N 
ATOM     22  N   UNL     1       0.676  15.431  21.917  0.00  0.00    +0.000 NA
ATOM     23  C   UNL     1      -0.275  14.596  22.373  0.00  0.00    +0.000 A 
BRANCH  21  24
ATOM     24  C   UNL     1       2.669  15.246  20.563  0.00  0.00    +0.000 A 
ATOM     25  C   UNL     1       2.551  16.074  19.437  0.00  0.00    +0.000 A 
ATOM     26  C   UNL     1       3.692  16.631  18.853  0.00  0.00    +0.000 A 
ATOM     27  C   UNL     1       4.953  16.358  19.380  0.00  0.00    +0.000 A 
ATOM     28  C   UNL     1       5.078  15.528  20.492  0.00  0.00    +0.000 A 
ATOM     29  C   UNL     1       3.941  14.975  21.088  0.00  0.00    +0.000 A 
ENDBRANCH  21  24
BRANCH  23  30
ATOM     30  C   UNL     1      -1.343  15.155  23.223  0.00  0.00    +0.000 A 
ATOM     31  C   UNL     1      -1.276  14.973  24.617  0.00  0.00    +0.000 A 
ATOM     32  C   UNL     1      -2.240  15.515  25.471  0.00  0.00    +0.000 A 
ATOM     33  C   UNL     1      -3.294  16.252  24.945  0.00  0.00    +0.000 A 
ATOM     34  C   UNL     1      -3.400  16.414  23.564  0.00  0.00    +0.000 A 
ATOM     35  C   UNL     1      -2.439  15.857  22.710  0.00  0.00    +0.000 A 
ENDBRANCH  23  30
ENDBRANCH   1  19
TORSDOF 6
ENDMDL
MODEL 3
REMARK VINA RESULT:      -6.4      7.004     12.269
REMARK  Name = 
REMARK  7 active torsions:
REMARK  status: ('A' for Active; 'I' for Inactive)
REMARK    1  A    between atoms: C_1  and  C_2
REMARK    2  A    between atoms: N_4  and  C_5
REMARK    3  A    between atoms: C_5  and  C_6
REMARK    4  A    between atoms: C_5  and  C_23
REMARK    5  A    between atoms: N_8  and  C_9
REMARK    6  A    between atoms: C_16  and  C_17
REMARK    7  A    between atoms: C_24  and  O_25
REMARK                            x       y       z     vdW  Elec       q    Type
REMARK                         _______ _______ _______ _____ _____    ______ ____
ROOT
ATOM      1  C   UNL     1       5.346   6.367  16.293  0.00  0.00    +0.000 C 
ENDROOT
BRANCH   1   2
ATOM      2  C   UNL     1       6.573   6.184  17.211  0.00  0.00    +0.000 A 
ATOM      3  C   UNL     1       6.908   4.926  17.762  0.00  0.00    +0.000 A 
ATOM      4  C   UNL     1       7.890   4.778  18.733  0.00  0.00    +0.000 A 
ATOM      5  C   UNL     1       8.490   5.901  19.277  0.00  0.00    +0.000 A 
ATOM      6  C   UNL     1       8.209   7.171  18.767  0.00  0.00    +0.000 A 
ATOM      7  C   UNL     1       8.802   8.289  19.373  0.00  0.00    +0.000 A 
ATOM      8  C   UNL     1       8.665   9.556  18.823  0.00  0.00    +0.000 A 
ATOM      9  C   UNL     1       7.965   9.709  17.637  0.00  0.00    +0.000 A 
ATOM     10  C   UNL     1       7.293   8.617  17.072  0.00  0.00    +0.000 A 
ATOM     11  C   UNL     1       7.336   7.323  17.653  0.00  0.00    +0.000 A 
BRANCH   3  12
ATOM     12  O   UNL     1       6.258   3.767  17.446  0.00  0.00    +0.000 OA
ATOM     13  H   UNL     1       6.485   3.118  18.137  0.00  0.00    +0.000 HD
ENDBRANCH   3  12
ENDBRANCH   1   2
BRANCH   1  17
ATOM     14  C   UNL     1       5.255   3.719  13.516  0.00  0.00    +0.000 C 
ATOM     15  C   UNL     1       5.907   4.792  14.350  0.00  0.00    +0.000 C 
ATOM     16  O   UNL     1       6.997   5.249  14.033  0.00  0.00    +0.000 OA
ATOM     17  N   UNL     1       5.120   5.226  15.388  0.00  0.00    +0.000 N 
ATOM     18  H   UNL     1       4.177   4.854  15.425  0.00  0.00    +0.000 HD
ENDBRANCH   1  17
BRANCH   1  19
ATOM     19  C   UNL     1       4.162   6.673  17.178  0.00  0.00    +0.000 A 
ATOM     20  C   UNL     1       3.605   7.920  17.424  0.00  0.00    +0.000 A 
ATOM     21  N   UNL     1       2.616   7.774  18.357  0.00  0.00    +0.000 N 
ATOM     22  N   UNL     1       2.442   6.481  18.683  0.00  0.00    +0.000 NA
ATOM     23  C   UNL     1       3.372   5.790  18.000  0.00  0.00    +0.000 A 
BRANCH  21  24
ATOM     24  C   UNL     1       1.808   8.800  18.928  0.00  0.00    +0.000 A 
ATOM     25  C   UNL     1       1.438   9.927  18.179  0.00  0.00    +0.000 A 
ATOM     26  C   UNL     1       0.633  10.916  18.751  0.00  0.00    +0.000 A 
ATOM     27  C   UNL     1       0.205  10.793  20.071  0.00  0.00    +0.000 A 
ATOM     28  C   UNL     1       0.577   9.680  20.823  0.00  0.00    +0.000 A 
ATOM     29  C   UNL     1       1.373   8.682  20.255  0.00  0.00    +0.000 A 
ENDBRANCH  21  24
BRANCH  23  30
ATOM     30  C   UNL     1       3.417   4.325  18.172  0.00  0.00    +0.000 A 
ATOM     31  C   UNL     1       3.954   3.789  19.357  0.00  0.00    +0.000 A 
ATOM     32  C   UNL     1       3.984   2.411  19.586  0.00  0.00    +0.000 A 
ATOM     33  C   UNL     1       3.477   1.540  18.630  0.00  0.00    +0.000 A 
ATOM     34  C   UNL     1       2.974   2.047  17.433  0.00  0.00    +0.000 A 
ATOM     35  C   UNL     1       2.958   3.428  17.201  0.00  0.00    +0.000 A 
ENDBRANCH  23  30
ENDBRANCH   1  19
TORSDOF 6
ENDMDL
MODEL 4
REMARK VINA RESULT:      -6.4      2.003      3.163
REMARK  Name = 
REMARK  7 active torsions:
REMARK  status: ('A' for Active; 'I' for Inactive)
REMARK    1  A    between atoms: C_1  and  C_2
REMARK    2  A    between atoms: N_4  and  C_5
REMARK    3  A    between atoms: C_5  and  C_6
REMARK    4  A    between atoms: C_5  and  C_23
REMARK    5  A    between atoms: N_8  and  C_9
REMARK    6  A    between atoms: C_16  and  C_17
REMARK    7  A    between atoms: C_24  and  O_25
REMARK                            x       y       z     vdW  Elec       q    Type
REMARK                         _______ _______ _______ _____ _____    ______ ____
ROOT
ATOM      1  C   UNL     1      -1.573  11.102  19.714  0.00  0.00    +0.000 C 
ENDROOT
BRANCH   1   2
ATOM      2  C   UNL     1      -2.418  10.908  18.438  0.00  0.00    +0.000 A 
ATOM      3  C   UNL     1      -1.880  10.315  17.273  0.00  0.00    +0.000 A 
ATOM      4  C   UNL     1      -2.562  10.302  16.063  0.00  0.00    +0.000 A 
ATOM      5  C   UNL     1      -3.757  10.991  15.943  0.00  0.00    +0.000 A 
ATOM      6  C   UNL     1      -4.345  11.588  17.061  0.00  0.00    +0.000 A 
ATOM      7  C   UNL     1      -5.534  12.314  16.892  0.00  0.00    +0.000 A 
ATOM      8  C   UNL     1      -6.230  12.810  17.986  0.00  0.00    +0.000 A 
ATOM      9  C   UNL     1      -5.762  12.547  19.264  0.00  0.00    +0.000 A 
ATOM     10  C   UNL     1      -4.530  11.902  19.442  0.00  0.00    +0.000 A 
ATOM     11  C   UNL     1      -3.746  11.459  18.345  0.00  0.00    +0.000 A 
BRANCH   3  12
ATOM     12  O   UNL     1      -0.629   9.770  17.212  0.00  0.00    +0.000 OA
ATOM     13  H   UNL     1      -0.462   9.548  16.278  0.00  0.00    +0.000 HD
ENDBRANCH   3  12
ENDBRANCH   1   2
BRANCH   1  17
ATOM     14  C   UNL     1       1.067   8.587  20.915  0.00  0.00    +0.000 C 
ATOM     15  C   UNL     1      -0.112   9.508  21.094  0.00  0.00    +0.000 C 
ATOM     16  O   UNL     1      -0.525   9.780  22.213  0.00  0.00    +0.000 OA
ATOM     17  N   UNL     1      -0.568  10.041  19.914  0.00  0.00    +0.000 N 
ATOM     18  H   UNL     1      -0.020   9.836  19.084  0.00  0.00    +0.000 HD
ENDBRANCH   1  17
BRANCH   1  19
ATOM     19  C   UNL     1      -0.978  12.487  19.655  0.00  0.00    +0.000 A 
ATOM     20  C   UNL     1       0.098  12.900  18.882  0.00  0.00    +0.000 A 
ATOM     21  N   UNL     1       0.381  14.201  19.195  0.00  0.00    +0.000 N 
ATOM     22  N   UNL     1      -0.504  14.691  20.083  0.00  0.00    +0.000 NA
ATOM     23  C   UNL     1      -1.329  13.675  20.394  0.00  0.00    +0.000 A 
BRANCH  21  24
ATOM     24  C   UNL     1       1.429  15.008  18.668  0.00  0.00    +0.000 A 
ATOM     25  C   UNL     1       2.651  14.440  18.278  0.00  0.00    +0.000 A 
ATOM     26  C   UNL     1       3.663  15.246  17.750  0.00  0.00    +0.000 A 
ATOM     27  C   UNL     1       3.468  16.619  17.619  0.00  0.00    +0.000 A 
ATOM     28  C   UNL     1       2.260  17.192  18.014  0.00  0.00    +0.000 A 
ATOM     29  C   UNL     1       1.240  16.391  18.533  0.00  0.00    +0.000 A 
ENDBRANCH  21  24
BRANCH  23  30
ATOM     30  C   UNL     1      -2.411  13.929  21.364  0.00  0.00    +0.000 A 
ATOM     31  C   UNL     1      -3.327  14.968  21.114  0.00  0.00    +0.000 A 
ATOM     32  C   UNL     1      -4.392  15.226  21.980  0.00  0.00    +0.000 A 
ATOM     33  C   UNL     1      -4.562  14.447  23.118  0.00  0.00    +0.000 A 
ATOM     34  C   UNL     1      -3.646  13.437  23.406  0.00  0.00    +0.000 A 
ATOM     35  C   UNL     1      -2.571  13.190  22.541  0.00  0.00    +0.000 A 
ENDBRANCH  23  30
ENDBRANCH   1  19
TORSDOF 6
ENDMDL
MODEL 5
REMARK VINA RESULT:      -6.4      1.768      5.690
REMARK  Name = 
REMARK  7 active torsions:
REMARK  status: ('A' for Active; 'I' for Inactive)
REMARK    1  A    between atoms: C_1  and  C_2
REMARK    2  A    between atoms: N_4  and  C_5
REMARK    3  A    between atoms: C_5  and  C_6
REMARK    4  A    between atoms: C_5  and  C_23
REMARK    5  A    between atoms: N_8  and  C_9
REMARK    6  A    between atoms: C_16  and  C_17
REMARK    7  A    between atoms: C_24  and  O_25
REMARK                            x       y       z     vdW  Elec       q    Type
REMARK                         _______ _______ _______ _____ _____    ______ ____
ROOT
ATOM      1  C   UNL     1      -0.487  14.684  19.866  0.00  0.00    +0.000 C 
ENDROOT
BRANCH   1   2
ATOM      2  C   UNL     1      -0.836  15.262  21.254  0.00  0.00    +0.000 A 
ATOM      3  C   UNL     1       0.011  15.078  22.370  0.00  0.00    +0.000 A 
ATOM      4  C   UNL     1      -0.371  15.426  23.660  0.00  0.00    +0.000 A 
ATOM      5  C   UNL     1      -1.665  15.858  23.896  0.00  0.00    +0.000 A 
ATOM      6  C   UNL     1      -2.546  16.070  22.833  0.00  0.00    +0.000 A 
ATOM      7  C   UNL     1      -3.863  16.465  23.116  0.00  0.00    +0.000 A 
ATOM      8  C   UNL     1      -4.737  16.820  22.096  0.00  0.00    +0.000 A 
ATOM      9  C   UNL     1      -4.286  16.820  20.786  0.00  0.00    +0.000 A 
ATOM     10  C   UNL     1      -3.004  16.341  20.484  0.00  0.00    +0.000 A 
ATOM     11  C   UNL     1      -2.113  15.886  21.490  0.00  0.00    +0.000 A 
BRANCH   3  12
ATOM     12  O   UNL     1       1.241  14.486  22.296  0.00  0.00    +0.000 OA
ATOM     13  H   UNL     1       1.489  14.468  21.353  0.00  0.00    +0.000 HD
ENDBRANCH   3  12
ENDBRANCH   1   2
BRANCH   1  17
ATOM     14  C   UNL     1       2.194  16.733  18.038  0.00  0.00    +0.000 C 
ATOM     15  C   UNL     1       0.875  16.541  18.739  0.00  0.00    +0.000 C 
ATOM     16  O   UNL     1       0.031  17.427  18.729  0.00  0.00    +0.000 OA
ATOM     17  N   UNL     1       0.721  15.286  19.272  0.00  0.00    +0.000 N 
ATOM     18  H   UNL     1       1.452  14.614  19.063  0.00  0.00    +0.000 HD
ENDBRANCH   1  17
BRANCH   1  19
ATOM     19  C   UNL     1      -0.400  13.185  20.012  0.00  0.00    +0.000 A 
ATOM     20  C   UNL     1       0.602  12.357  19.524  0.00  0.00    +0.000 A 
ATOM     21  N   UNL     1       0.254  11.060  19.782  0.00  0.00    +0.000 N 
ATOM     22  N   UNL     1      -0.893  10.994  20.483  0.00  0.00    +0.000 NA
ATOM     23  C   UNL     1      -1.323  12.261  20.625  0.00  0.00    +0.000 A 
BRANCH  21  24
ATOM     24  C   UNL     1       0.973   9.884  19.423  0.00  0.00    +0.000 A 
ATOM     25  C   UNL     1       1.482   9.718  18.126  0.00  0.00    +0.000 A 
ATOM     26  C   UNL     1       2.198   8.564  17.796  0.00  0.00    +0.000 A 
ATOM     27  C   UNL     1       2.399   7.568  18.749  0.00  0.00    +0.000 A 
ATOM     28  C   UNL     1       1.887   7.722  20.036  0.00  0.00    +0.000 A 
ATOM     29  C   UNL     1       1.179   8.877  20.377  0.00  0.00    +0.000 A 
ENDBRANCH  21  24
BRANCH  23  30
ATOM     30  C   UNL     1      -2.580  12.492  21.361  0.00  0.00    +0.000 A 
ATOM     31  C   UNL     1      -2.586  12.372  22.764  0.00  0.00    +0.000 A 
ATOM     32  C   UNL     1      -3.740  12.618  23.512  0.00  0.00    +0.000 A 
ATOM     33  C   UNL     1      -4.915  12.988  22.869  0.00  0.00    +0.000 A 
ATOM     34  C   UNL     1      -4.942  13.077  21.479  0.00  0.00    +0.000 A 
ATOM     35  C   UNL     1      -3.786  12.817  20.730  0.00  0.00    +0.000 A 
ENDBRANCH  23  30
ENDBRANCH   1  19
TORSDOF 6
ENDMDL
MODEL 6
REMARK VINA RESULT:      -6.3      1.743      5.484
REMARK  Name = 
REMARK  7 active torsions:
REMARK  status: ('A' for Active; 'I' for Inactive)
REMARK    1  A    between atoms: C_1  and  C_2
REMARK    2  A    between atoms: N_4  and  C_5
REMARK    3  A    between atoms: C_5  and  C_6
REMARK    4  A    between atoms: C_5  and  C_23
REMARK    5  A    between atoms: N_8  and  C_9
REMARK    6  A    between atoms: C_16  and  C_17
REMARK    7  A    between atoms: C_24  and  O_25
REMARK                            x       y       z     vdW  Elec       q    Type
REMARK                         _______ _______ _______ _____ _____    ______ ____
ROOT
ATOM      1  C   UNL     1      -1.690  15.066  20.733  0.00  0.00    +0.000 C 
ENDROOT
BRANCH   1   2
ATOM      2  C   UNL     1      -1.801  15.598  22.178  0.00  0.00    +0.000 A 
ATOM      3  C   UNL     1      -0.707  15.555  23.072  0.00  0.00    +0.000 A 
ATOM      4  C   UNL     1      -0.839  15.854  24.422  0.00  0.00    +0.000 A 
ATOM      5  C   UNL     1      -2.096  16.088  24.952  0.00  0.00    +0.000 A 
ATOM      6  C   UNL     1      -3.214  16.155  24.117  0.00  0.00    +0.000 A 
ATOM      7  C   UNL     1      -4.478  16.351  24.696  0.00  0.00    +0.000 A 
ATOM      8  C   UNL     1      -5.601  16.560  23.906  0.00  0.00    +0.000 A 
ATOM      9  C   UNL     1      -5.460  16.615  22.528  0.00  0.00    +0.000 A 
ATOM     10  C   UNL     1      -4.222  16.332  21.937  0.00  0.00    +0.000 A 
ATOM     11  C   UNL     1      -3.071  16.026  22.708  0.00  0.00    +0.000 A 
BRANCH   3  12
ATOM     12  O   UNL     1       0.548  15.154  22.711  0.00  0.00    +0.000 OA
ATOM     13  H   UNL     1       0.445  14.560  21.945  0.00  0.00    +0.000 HD
ENDBRANCH   3  12
ENDBRANCH   1   2
BRANCH   1  17
ATOM     14  C   UNL     1       0.280  17.260  18.276  0.00  0.00    +0.000 C 
ATOM     15  C   UNL     1      -0.913  16.907  19.126  0.00  0.00    +0.000 C 
ATOM     16  O   UNL     1      -1.961  17.530  19.018  0.00  0.00    +0.000 OA
ATOM     17  N   UNL     1      -0.709  15.803  19.916  0.00  0.00    +0.000 N 
ATOM     18  H   UNL     1       0.164  15.304  19.777  0.00  0.00    +0.000 HD
ENDBRANCH   1  17
BRANCH   1  19
ATOM     19  C   UNL     1      -1.409  13.586  20.819  0.00  0.00    +0.000 A 
ATOM     20  C   UNL     1      -0.389  12.893  20.180  0.00  0.00    +0.000 A 
ATOM     21  N   UNL     1      -0.545  11.560  20.440  0.00  0.00    +0.000 N 
ATOM     22  N   UNL     1      -1.573  11.345  21.281  0.00  0.00    +0.000 NA
ATOM     23  C   UNL     1      -2.127  12.549  21.517  0.00  0.00    +0.000 A 
BRANCH  21  24
ATOM     24  C   UNL     1       0.254  10.486  19.954  0.00  0.00    +0.000 A 
ATOM     25  C   UNL     1       0.660  10.439  18.612  0.00  0.00    +0.000 A 
ATOM     26  C   UNL     1       1.456   9.384  18.156  0.00  0.00    +0.000 A 
ATOM     27  C   UNL     1       1.840   8.369  19.029  0.00  0.00    +0.000 A 
ATOM     28  C   UNL     1       1.431   8.404  20.361  0.00  0.00    +0.000 A 
ATOM     29  C   UNL     1       0.644   9.460  20.827  0.00  0.00    +0.000 A 
ENDBRANCH  21  24
BRANCH  23  30
ATOM     30  C   UNL     1      -3.294  12.614  22.417  0.00  0.00    +0.000 A 
ATOM     31  C   UNL     1      -4.574  12.816  21.867  0.00  0.00    +0.000 A 
ATOM     32  C   UNL     1      -5.716  12.846  22.671  0.00  0.00    +0.000 A 
ATOM     33  C   UNL     1      -5.600  12.676  24.045  0.00  0.00    +0.000 A 
ATOM     34  C   UNL     1      -4.338  12.511  24.615  0.00  0.00    +0.000 A 
ATOM     35  C   UNL     1      -3.193  12.495  23.807  0.00  0.00    +0.000 A 
ENDBRANCH  23  30
ENDBRANCH   1  19
TORSDOF 6
ENDMDL
MODEL 7
REMARK VINA RESULT:      -6.3      1.906      3.244
REMARK  Name = 
REMARK  7 active torsions:
REMARK  status: ('A' for Active; 'I' for Inactive)
REMARK    1  A    between atoms: C_1  and  C_2
REMARK    2  A    between atoms: N_4  and  C_5
REMARK    3  A    between atoms: C_5  and  C_6
REMARK    4  A    between atoms: C_5  and  C_23
REMARK    5  A    between atoms: N_8  and  C_9
REMARK    6  A    between atoms: C_16  and  C_17
REMARK    7  A    between atoms: C_24  and  O_25
REMARK                            x       y       z     vdW  Elec       q    Type
REMARK                         _______ _______ _______ _____ _____    ______ ____
ROOT
ATOM      1  C   UNL     1      -1.636  11.368  19.887  0.00  0.00    +0.000 C 
ENDROOT
BRANCH   1   2
ATOM      2  C   UNL     1      -2.438  11.077  18.601  0.00  0.00    +0.000 A 
ATOM      3  C   UNL     1      -1.849  10.440  17.485  0.00  0.00    +0.000 A 
ATOM      4  C   UNL     1      -2.496  10.338  16.260  0.00  0.00    +0.000 A 
ATOM      5  C   UNL     1      -3.708  10.978  16.071  0.00  0.00    +0.000 A 
ATOM      6  C   UNL     1      -4.347  11.614  17.139  0.00  0.00    +0.000 A 
ATOM      7  C   UNL     1      -5.553  12.290  16.899  0.00  0.00    +0.000 A 
ATOM      8  C   UNL     1      -6.295  12.821  17.946  0.00  0.00    +0.000 A 
ATOM      9  C   UNL     1      -5.855  12.644  19.248  0.00  0.00    +0.000 A 
ATOM     10  C   UNL     1      -4.609  12.052  19.493  0.00  0.00    +0.000 A 
ATOM     11  C   UNL     1      -3.780  11.576  18.444  0.00  0.00    +0.000 A 
BRANCH   3  12
ATOM     12  O   UNL     1      -0.579   9.935  17.488  0.00  0.00    +0.000 OA
ATOM     13  H   UNL     1      -0.123  10.321  18.257  0.00  0.00    +0.000 HD
ENDBRANCH   3  12
ENDBRANCH   1   2
BRANCH   1  17
ATOM     14  C   UNL     1       1.140   9.093  21.248  0.00  0.00    +0.000 C 
ATOM     15  C   UNL     1       0.080  10.157  21.359  0.00  0.00    +0.000 C 
ATOM     16  O   UNL     1      -0.018  10.834  22.374  0.00  0.00    +0.000 OA
ATOM     17  N   UNL     1      -0.649  10.320  20.207  0.00  0.00    +0.000 N 
ATOM     18  H   UNL     1      -0.344   9.786  19.400  0.00  0.00    +0.000 HD
ENDBRANCH   1  17
BRANCH   1  19
ATOM     19  C   UNL     1      -1.025  12.739  19.736  0.00  0.00    +0.000 A 
ATOM     20  C   UNL     1       0.065  13.084  18.948  0.00  0.00    +0.000 A 
ATOM     21  N   UNL     1       0.359  14.401  19.170  0.00  0.00    +0.000 N 
ATOM     22  N   UNL     1      -0.531  14.963  20.009  0.00  0.00    +0.000 NA
ATOM     23  C   UNL     1      -1.372  13.981  20.382  0.00  0.00    +0.000 A 
BRANCH  21  24
ATOM     24  C   UNL     1       1.422  15.158  18.601  0.00  0.00    +0.000 A 
ATOM     25  C   UNL     1       1.274  16.528  18.340  0.00  0.00    +0.000 A 
ATOM     26  C   UNL     1       2.333  17.258  17.794  0.00  0.00    +0.000 A 
ATOM     27  C   UNL     1       3.538  16.625  17.495  0.00  0.00    +0.000 A 
ATOM     28  C   UNL     1       3.689  15.262  17.742  0.00  0.00    +0.000 A 
ATOM     29  C   UNL     1       2.638  14.528  18.297  0.00  0.00    +0.000 A 
ENDBRANCH  21  24
BRANCH  23  30
ATOM     30  C   UNL     1      -2.463  14.316  21.317  0.00  0.00    +0.000 A 
ATOM     31  C   UNL     1      -2.494  13.702  22.583  0.00  0.00    +0.000 A 
ATOM     32  C   UNL     1      -3.483  14.013  23.520  0.00  0.00    +0.000 A 
ATOM     33  C   UNL     1      -4.463  14.947  23.207  0.00  0.00    +0.000 A 
ATOM     34  C   UNL     1      -4.473  15.540  21.945  0.00  0.00    +0.000 A 
ATOM     35  C   UNL     1      -3.487  15.215  21.003  0.00  0.00    +0.000 A 
ENDBRANCH  23  30
ENDBRANCH   1  19
TORSDOF 6
ENDMDL
MODEL 8
REMARK VINA RESULT:      -6.2      1.879      2.232
REMARK  Name = 
REMARK  7 active torsions:
REMARK  status: ('A' for Active; 'I' for Inactive)
REMARK    1  A    between atoms: C_1  and  C_2
REMARK    2  A    between atoms: N_4  and  C_5
REMARK    3  A    between atoms: C_5  and  C_6
REMARK    4  A    between atoms: C_5  and  C_23
REMARK    5  A    between atoms: N_8  and  C_9
REMARK    6  A    between atoms: C_16  and  C_17
REMARK    7  A    between atoms: C_24  and  O_25
REMARK                            x       y       z     vdW  Elec       q    Type
REMARK                         _______ _______ _______ _____ _____    ______ ____
ROOT
ATOM      1  C   UNL     1      -0.267  11.820  21.645  0.00  0.00    +0.000 C 
ENDROOT
BRANCH   1   2
ATOM      2  C   UNL     1      -1.707  11.957  21.108  0.00  0.00    +0.000 A 
ATOM      3  C   UNL     1      -1.989  11.943  19.724  0.00  0.00    +0.000 A 
ATOM      4  C   UNL     1      -3.246  12.250  19.217  0.00  0.00    +0.000 A 
ATOM      5  C   UNL     1      -4.236  12.702  20.072  0.00  0.00    +0.000 A 
ATOM      6  C   UNL     1      -4.022  12.728  21.453  0.00  0.00    +0.000 A 
ATOM      7  C   UNL     1      -5.033  13.234  22.284  0.00  0.00    +0.000 A 
ATOM      8  C   UNL     1      -4.927  13.157  23.666  0.00  0.00    +0.000 A 
ATOM      9  C   UNL     1      -3.824  12.534  24.229  0.00  0.00    +0.000 A 
ATOM     10  C   UNL     1      -2.767  12.107  23.413  0.00  0.00    +0.000 A 
ATOM     11  C   UNL     1      -2.799  12.249  22.002  0.00  0.00    +0.000 A 
BRANCH   3  12
ATOM     12  O   UNL     1      -1.048  11.697  18.764  0.00  0.00    +0.000 OA
ATOM     13  H   UNL     1      -1.332  10.895  18.289  0.00  0.00    +0.000 HD
ENDBRANCH   3  12
ENDBRANCH   1   2
BRANCH   1  17
ATOM     14  C   UNL     1       1.179   8.288  21.233  0.00  0.00    +0.000 C 
ATOM     15  C   UNL     1       0.183   9.297  21.743  0.00  0.00    +0.000 C 
ATOM     16  O   UNL     1      -0.650   8.980  22.581  0.00  0.00    +0.000 OA
ATOM     17  N   UNL     1       0.387  10.560  21.245  0.00  0.00    +0.000 N 
ATOM     18  H   UNL     1       1.217  10.693  20.676  0.00  0.00    +0.000 HD
ENDBRANCH   1  17
BRANCH   1  19
ATOM     19  C   UNL     1       0.493  13.051  21.217  0.00  0.00    +0.000 A 
ATOM     20  C   UNL     1       1.667  13.091  20.478  0.00  0.00    +0.000 A 
ATOM     21  N   UNL     1       2.079  14.392  20.392  0.00  0.00    +0.000 N 
ATOM     22  N   UNL     1       1.194  15.222  20.973  0.00  0.00    +0.000 NA
ATOM     23  C   UNL     1       0.230  14.442  21.496  0.00  0.00    +0.000 A 
BRANCH  21  24
ATOM     24  C   UNL     1       3.254  14.887  19.757  0.00  0.00    +0.000 A 
ATOM     25  C   UNL     1       3.683  14.366  18.527  0.00  0.00    +0.000 A 
ATOM     26  C   UNL     1       4.831  14.874  17.912  0.00  0.00    +0.000 A 
ATOM     27  C   UNL     1       5.561  15.891  18.523  0.00  0.00    +0.000 A 
ATOM     28  C   UNL     1       5.147  16.405  19.750  0.00  0.00    +0.000 A 
ATOM     29  C   UNL     1       3.994  15.910  20.366  0.00  0.00    +0.000 A 
ENDBRANCH  21  24
BRANCH  23  30
ATOM     30  C   UNL     1      -0.885  15.094  22.207  0.00  0.00    +0.000 A 
ATOM     31  C   UNL     1      -0.896  15.094  23.614  0.00  0.00    +0.000 A 
ATOM     32  C   UNL     1      -1.909  15.731  24.336  0.00  0.00    +0.000 A 
ATOM     33  C   UNL     1      -2.934  16.383  23.661  0.00  0.00    +0.000 A 
ATOM     34  C   UNL     1      -2.963  16.365  22.268  0.00  0.00    +0.000 A 
ATOM     35  C   UNL     1      -1.953  15.713  21.547  0.00  0.00    +0.000 A 
ENDBRANCH  23  30
ENDBRANCH   1  19
TORSDOF 6
ENDMDL
MODEL 9
REMARK VINA RESULT:      -6.2      1.673      2.876
REMARK  Name = 
REMARK  7 active torsions:
REMARK  status: ('A' for Active; 'I' for Inactive)
REMARK    1  A    between atoms: C_1  and  C_2
REMARK    2  A    between atoms: N_4  and  C_5
REMARK    3  A    between atoms: C_5  and  C_6
REMARK    4  A    between atoms: C_5  and  C_23
REMARK    5  A    between atoms: N_8  and  C_9
REMARK    6  A    between atoms: C_16  and  C_17
REMARK    7  A    between atoms: C_24  and  O_25
REMARK                            x       y       z     vdW  Elec       q    Type
REMARK                         _______ _______ _______ _____ _____    ______ ____
ROOT
ATOM      1  C   UNL     1      -1.799  11.846  20.221  0.00  0.00    +0.000 C 
ENDROOT
BRANCH   1   2
ATOM      2  C   UNL     1      -2.522  11.465  18.912  0.00  0.00    +0.000 A 
ATOM      3  C   UNL     1      -1.830  10.900  17.818  0.00  0.00    +0.000 A 
ATOM      4  C   UNL     1      -2.422  10.725  16.573  0.00  0.00    +0.000 A 
ATOM      5  C   UNL     1      -3.693  11.223  16.345  0.00  0.00    +0.000 A 
ATOM      6  C   UNL     1      -4.433  11.782  17.390  0.00  0.00    +0.000 A 
ATOM      7  C   UNL     1      -5.700  12.316  17.110  0.00  0.00    +0.000 A 
ATOM      8  C   UNL     1      -6.531  12.759  18.131  0.00  0.00    +0.000 A 
ATOM      9  C   UNL     1      -6.114  12.633  19.447  0.00  0.00    +0.000 A 
ATOM     10  C   UNL     1      -4.817  12.187  19.733  0.00  0.00    +0.000 A 
ATOM     11  C   UNL     1      -3.907  11.809  18.712  0.00  0.00    +0.000 A 
BRANCH   3  12
ATOM     12  O   UNL     1      -0.512  10.542  17.862  0.00  0.00    +0.000 OA
ATOM     13  H   UNL     1      -0.071  11.160  18.473  0.00  0.00    +0.000 HD
ENDBRANCH   3  12
ENDBRANCH   1   2
BRANCH   1  17
ATOM     14  C   UNL     1       1.186   9.915  21.669  0.00  0.00    +0.000 C 
ATOM     15  C   UNL     1      -0.059  10.760  21.760  0.00  0.00    +0.000 C 
ATOM     16  O   UNL     1      -0.389  11.269  22.823  0.00  0.00    +0.000 OA
ATOM     17  N   UNL     1      -0.676  10.947  20.549  0.00  0.00    +0.000 N 
ATOM     18  H   UNL     1      -0.192  10.585  19.734  0.00  0.00    +0.000 HD
ENDBRANCH   1  17
BRANCH   1  19
ATOM     19  C   UNL     1      -1.393  13.295  20.107  0.00  0.00    +0.000 A 
ATOM     20  C   UNL     1      -0.768  13.902  19.027  0.00  0.00    +0.000 A 
ATOM     21  N   UNL     1      -0.485  15.197  19.364  0.00  0.00    +0.000 N 
ATOM     22  N   UNL     1      -0.960  15.496  20.587  0.00  0.00    +0.000 NA
ATOM     23  C   UNL     1      -1.501  14.362  21.070  0.00  0.00    +0.000 A 
BRANCH  21  24
ATOM     24  C   UNL     1       0.185  16.171  18.570  0.00  0.00    +0.000 A 
ATOM     25  C   UNL     1       1.584  16.168  18.454  0.00  0.00    +0.000 A 
ATOM     26  C   UNL     1       2.223  17.122  17.658  0.00  0.00    +0.000 A 
ATOM     27  C   UNL     1       1.477  18.088  16.986  0.00  0.00    +0.000 A 
ATOM     28  C   UNL     1       0.088  18.102  17.105  0.00  0.00    +0.000 A 
ATOM     29  C   UNL     1      -0.559  17.145  17.890  0.00  0.00    +0.000 A 
ENDBRANCH  21  24
BRANCH  23  30
ATOM     30  C   UNL     1      -2.103  14.397  22.417  0.00  0.00    +0.000 A 
ATOM     31  C   UNL     1      -1.311  14.789  23.513  0.00  0.00    +0.000 A 
ATOM     32  C   UNL     1      -1.843  14.876  24.802  0.00  0.00    +0.000 A 
ATOM     33  C   UNL     1      -3.181  14.571  25.020  0.00  0.00    +0.000 A 
ATOM     34  C   UNL     1      -3.974  14.145  23.956  0.00  0.00    +0.000 A 
ATOM     35  C   UNL     1      -3.434  14.045  22.667  0.00  0.00    +0.000 A 
ENDBRANCH  23  30
ENDBRANCH   1  19
TORSDOF 6
ENDMDL
