MODEL 1
REMARK VINA RESULT:      -6.3      0.000      0.000
REMARK  Name = 
REMARK  18 active torsions:
REMARK  status: ('A' for Active; 'I' for Inactive)
REMARK    1  A    between atoms: C_1  and  C_2
REMARK    2  A    between atoms: C_2  and  N_3
REMARK    3  A    between atoms: N_3  and  C_4
REMARK    4  A    between atoms: N_3  and  C_6
REMARK    5  A    between atoms: C_4  and  C_5
REMARK    6  A    between atoms: C_6  and  N_8
REMARK    7  A    between atoms: N_8  and  N_9
REMARK    8  A    between atoms: C_10  and  C_11
REMARK    9  A    between atoms: C_10  and  C_12
REMARK   10  A    between atoms: C_16  and  C_17
REMARK   11  A    between atoms: C_17  and  C_18
REMARK   12  A    between atoms: N_19  and  N_20
REMARK   13  A    between atoms: N_20  and  C_21
REMARK   14  A    between atoms: C_21  and  N_23
REMARK   15  A    between atoms: N_23  and  C_24
REMARK   16  A    between atoms: N_23  and  C_26
REMARK   17  A    between atoms: C_24  and  C_25
REMARK   18  A    between atoms: C_26  and  C_27
REMARK                            x       y       z     vdW  Elec       q    Type
REMARK                         _______ _______ _______ _____ _____    ______ ____
ROOT
ATOM      1  C   UNL     1       2.394   6.749  19.439  0.00  0.00    +0.000 A 
ATOM      2  C   UNL     1       2.734   7.062  18.123  0.00  0.00    +0.000 A 
ATOM      3  C   UNL     1       2.466   8.333  17.659  0.00  0.00    +0.000 A 
ATOM      4  C   UNL     1       1.817   9.217  18.505  0.00  0.00    +0.000 A 
ATOM      5  C   UNL     1       1.359   8.779  19.756  0.00  0.00    +0.000 A 
ATOM      6  N   UNL     1       1.654   7.551  20.266  0.00  0.00    +0.000 NA
ENDROOT
BRANCH   1   8
ATOM      7  N   UNL     1       4.218   5.077  19.823  0.00  0.00    +0.000 NA
ATOM      8  C   UNL     1       3.019   5.528  20.009  0.00  0.00    +0.000 C 
ATOM      9  C   UNL     1       2.159   4.729  20.975  0.00  0.00    +0.000 C 
BRANCH   7  10
ATOM     10  N   UNL     1       5.088   5.738  19.014  0.00  0.00    +0.000 N 
ATOM     11  H   UNL     1       5.194   6.733  19.158  0.00  0.00    +0.000 HD
BRANCH  10  12
ATOM     12  C   UNL     1       5.817   5.035  18.056  0.00  0.00    +0.000 C 
ATOM     13  S   UNL     1       7.510   4.899  18.161  0.00  0.00    +0.000 S 
BRANCH  12  14
ATOM     14  N   UNL     1       5.049   4.464  17.006  0.00  0.00    +0.000 N 
BRANCH  14  16
ATOM     15  C   UNL     1       2.738   3.426  17.004  0.00  0.00    +0.000 C 
ATOM     16  C   UNL     1       4.232   3.249  17.176  0.00  0.00    +0.000 C 
ENDBRANCH  14  16
BRANCH  14  17
ATOM     17  C   UNL     1       5.223   5.016  15.646  0.00  0.00    +0.000 C 
ATOM     18  C   UNL     1       5.226   6.530  15.459  0.00  0.00    +0.000 C 
ENDBRANCH  14  17
ENDBRANCH  12  14
ENDBRANCH  10  12
ENDBRANCH   7  10
ENDBRANCH   1   8
BRANCH   5  19
ATOM     19  C   UNL     1       0.443   9.692  20.517  0.00  0.00    +0.000 C 
ATOM     20  C   UNL     1       0.856  10.050  21.944  0.00  0.00    +0.000 C 
ATOM     21  N   UNL     1      -0.689  10.226  20.169  0.00  0.00    +0.000 NA
BRANCH  21  22
ATOM     22  N   UNL     1      -1.229  10.119  18.932  0.00  0.00    +0.000 N 
ATOM     23  H   UNL     1      -1.429   9.198  18.551  0.00  0.00    +0.000 HD
BRANCH  22  24
ATOM     24  C   UNL     1      -1.621  11.273  18.248  0.00  0.00    +0.000 C 
ATOM     25  S   UNL     1      -0.785  12.733  18.276  0.00  0.00    +0.000 S 
BRANCH  24  26
ATOM     26  N   UNL     1      -2.758  11.110  17.460  0.00  0.00    +0.000 N 
BRANCH  26  27
ATOM     27  C   UNL     1      -2.691  11.165  15.999  0.00  0.00    +0.000 C 
ATOM     28  C   UNL     1      -2.916   9.842  15.292  0.00  0.00    +0.000 C 
ENDBRANCH  26  27
BRANCH  26  29
ATOM     29  C   UNL     1      -4.058  10.909  18.093  0.00  0.00    +0.000 C 
ATOM     30  C   UNL     1      -4.404  12.056  19.011  0.00  0.00    +0.000 C 
ENDBRANCH  26  29
ENDBRANCH  24  26
ENDBRANCH  22  24
ENDBRANCH  21  22
ENDBRANCH   5  19
TORSDOF 12
ENDMDL
MODEL 2
REMARK VINA RESULT:      -6.3      1.246      8.577
REMARK  Name = 
REMARK  18 active torsions:
REMARK  status: ('A' for Active; 'I' for Inactive)
REMARK    1  A    between atoms: C_1  and  C_2
REMARK    2  A    between atoms: C_2  and  N_3
REMARK    3  A    between atoms: N_3  and  C_4
REMARK    4  A    between atoms: N_3  and  C_6
REMARK    5  A    between atoms: C_4  and  C_5
REMARK    6  A    between atoms: C_6  and  N_8
REMARK    7  A    between atoms: N_8  and  N_9
REMARK    8  A    between atoms: C_10  and  C_11
REMARK    9  A    between atoms: C_10  and  C_12
REMARK   10  A    between atoms: C_16  and  C_17
REMARK   11  A    between atoms: C_17  and  C_18
REMARK   12  A    between atoms: N_19  and  N_20
REMARK   13  A    between atoms: N_20  and  C_21
REMARK   14  A    between atoms: C_21  and  N_23
REMARK   15  A    between atoms: N_23  and  C_24
REMARK   16  A    between atoms: N_23  and  C_26
REMARK   17  A    between atoms: C_24  and  C_25
REMARK   18  A    between atoms: C_26  and  C_27
REMARK                            x       y       z     vdW  Elec       q    Type
REMARK                         _______ _______ _______ _____ _____    ______ ____
ROOT
ATOM      1  C   UNL     1       1.472   8.603  19.982  0.00  0.00    +0.000 A 
ATOM      2  C   UNL     1       1.831   9.025  18.703  0.00  0.00    +0.000 A 
ATOM      3  C   UNL     1       2.278   8.082  17.801  0.00  0.00    +0.000 A 
ATOM      4  C   UNL     1       2.406   6.771  18.232  0.00  0.00    +0.000 A 
ATOM      5  C   UNL     1       2.182   6.453  19.579  0.00  0.00    +0.000 A 
ATOM      6  N   UNL     1       1.688   7.347  20.481  0.00  0.00    +0.000 NA
ENDROOT
BRANCH   1   8
ATOM      7  N   UNL     1      -0.152  10.470  20.369  0.00  0.00    +0.000 NA
ATOM      8  C   UNL     1       0.661   9.554  20.786  0.00  0.00    +0.000 C 
ATOM      9  C   UNL     1       0.761   9.402  22.296  0.00  0.00    +0.000 C 
BRANCH   7  10
ATOM     10  N   UNL     1      -0.352  10.664  19.038  0.00  0.00    +0.000 N 
ATOM     11  H   UNL     1       0.118  10.035  18.400  0.00  0.00    +0.000 HD
BRANCH  10  12
ATOM     12  C   UNL     1      -1.206  11.676  18.603  0.00  0.00    +0.000 C 
ATOM     13  S   UNL     1      -0.637  13.258  18.344  0.00  0.00    +0.000 S 
BRANCH  12  14
ATOM     14  N   UNL     1      -2.558  11.288  18.406  0.00  0.00    +0.000 N 
BRANCH  14  16
ATOM     15  C   UNL     1      -5.019  11.873  18.268  0.00  0.00    +0.000 C 
ATOM     16  C   UNL     1      -3.698  12.011  18.996  0.00  0.00    +0.000 C 
ENDBRANCH  14  16
BRANCH  14  17
ATOM     17  C   UNL     1      -2.812  10.000  17.725  0.00  0.00    +0.000 C 
ATOM     18  C   UNL     1      -2.578   9.902  16.221  0.00  0.00    +0.000 C 
ENDBRANCH  14  17
ENDBRANCH  12  14
ENDBRANCH  10  12
ENDBRANCH   7  10
ENDBRANCH   1   8
BRANCH   5  19
ATOM     19  C   UNL     1       2.583   5.084  20.043  0.00  0.00    +0.000 C 
ATOM     20  C   UNL     1       1.526   4.273  20.793  0.00  0.00    +0.000 C 
ATOM     21  N   UNL     1       3.717   4.459  19.936  0.00  0.00    +0.000 NA
BRANCH  21  22
ATOM     22  N   UNL     1       4.783   4.937  19.251  0.00  0.00    +0.000 N 
ATOM     23  H   UNL     1       5.433   5.568  19.712  0.00  0.00    +0.000 HD
BRANCH  22  24
ATOM     24  C   UNL     1       5.048   4.458  17.964  0.00  0.00    +0.000 C 
ATOM     25  S   UNL     1       4.098   3.335  17.148  0.00  0.00    +0.000 S 
BRANCH  24  26
ATOM     26  N   UNL     1       6.156   5.042  17.355  0.00  0.00    +0.000 N 
BRANCH  26  27
ATOM     27  C   UNL     1       7.422   5.208  18.069  0.00  0.00    +0.000 C 
ATOM     28  C   UNL     1       7.778   6.638  18.428  0.00  0.00    +0.000 C 
ENDBRANCH  26  27
BRANCH  26  29
ATOM     29  C   UNL     1       6.057   5.531  15.983  0.00  0.00    +0.000 C 
ATOM     30  C   UNL     1       7.006   4.795  15.069  0.00  0.00    +0.000 C 
ENDBRANCH  26  29
ENDBRANCH  24  26
ENDBRANCH  22  24
ENDBRANCH  21  22
ENDBRANCH   5  19
TORSDOF 12
ENDMDL
MODEL 3
REMARK VINA RESULT:      -6.2      2.376      4.141
REMARK  Name = 
REMARK  18 active torsions:
REMARK  status: ('A' for Active; 'I' for Inactive)
REMARK    1  A    between atoms: C_1  and  C_2
REMARK    2  A    between atoms: C_2  and  N_3
REMARK    3  A    between atoms: N_3  and  C_4
REMARK    4  A    between atoms: N_3  and  C_6
REMARK    5  A    between atoms: C_4  and  C_5
REMARK    6  A    between atoms: C_6  and  N_8
REMARK    7  A    between atoms: N_8  and  N_9
REMARK    8  A    between atoms: C_10  and  C_11
REMARK    9  A    between atoms: C_10  and  C_12
REMARK   10  A    between atoms: C_16  and  C_17
REMARK   11  A    between atoms: C_17  and  C_18
REMARK   12  A    between atoms: N_19  and  N_20
REMARK   13  A    between atoms: N_20  and  C_21
REMARK   14  A    between atoms: C_21  and  N_23
REMARK   15  A    between atoms: N_23  and  C_24
REMARK   16  A    between atoms: N_23  and  C_26
REMARK   17  A    between atoms: C_24  and  C_25
REMARK   18  A    between atoms: C_26  and  C_27
REMARK                            x       y       z     vdW  Elec       q    Type
REMARK                         _______ _______ _______ _____ _____    ______ ____
ROOT
ATOM      1  C   UNL     1       3.266   4.385  19.014  0.00  0.00    +0.000 A 
ATOM      2  C   UNL     1       2.830   3.925  20.256  0.00  0.00    +0.000 A 
ATOM      3  C   UNL     1       2.000   4.734  21.003  0.00  0.00    +0.000 A 
ATOM      4  C   UNL     1       1.690   5.990  20.508  0.00  0.00    +0.000 A 
ATOM      5  C   UNL     1       2.297   6.447  19.330  0.00  0.00    +0.000 A 
ATOM      6  N   UNL     1       3.077   5.655  18.541  0.00  0.00    +0.000 NA
ENDROOT
BRANCH   1   8
ATOM      7  N   UNL     1       4.526   3.552  17.018  0.00  0.00    +0.000 NA
ATOM      8  C   UNL     1       3.835   3.365  18.096  0.00  0.00    +0.000 C 
ATOM      9  C   UNL     1       3.622   1.914  18.497  0.00  0.00    +0.000 C 
BRANCH   7  10
ATOM     10  N   UNL     1       4.816   4.809  16.589  0.00  0.00    +0.000 N 
ATOM     11  H   UNL     1       4.074   5.495  16.624  0.00  0.00    +0.000 HD
BRANCH  10  12
ATOM     12  C   UNL     1       6.106   5.117  16.158  0.00  0.00    +0.000 C 
ATOM     13  S   UNL     1       6.692   4.559  14.662  0.00  0.00    +0.000 S 
BRANCH  12  14
ATOM     14  N   UNL     1       6.872   5.911  17.053  0.00  0.00    +0.000 N 
BRANCH  14  16
ATOM     15  C   UNL     1       7.938   8.047  17.899  0.00  0.00    +0.000 C 
ATOM     16  C   UNL     1       7.229   7.314  16.780  0.00  0.00    +0.000 C 
ENDBRANCH  14  16
BRANCH  14  17
ATOM     17  C   UNL     1       7.480   5.239  18.221  0.00  0.00    +0.000 C 
ATOM     18  C   UNL     1       6.777   5.330  19.572  0.00  0.00    +0.000 C 
ENDBRANCH  14  17
ENDBRANCH  12  14
ENDBRANCH  10  12
ENDBRANCH   7  10
ENDBRANCH   1   8
BRANCH   5  19
ATOM     19  C   UNL     1       2.130   7.897  18.981  0.00  0.00    +0.000 C 
ATOM     20  C   UNL     1       2.557   8.322  17.577  0.00  0.00    +0.000 C 
ATOM     21  N   UNL     1       1.693   8.888  19.699  0.00  0.00    +0.000 NA
BRANCH  21  22
ATOM     22  N   UNL     1       1.188   8.755  20.947  0.00  0.00    +0.000 N 
ATOM     23  H   UNL     1       1.499   7.985  21.534  0.00  0.00    +0.000 HD
BRANCH  22  24
ATOM     24  C   UNL     1       0.344   9.745  21.460  0.00  0.00    +0.000 C 
ATOM     25  S   UNL     1      -0.368   9.698  22.984  0.00  0.00    +0.000 S 
BRANCH  24  26
ATOM     26  N   UNL     1       0.177  10.843  20.620  0.00  0.00    +0.000 N 
BRANCH  26  27
ATOM     27  C   UNL     1      -0.899  10.892  19.630  0.00  0.00    +0.000 C 
ATOM     28  C   UNL     1      -1.958  11.950  19.880  0.00  0.00    +0.000 C 
ENDBRANCH  26  27
BRANCH  26  29
ATOM     29  C   UNL     1       1.108  11.965  20.698  0.00  0.00    +0.000 C 
ATOM     30  C   UNL     1       1.620  12.348  19.330  0.00  0.00    +0.000 C 
ENDBRANCH  26  29
ENDBRANCH  24  26
ENDBRANCH  22  24
ENDBRANCH  21  22
ENDBRANCH   5  19
TORSDOF 12
ENDMDL
MODEL 4
REMARK VINA RESULT:      -6.2      1.886      8.532
REMARK  Name = 
REMARK  18 active torsions:
REMARK  status: ('A' for Active; 'I' for Inactive)
REMARK    1  A    between atoms: C_1  and  C_2
REMARK    2  A    between atoms: C_2  and  N_3
REMARK    3  A    between atoms: N_3  and  C_4
REMARK    4  A    between atoms: N_3  and  C_6
REMARK    5  A    between atoms: C_4  and  C_5
REMARK    6  A    between atoms: C_6  and  N_8
REMARK    7  A    between atoms: N_8  and  N_9
REMARK    8  A    between atoms: C_10  and  C_11
REMARK    9  A    between atoms: C_10  and  C_12
REMARK   10  A    between atoms: C_16  and  C_17
REMARK   11  A    between atoms: C_17  and  C_18
REMARK   12  A    between atoms: N_19  and  N_20
REMARK   13  A    between atoms: N_20  and  C_21
REMARK   14  A    between atoms: C_21  and  N_23
REMARK   15  A    between atoms: N_23  and  C_24
REMARK   16  A    between atoms: N_23  and  C_26
REMARK   17  A    between atoms: C_24  and  C_25
REMARK   18  A    between atoms: C_26  and  C_27
REMARK                            x       y       z     vdW  Elec       q    Type
REMARK                         _______ _______ _______ _____ _____    ______ ____
ROOT
ATOM      1  C   UNL     1       1.330   8.792  20.162  0.00  0.00    +0.000 A 
ATOM      2  C   UNL     1       1.529   9.256  18.862  0.00  0.00    +0.000 A 
ATOM      3  C   UNL     1       1.992   8.370  17.911  0.00  0.00    +0.000 A 
ATOM      4  C   UNL     1       2.294   7.078  18.311  0.00  0.00    +0.000 A 
ATOM      5  C   UNL     1       2.225   6.732  19.668  0.00  0.00    +0.000 A 
ATOM      6  N   UNL     1       1.721   7.564  20.621  0.00  0.00    +0.000 NA
ENDROOT
BRANCH   1   8
ATOM      7  N   UNL     1       0.376  10.936  21.036  0.00  0.00    +0.000 NA
ATOM      8  C   UNL     1       0.498   9.648  21.047  0.00  0.00    +0.000 C 
ATOM      9  C   UNL     1      -0.359   8.915  22.067  0.00  0.00    +0.000 C 
BRANCH   7  10
ATOM     10  N   UNL     1       1.062  11.689  20.136  0.00  0.00    +0.000 N 
ATOM     11  H   UNL     1       1.961  11.343  19.828  0.00  0.00    +0.000 HD
BRANCH  10  12
ATOM     12  C   UNL     1       0.504  12.870  19.648  0.00  0.00    +0.000 C 
ATOM     13  S   UNL     1       1.444  14.275  19.456  0.00  0.00    +0.000 S 
BRANCH  12  14
ATOM     14  N   UNL     1      -0.881  12.806  19.340  0.00  0.00    +0.000 N 
BRANCH  14  16
ATOM     15  C   UNL     1      -1.907  10.692  18.392  0.00  0.00    +0.000 C 
ATOM     16  C   UNL     1      -1.411  12.104  18.157  0.00  0.00    +0.000 C 
ENDBRANCH  14  16
BRANCH  14  17
ATOM     17  C   UNL     1      -1.805  13.630  20.147  0.00  0.00    +0.000 C 
ATOM     18  C   UNL     1      -2.176  13.162  21.551  0.00  0.00    +0.000 C 
ENDBRANCH  14  17
ENDBRANCH  12  14
ENDBRANCH  10  12
ENDBRANCH   7  10
ENDBRANCH   1   8
BRANCH   5  19
ATOM     19  C   UNL     1       2.808   5.411  20.076  0.00  0.00    +0.000 C 
ATOM     20  C   UNL     1       1.936   4.515  20.955  0.00  0.00    +0.000 C 
ATOM     21  N   UNL     1       3.972   4.892  19.823  0.00  0.00    +0.000 NA
BRANCH  21  22
ATOM     22  N   UNL     1       4.892   5.458  19.007  0.00  0.00    +0.000 N 
ATOM     23  H   UNL     1       5.453   6.234  19.346  0.00  0.00    +0.000 HD
BRANCH  22  24
ATOM     24  C   UNL     1       5.148   4.888  17.756  0.00  0.00    +0.000 C 
ATOM     25  S   UNL     1       4.245   3.647  17.067  0.00  0.00    +0.000 S 
BRANCH  24  26
ATOM     26  N   UNL     1       6.201   5.482  17.064  0.00  0.00    +0.000 N 
BRANCH  26  27
ATOM     27  C   UNL     1       6.358   6.936  17.009  0.00  0.00    +0.000 C 
ATOM     28  C   UNL     1       7.645   7.469  17.609  0.00  0.00    +0.000 C 
ENDBRANCH  26  27
BRANCH  26  29
ATOM     29  C   UNL     1       7.162   4.647  16.347  0.00  0.00    +0.000 C 
ATOM     30  C   UNL     1       7.036   4.826  14.854  0.00  0.00    +0.000 C 
ENDBRANCH  26  29
ENDBRANCH  24  26
ENDBRANCH  22  24
ENDBRANCH  21  22
ENDBRANCH   5  19
TORSDOF 12
ENDMDL
MODEL 5
REMARK VINA RESULT:      -6.1      1.293      2.199
REMARK  Name = 
REMARK  18 active torsions:
REMARK  status: ('A' for Active; 'I' for Inactive)
REMARK    1  A    between atoms: C_1  and  C_2
REMARK    2  A    between atoms: C_2  and  N_3
REMARK    3  A    between atoms: N_3  and  C_4
REMARK    4  A    between atoms: N_3  and  C_6
REMARK    5  A    between atoms: C_4  and  C_5
REMARK    6  A    between atoms: C_6  and  N_8
REMARK    7  A    between atoms: N_8  and  N_9
REMARK    8  A    between atoms: C_10  and  C_11
REMARK    9  A    between atoms: C_10  and  C_12
REMARK   10  A    between atoms: C_16  and  C_17
REMARK   11  A    between atoms: C_17  and  C_18
REMARK   12  A    between atoms: N_19  and  N_20
REMARK   13  A    between atoms: N_20  and  C_21
REMARK   14  A    between atoms: C_21  and  N_23
REMARK   15  A    between atoms: N_23  and  C_24
REMARK   16  A    between atoms: N_23  and  C_26
REMARK   17  A    between atoms: C_24  and  C_25
REMARK   18  A    between atoms: C_26  and  C_27
REMARK                            x       y       z     vdW  Elec       q    Type
REMARK                         _______ _______ _______ _____ _____    ______ ____
ROOT
ATOM      1  C   UNL     1       2.283   6.666  19.512  0.00  0.00    +0.000 A 
ATOM      2  C   UNL     1       2.554   6.987  18.183  0.00  0.00    +0.000 A 
ATOM      3  C   UNL     1       2.301   8.273  17.753  0.00  0.00    +0.000 A 
ATOM      4  C   UNL     1       1.733   9.164  18.649  0.00  0.00    +0.000 A 
ATOM      5  C   UNL     1       1.337   8.722  19.919  0.00  0.00    +0.000 A 
ATOM      6  N   UNL     1       1.621   7.477  20.393  0.00  0.00    +0.000 NA
ENDROOT
BRANCH   1   8
ATOM      7  N   UNL     1       4.057   4.912  19.736  0.00  0.00    +0.000 NA
ATOM      8  C   UNL     1       2.901   5.416  20.027  0.00  0.00    +0.000 C 
ATOM      9  C   UNL     1       2.094   4.654  21.067  0.00  0.00    +0.000 C 
BRANCH   7  10
ATOM     10  N   UNL     1       4.881   5.534  18.852  0.00  0.00    +0.000 N 
ATOM     11  H   UNL     1       5.251   6.438  19.117  0.00  0.00    +0.000 HD
BRANCH  10  12
ATOM     12  C   UNL     1       5.212   4.910  17.651  0.00  0.00    +0.000 C 
ATOM     13  S   UNL     1       4.364   3.538  17.107  0.00  0.00    +0.000 S 
BRANCH  12  14
ATOM     14  N   UNL     1       6.294   5.495  16.940  0.00  0.00    +0.000 N 
BRANCH  14  16
ATOM     15  C   UNL     1       7.639   7.571  17.487  0.00  0.00    +0.000 C 
ATOM     16  C   UNL     1       7.477   6.070  17.605  0.00  0.00    +0.000 C 
ENDBRANCH  14  16
BRANCH  14  17
ATOM     17  C   UNL     1       6.136   5.688  15.483  0.00  0.00    +0.000 C 
ATOM     18  C   UNL     1       6.903   4.775  14.531  0.00  0.00    +0.000 C 
ENDBRANCH  14  17
ENDBRANCH  12  14
ENDBRANCH  10  12
ENDBRANCH   7  10
ENDBRANCH   1   8
BRANCH   5  19
ATOM     19  C   UNL     1       0.498   9.652  20.746  0.00  0.00    +0.000 C 
ATOM     20  C   UNL     1       0.944   9.882  22.189  0.00  0.00    +0.000 C 
ATOM     21  N   UNL     1      -0.589  10.295  20.443  0.00  0.00    +0.000 NA
BRANCH  21  22
ATOM     22  N   UNL     1      -1.141  10.312  19.207  0.00  0.00    +0.000 N 
ATOM     23  H   UNL     1      -0.879   9.599  18.532  0.00  0.00    +0.000 HD
BRANCH  22  24
ATOM     24  C   UNL     1      -2.155  11.229  18.916  0.00  0.00    +0.000 C 
ATOM     25  S   UNL     1      -2.543  12.560  19.870  0.00  0.00    +0.000 S 
BRANCH  24  26
ATOM     26  N   UNL     1      -2.805  10.996  17.707  0.00  0.00    +0.000 N 
BRANCH  26  27
ATOM     27  C   UNL     1      -4.147  11.518  17.446  0.00  0.00    +0.000 C 
ATOM     28  C   UNL     1      -5.264  10.839  18.214  0.00  0.00    +0.000 C 
ENDBRANCH  26  27
BRANCH  26  29
ATOM     29  C   UNL     1      -2.156  10.189  16.677  0.00  0.00    +0.000 C 
ATOM     30  C   UNL     1      -3.055  10.005  15.478  0.00  0.00    +0.000 C 
ENDBRANCH  26  29
ENDBRANCH  24  26
ENDBRANCH  22  24
ENDBRANCH  21  22
ENDBRANCH   5  19
TORSDOF 12
ENDMDL
MODEL 6
REMARK VINA RESULT:      -6.1      2.178      8.311
REMARK  Name = 
REMARK  18 active torsions:
REMARK  status: ('A' for Active; 'I' for Inactive)
REMARK    1  A    between atoms: C_1  and  C_2
REMARK    2  A    between atoms: C_2  and  N_3
REMARK    3  A    between atoms: N_3  and  C_4
REMARK    4  A    between atoms: N_3  and  C_6
REMARK    5  A    between atoms: C_4  and  C_5
REMARK    6  A    between atoms: C_6  and  N_8
REMARK    7  A    between atoms: N_8  and  N_9
REMARK    8  A    between atoms: C_10  and  C_11
REMARK    9  A    between atoms: C_10  and  C_12
REMARK   10  A    between atoms: C_16  and  C_17
REMARK   11  A    between atoms: C_17  and  C_18
REMARK   12  A    between atoms: N_19  and  N_20
REMARK   13  A    between atoms: N_20  and  C_21
REMARK   14  A    between atoms: C_21  and  N_23
REMARK   15  A    between atoms: N_23  and  C_24
REMARK   16  A    between atoms: N_23  and  C_26
REMARK   17  A    between atoms: C_24  and  C_25
REMARK   18  A    between atoms: C_26  and  C_27
REMARK                            x       y       z     vdW  Elec       q    Type
REMARK                         _______ _______ _______ _____ _____    ______ ____
ROOT
ATOM      1  C   UNL     1       1.256   8.889  20.391  0.00  0.00    +0.000 A 
ATOM      2  C   UNL     1       1.424   9.436  19.120  0.00  0.00    +0.000 A 
ATOM      3  C   UNL     1       1.862   8.614  18.103  0.00  0.00    +0.000 A 
ATOM      4  C   UNL     1       2.172   7.299  18.410  0.00  0.00    +0.000 A 
ATOM      5  C   UNL     1       2.135   6.865  19.742  0.00  0.00    +0.000 A 
ATOM      6  N   UNL     1       1.655   7.632  20.760  0.00  0.00    +0.000 NA
ENDROOT
BRANCH   1   8
ATOM      7  N   UNL     1       0.499  10.956  21.584  0.00  0.00    +0.000 NA
ATOM      8  C   UNL     1       0.447   9.684  21.350  0.00  0.00    +0.000 C 
ATOM      9  C   UNL     1      -0.613   8.916  22.124  0.00  0.00    +0.000 C 
BRANCH   7  10
ATOM     10  N   UNL     1       1.379  11.747  20.916  0.00  0.00    +0.000 N 
ATOM     11  H   UNL     1       2.298  11.368  20.729  0.00  0.00    +0.000 HD
BRANCH  10  12
ATOM     12  C   UNL     1       0.988  13.015  20.486  0.00  0.00    +0.000 C 
ATOM     13  S   UNL     1       0.981  14.343  21.550  0.00  0.00    +0.000 S 
BRANCH  12  14
ATOM     14  N   UNL     1       0.599  13.101  19.123  0.00  0.00    +0.000 N 
BRANCH  14  16
ATOM     15  C   UNL     1       2.996  13.476  18.395  0.00  0.00    +0.000 C 
ATOM     16  C   UNL     1       1.523  13.495  18.045  0.00  0.00    +0.000 C 
ENDBRANCH  14  16
BRANCH  14  17
ATOM     17  C   UNL     1      -0.839  12.959  18.806  0.00  0.00    +0.000 C 
ATOM     18  C   UNL     1      -1.330  11.657  18.180  0.00  0.00    +0.000 C 
ENDBRANCH  14  17
ENDBRANCH  12  14
ENDBRANCH  10  12
ENDBRANCH   7  10
ENDBRANCH   1   8
BRANCH   5  19
ATOM     19  C   UNL     1       2.725   5.520  20.049  0.00  0.00    +0.000 C 
ATOM     20  C   UNL     1       1.897   4.590  20.935  0.00  0.00    +0.000 C 
ATOM     21  N   UNL     1       3.864   5.003  19.699  0.00  0.00    +0.000 NA
BRANCH  21  22
ATOM     22  N   UNL     1       4.740   5.599  18.856  0.00  0.00    +0.000 N 
ATOM     23  H   UNL     1       5.238   6.432  19.158  0.00  0.00    +0.000 HD
BRANCH  22  24
ATOM     24  C   UNL     1       5.043   4.993  17.634  0.00  0.00    +0.000 C 
ATOM     25  S   UNL     1       4.161   3.737  16.945  0.00  0.00    +0.000 S 
BRANCH  24  26
ATOM     26  N   UNL     1       6.127   5.562  16.968  0.00  0.00    +0.000 N 
BRANCH  26  27
ATOM     27  C   UNL     1       7.085   4.742  16.226  0.00  0.00    +0.000 C 
ATOM     28  C   UNL     1       6.983   4.838  14.716  0.00  0.00    +0.000 C 
ENDBRANCH  26  27
BRANCH  26  29
ATOM     29  C   UNL     1       6.340   7.005  17.028  0.00  0.00    +0.000 C 
ATOM     30  C   UNL     1       7.673   7.336  17.656  0.00  0.00    +0.000 C 
ENDBRANCH  26  29
ENDBRANCH  24  26
ENDBRANCH  22  24
ENDBRANCH  21  22
ENDBRANCH   5  19
TORSDOF 12
ENDMDL
MODEL 7
REMARK VINA RESULT:      -6.1      5.323      8.689
REMARK  Name = 
REMARK  18 active torsions:
REMARK  status: ('A' for Active; 'I' for Inactive)
REMARK    1  A    between atoms: C_1  and  C_2
REMARK    2  A    between atoms: C_2  and  N_3
REMARK    3  A    between atoms: N_3  and  C_4
REMARK    4  A    between atoms: N_3  and  C_6
REMARK    5  A    between atoms: C_4  and  C_5
REMARK    6  A    between atoms: C_6  and  N_8
REMARK    7  A    between atoms: N_8  and  N_9
REMARK    8  A    between atoms: C_10  and  C_11
REMARK    9  A    between atoms: C_10  and  C_12
REMARK   10  A    between atoms: C_16  and  C_17
REMARK   11  A    between atoms: C_17  and  C_18
REMARK   12  A    between atoms: N_19  and  N_20
REMARK   13  A    between atoms: N_20  and  C_21
REMARK   14  A    between atoms: C_21  and  N_23
REMARK   15  A    between atoms: N_23  and  C_24
REMARK   16  A    between atoms: N_23  and  C_26
REMARK   17  A    between atoms: C_24  and  C_25
REMARK   18  A    between atoms: C_26  and  C_27
REMARK                            x       y       z     vdW  Elec       q    Type
REMARK                         _______ _______ _______ _____ _____    ______ ____
ROOT
ATOM      1  C   UNL     1      -4.400  11.650  17.546  0.00  0.00    +0.000 A 
ATOM      2  C   UNL     1      -5.281  12.151  16.588  0.00  0.00    +0.000 A 
ATOM      3  C   UNL     1      -6.466  12.712  17.014  0.00  0.00    +0.000 A 
ATOM      4  C   UNL     1      -6.750  12.694  18.370  0.00  0.00    +0.000 A 
ATOM      5  C   UNL     1      -5.891  12.026  19.255  0.00  0.00    +0.000 A 
ATOM      6  N   UNL     1      -4.689  11.511  18.877  0.00  0.00    +0.000 NA
ENDROOT
BRANCH   1   8
ATOM      7  N   UNL     1      -1.903  11.824  17.624  0.00  0.00    +0.000 NA
ATOM      8  C   UNL     1      -3.006  11.403  17.095  0.00  0.00    +0.000 C 
ATOM      9  C   UNL     1      -2.849  10.498  15.883  0.00  0.00    +0.000 C 
BRANCH   7  10
ATOM     10  N   UNL     1      -1.923  12.603  18.738  0.00  0.00    +0.000 N 
ATOM     11  H   UNL     1      -2.796  13.059  18.972  0.00  0.00    +0.000 HD
BRANCH  10  12
ATOM     12  C   UNL     1      -0.779  12.722  19.526  0.00  0.00    +0.000 C 
ATOM     13  S   UNL     1       0.376  13.935  19.226  0.00  0.00    +0.000 S 
BRANCH  12  14
ATOM     14  N   UNL     1      -0.657  11.765  20.568  0.00  0.00    +0.000 N 
BRANCH  14  16
ATOM     15  C   UNL     1       0.660   9.895  19.478  0.00  0.00    +0.000 C 
ATOM     16  C   UNL     1      -0.525  10.318  20.321  0.00  0.00    +0.000 C 
ENDBRANCH  14  16
BRANCH  14  17
ATOM     17  C   UNL     1      -0.850  12.231  21.958  0.00  0.00    +0.000 C 
ATOM     18  C   UNL     1      -1.274  11.224  23.022  0.00  0.00    +0.000 C 
ENDBRANCH  14  17
ENDBRANCH  12  14
ENDBRANCH  10  12
ENDBRANCH   7  10
ENDBRANCH   1   8
BRANCH   5  19
ATOM     19  C   UNL     1      -6.374  11.814  20.661  0.00  0.00    +0.000 C 
ATOM     20  C   UNL     1      -7.779  11.237  20.827  0.00  0.00    +0.000 C 
ATOM     21  N   UNL     1      -5.794  12.067  21.795  0.00  0.00    +0.000 NA
BRANCH  21  22
ATOM     22  N   UNL     1      -4.520  12.512  21.912  0.00  0.00    +0.000 N 
ATOM     23  H   UNL     1      -3.749  11.875  21.733  0.00  0.00    +0.000 HD
BRANCH  22  24
ATOM     24  C   UNL     1      -4.282  13.868  22.152  0.00  0.00    +0.000 C 
ATOM     25  S   UNL     1      -3.713  14.956  21.003  0.00  0.00    +0.000 S 
BRANCH  24  26
ATOM     26  N   UNL     1      -4.619  14.288  23.437  0.00  0.00    +0.000 N 
BRANCH  26  27
ATOM     27  C   UNL     1      -5.689  15.259  23.668  0.00  0.00    +0.000 C 
ATOM     28  C   UNL     1      -7.057  14.661  23.936  0.00  0.00    +0.000 C 
ENDBRANCH  26  27
BRANCH  26  29
ATOM     29  C   UNL     1      -3.877  13.779  24.586  0.00  0.00    +0.000 C 
ATOM     30  C   UNL     1      -4.423  12.448  25.045  0.00  0.00    +0.000 C 
ENDBRANCH  26  29
ENDBRANCH  24  26
ENDBRANCH  22  24
ENDBRANCH  21  22
ENDBRANCH   5  19
TORSDOF 12
ENDMDL
MODEL 8
REMARK VINA RESULT:      -6.1      2.030      3.401
REMARK  Name = 
REMARK  18 active torsions:
REMARK  status: ('A' for Active; 'I' for Inactive)
REMARK    1  A    between atoms: C_1  and  C_2
REMARK    2  A    between atoms: C_2  and  N_3
REMARK    3  A    between atoms: N_3  and  C_4
REMARK    4  A    between atoms: N_3  and  C_6
REMARK    5  A    between atoms: C_4  and  C_5
REMARK    6  A    between atoms: C_6  and  N_8
REMARK    7  A    between atoms: N_8  and  N_9
REMARK    8  A    between atoms: C_10  and  C_11
REMARK    9  A    between atoms: C_10  and  C_12
REMARK   10  A    between atoms: C_16  and  C_17
REMARK   11  A    between atoms: C_17  and  C_18
REMARK   12  A    between atoms: N_19  and  N_20
REMARK   13  A    between atoms: N_20  and  C_21
REMARK   14  A    between atoms: C_21  and  N_23
REMARK   15  A    between atoms: N_23  and  C_24
REMARK   16  A    between atoms: N_23  and  C_26
REMARK   17  A    between atoms: C_24  and  C_25
REMARK   18  A    between atoms: C_26  and  C_27
REMARK                            x       y       z     vdW  Elec       q    Type
REMARK                         _______ _______ _______ _____ _____    ______ ____
ROOT
ATOM      1  C   UNL     1       1.956   4.734  19.094  0.00  0.00    +0.000 A 
ATOM      2  C   UNL     1       1.744   4.949  20.456  0.00  0.00    +0.000 A 
ATOM      3  C   UNL     1       1.668   6.248  20.912  0.00  0.00    +0.000 A 
ATOM      4  C   UNL     1       1.868   7.275  20.004  0.00  0.00    +0.000 A 
ATOM      5  C   UNL     1       2.239   6.979  18.685  0.00  0.00    +0.000 A 
ATOM      6  N   UNL     1       2.269   5.711  18.188  0.00  0.00    +0.000 NA
ENDROOT
BRANCH   1   8
ATOM      7  N   UNL     1       2.419   2.597  17.874  0.00  0.00    +0.000 NA
ATOM      8  C   UNL     1       1.664   3.368  18.589  0.00  0.00    +0.000 C 
ATOM      9  C   UNL     1       0.326   2.776  19.004  0.00  0.00    +0.000 C 
BRANCH   7  10
ATOM     10  N   UNL     1       3.655   3.007  17.484  0.00  0.00    +0.000 N 
ATOM     11  H   UNL     1       3.798   3.180  16.498  0.00  0.00    +0.000 HD
BRANCH  10  12
ATOM     12  C   UNL     1       4.655   3.204  18.436  0.00  0.00    +0.000 C 
ATOM     13  S   UNL     1       4.678   2.319  19.888  0.00  0.00    +0.000 S 
BRANCH  12  14
ATOM     14  N   UNL     1       5.625   4.187  18.102  0.00  0.00    +0.000 N 
BRANCH  14  16
ATOM     15  C   UNL     1       7.399   5.667  19.142  0.00  0.00    +0.000 C 
ATOM     16  C   UNL     1       5.930   5.343  18.964  0.00  0.00    +0.000 C 
ENDBRANCH  14  16
BRANCH  14  17
ATOM     17  C   UNL     1       6.221   4.135  16.750  0.00  0.00    +0.000 C 
ATOM     18  C   UNL     1       5.855   5.220  15.741  0.00  0.00    +0.000 C 
ENDBRANCH  14  17
ENDBRANCH  12  14
ENDBRANCH  10  12
ENDBRANCH   7  10
ENDBRANCH   1   8
BRANCH   5  19
ATOM     19  C   UNL     1       2.694   8.119  17.821  0.00  0.00    +0.000 C 
ATOM     20  C   UNL     1       4.075   7.990  17.180  0.00  0.00    +0.000 C 
ATOM     21  N   UNL     1       2.107   9.242  17.535  0.00  0.00    +0.000 NA
BRANCH  21  22
ATOM     22  N   UNL     1       0.849   9.559  17.921  0.00  0.00    +0.000 N 
ATOM     23  H   UNL     1       0.111   8.864  17.844  0.00  0.00    +0.000 HD
BRANCH  22  24
ATOM     24  C   UNL     1       0.605  10.790  18.537  0.00  0.00    +0.000 C 
ATOM     25  S   UNL     1       1.740  12.022  18.695  0.00  0.00    +0.000 S 
BRANCH  24  26
ATOM     26  N   UNL     1      -0.707  10.960  18.972  0.00  0.00    +0.000 N 
BRANCH  26  27
ATOM     27  C   UNL     1      -1.030  11.816  20.114  0.00  0.00    +0.000 C 
ATOM     28  C   UNL     1      -2.463  12.312  20.165  0.00  0.00    +0.000 C 
ENDBRANCH  26  27
BRANCH  26  29
ATOM     29  C   UNL     1      -1.793  10.251  18.301  0.00  0.00    +0.000 C 
ATOM     30  C   UNL     1      -2.200  10.952  17.027  0.00  0.00    +0.000 C 
ENDBRANCH  26  29
ENDBRANCH  24  26
ENDBRANCH  22  24
ENDBRANCH  21  22
ENDBRANCH   5  19
TORSDOF 12
ENDMDL
MODEL 9
REMARK VINA RESULT:      -6.0      6.197      9.248
REMARK  Name = 
REMARK  18 active torsions:
REMARK  status: ('A' for Active; 'I' for Inactive)
REMARK    1  A    between atoms: C_1  and  C_2
REMARK    2  A    between atoms: C_2  and  N_3
REMARK    3  A    between atoms: N_3  and  C_4
REMARK    4  A    between atoms: N_3  and  C_6
REMARK    5  A    between atoms: C_4  and  C_5
REMARK    6  A    between atoms: C_6  and  N_8
REMARK    7  A    between atoms: N_8  and  N_9
REMARK    8  A    between atoms: C_10  and  C_11
REMARK    9  A    between atoms: C_10  and  C_12
REMARK   10  A    between atoms: C_16  and  C_17
REMARK   11  A    between atoms: C_17  and  C_18
REMARK   12  A    between atoms: N_19  and  N_20
REMARK   13  A    between atoms: N_20  and  C_21
REMARK   14  A    between atoms: C_21  and  N_23
REMARK   15  A    between atoms: N_23  and  C_24
REMARK   16  A    between atoms: N_23  and  C_26
REMARK   17  A    between atoms: C_24  and  C_25
REMARK   18  A    between atoms: C_26  and  C_27
REMARK                            x       y       z     vdW  Elec       q    Type
REMARK                         _______ _______ _______ _____ _____    ______ ____
ROOT
ATOM      1  C   UNL     1      -0.762  12.235  19.602  0.00  0.00    +0.000 A 
ATOM      2  C   UNL     1       0.049  11.120  19.810  0.00  0.00    +0.000 A 
ATOM      3  C   UNL     1      -0.041  10.067  18.923  0.00  0.00    +0.000 A 
ATOM      4  C   UNL     1      -0.978  10.145  17.906  0.00  0.00    +0.000 A 
ATOM      5  C   UNL     1      -1.871  11.225  17.858  0.00  0.00    +0.000 A 
ATOM      6  N   UNL     1      -1.773  12.305  18.682  0.00  0.00    +0.000 NA
ENDROOT
BRANCH   1   8
ATOM      7  N   UNL     1      -1.053  14.106  21.240  0.00  0.00    +0.000 NA
ATOM      8  C   UNL     1      -0.383  13.471  20.333  0.00  0.00    +0.000 C 
ATOM      9  C   UNL     1       0.990  14.041  20.010  0.00  0.00    +0.000 C 
BRANCH   7  10
ATOM     10  N   UNL     1      -2.273  13.660  21.639  0.00  0.00    +0.000 N 
ATOM     11  H   UNL     1      -2.539  12.723  21.364  0.00  0.00    +0.000 HD
BRANCH  10  12
ATOM     12  C   UNL     1      -3.089  14.473  22.425  0.00  0.00    +0.000 C 
ATOM     13  S   UNL     1      -3.803  15.881  21.791  0.00  0.00    +0.000 S 
BRANCH  12  14
ATOM     14  N   UNL     1      -3.263  14.042  23.767  0.00  0.00    +0.000 N 
BRANCH  14  16
ATOM     15  C   UNL     1      -1.483  15.285  25.072  0.00  0.00    +0.000 C 
ATOM     16  C   UNL     1      -2.936  14.882  24.932  0.00  0.00    +0.000 C 
ENDBRANCH  14  16
BRANCH  14  17
ATOM     17  C   UNL     1      -3.622  12.625  23.994  0.00  0.00    +0.000 C 
ATOM     18  C   UNL     1      -4.820  12.301  24.881  0.00  0.00    +0.000 C 
ENDBRANCH  14  17
ENDBRANCH  12  14
ENDBRANCH  10  12
ENDBRANCH   7  10
ENDBRANCH   1   8
BRANCH   5  19
ATOM     19  C   UNL     1      -3.022  11.130  16.900  0.00  0.00    +0.000 C 
ATOM     20  C   UNL     1      -2.754  10.431  15.568  0.00  0.00    +0.000 C 
ATOM     21  N   UNL     1      -4.238  11.576  17.002  0.00  0.00    +0.000 NA
BRANCH  21  22
ATOM     22  N   UNL     1      -4.739  12.163  18.114  0.00  0.00    +0.000 N 
ATOM     23  H   UNL     1      -4.105  12.588  18.786  0.00  0.00    +0.000 HD
BRANCH  22  24
ATOM     24  C   UNL     1      -6.123  12.291  18.263  0.00  0.00    +0.000 C 
ATOM     25  S   UNL     1      -7.085  13.356  17.384  0.00  0.00    +0.000 S 
BRANCH  24  26
ATOM     26  N   UNL     1      -6.683  11.402  19.177  0.00  0.00    +0.000 N 
BRANCH  26  27
ATOM     27  C   UNL     1      -6.747   9.965  18.905  0.00  0.00    +0.000 C 
ATOM     28  C   UNL     1      -7.313   9.120  20.030  0.00  0.00    +0.000 C 
ENDBRANCH  26  27
BRANCH  26  29
ATOM     29  C   UNL     1      -7.251  11.903  20.425  0.00  0.00    +0.000 C 
ATOM     30  C   UNL     1      -6.186  12.508  21.307  0.00  0.00    +0.000 C 
ENDBRANCH  26  29
ENDBRANCH  24  26
ENDBRANCH  22  24
ENDBRANCH  21  22
ENDBRANCH   5  19
TORSDOF 12
ENDMDL
