MODEL 1
REMARK VINA RESULT:      -6.6      0.000      0.000
REMARK  Name = 
REMARK  9 active torsions:
REMARK  status: ('A' for Active; 'I' for Inactive)
REMARK    1  A    between atoms: C_1  and  C_2
REMARK    2  A    between atoms: C_2  and  C_3
REMARK    3  A    between atoms: C_3  and  C_4
REMARK    4  A    between atoms: C_4  and  C_5
REMARK    5  A    between atoms: N_7  and  C_8
REMARK    6  A    between atoms: C_8  and  C_9
REMARK    7  A    between atoms: C_12  and  O_13
REMARK    8  A    between atoms: C_14  and  O_15
REMARK    9  A    between atoms: O_15  and  C_16
REMARK                            x       y       z     vdW  Elec       q    Type
REMARK                         _______ _______ _______ _____ _____    ______ ____
ROOT
ATOM      1  C   UNL     1       2.758   3.255  19.873  0.00  0.00    +0.000 C 
ATOM      2  C   UNL     1       4.188   3.779  19.544  0.00  0.00    +0.000 C 
ATOM      3  N   UNL     1       4.453   4.498  18.290  0.00  0.00    +0.000 NA
ATOM      4  C   UNL     1       3.594   5.685  18.175  0.00  0.00    +0.000 C 
ATOM      5  C   UNL     1       2.092   5.423  18.264  0.00  0.00    +0.000 C 
ATOM      6  S   UNL     1       1.582   4.705  19.850  0.00  0.00    +0.000 S 
ATOM      7  O   UNL     1       1.989   5.701  20.992  0.00  0.00    +0.000 OA
ENDROOT
BRANCH   1   9
ATOM      8  C   UNL     1       1.406   2.474  21.967  0.00  0.00    +0.000 C 
ATOM      9  C   UNL     1       2.777   2.704  21.339  0.00  0.00    +0.000 C 
ENDBRANCH   1   9
BRANCH   1  10
ATOM     10  C   UNL     1       2.256   2.172  18.878  0.00  0.00    +0.000 C 
ATOM     11  C   UNL     1       0.758   2.153  18.580  0.00  0.00    +0.000 C 
ENDBRANCH   1  10
BRANCH   3  12
ATOM     12  C   UNL     1       4.537   3.721  17.048  0.00  0.00    +0.000 C 
BRANCH  12  13
ATOM     13  C   UNL     1       5.566   4.180  16.033  0.00  0.00    +0.000 A 
ATOM     14  C   UNL     1       6.488   5.194  16.323  0.00  0.00    +0.000 A 
ATOM     15  C   UNL     1       7.392   5.632  15.351  0.00  0.00    +0.000 A 
ATOM     16  C   UNL     1       7.367   5.088  14.065  0.00  0.00    +0.000 A 
ATOM     17  C   UNL     1       6.438   4.093  13.742  0.00  0.00    +0.000 A 
ATOM     18  C   UNL     1       5.555   3.639  14.736  0.00  0.00    +0.000 A 
BRANCH  16  19
ATOM     19  O   UNL     1       8.276   5.532  13.147  0.00  0.00    +0.000 OA
ATOM     20  H   UNL     1       7.953   5.323  12.255  0.00  0.00    +0.000 HD
ENDBRANCH  16  19
BRANCH  17  21
ATOM     21  O   UNL     1       6.285   3.450  12.543  0.00  0.00    +0.000 OA
ATOM     22  C   UNL     1       4.958   3.342  12.040  0.00  0.00    +0.000 C 
ENDBRANCH  17  21
ENDBRANCH  12  13
ENDBRANCH   3  12
TORSDOF 6
ENDMDL
MODEL 2
REMARK VINA RESULT:      -6.5      1.951      3.131
REMARK  Name = 
REMARK  9 active torsions:
REMARK  status: ('A' for Active; 'I' for Inactive)
REMARK    1  A    between atoms: C_1  and  C_2
REMARK    2  A    between atoms: C_2  and  C_3
REMARK    3  A    between atoms: C_3  and  C_4
REMARK    4  A    between atoms: C_4  and  C_5
REMARK    5  A    between atoms: N_7  and  C_8
REMARK    6  A    between atoms: C_8  and  C_9
REMARK    7  A    between atoms: C_12  and  O_13
REMARK    8  A    between atoms: C_14  and  O_15
REMARK    9  A    between atoms: O_15  and  C_16
REMARK                            x       y       z     vdW  Elec       q    Type
REMARK                         _______ _______ _______ _____ _____    ______ ____
ROOT
ATOM      1  C   UNL     1       3.410   2.975  19.965  0.00  0.00    +0.000 C 
ATOM      2  C   UNL     1       4.060   4.390  19.931  0.00  0.00    +0.000 C 
ATOM      3  N   UNL     1       3.294   5.556  19.469  0.00  0.00    +0.000 NA
ATOM      4  C   UNL     1       2.075   5.733  20.270  0.00  0.00    +0.000 C 
ATOM      5  C   UNL     1       1.132   4.532  20.312  0.00  0.00    +0.000 C 
ATOM      6  S   UNL     1       1.887   3.053  21.043  0.00  0.00    +0.000 S 
ATOM      7  O   UNL     1       2.326   3.401  22.509  0.00  0.00    +0.000 OA
ENDROOT
BRANCH   1   9
ATOM      8  C   UNL     1       4.858   0.804  19.833  0.00  0.00    +0.000 C 
ATOM      9  C   UNL     1       4.418   2.003  20.668  0.00  0.00    +0.000 C 
ENDBRANCH   1   9
BRANCH   1  10
ATOM     10  C   UNL     1       3.016   2.445  18.560  0.00  0.00    +0.000 C 
ATOM     11  C   UNL     1       1.542   2.111  18.338  0.00  0.00    +0.000 C 
ENDBRANCH   1  10
BRANCH   3  12
ATOM     12  C   UNL     1       3.068   5.711  18.027  0.00  0.00    +0.000 C 
BRANCH  12  13
ATOM     13  C   UNL     1       4.287   5.576  17.136  0.00  0.00    +0.000 A 
ATOM     14  C   UNL     1       4.416   4.530  16.213  0.00  0.00    +0.000 A 
ATOM     15  C   UNL     1       5.572   4.402  15.439  0.00  0.00    +0.000 A 
ATOM     16  C   UNL     1       6.633   5.298  15.598  0.00  0.00    +0.000 A 
ATOM     17  C   UNL     1       6.541   6.335  16.532  0.00  0.00    +0.000 A 
ATOM     18  C   UNL     1       5.360   6.472  17.281  0.00  0.00    +0.000 A 
BRANCH  16  19
ATOM     19  O   UNL     1       7.741   5.148  14.814  0.00  0.00    +0.000 OA
ATOM     20  H   UNL     1       7.467   4.840  13.934  0.00  0.00    +0.000 HD
ENDBRANCH  16  19
BRANCH  17  21
ATOM     21  O   UNL     1       7.474   7.299  16.805  0.00  0.00    +0.000 OA
ATOM     22  C   UNL     1       7.873   7.434  18.164  0.00  0.00    +0.000 C 
ENDBRANCH  17  21
ENDBRANCH  12  13
ENDBRANCH   3  12
TORSDOF 6
ENDMDL
MODEL 3
REMARK VINA RESULT:      -6.4      3.741      7.531
REMARK  Name = 
REMARK  9 active torsions:
REMARK  status: ('A' for Active; 'I' for Inactive)
REMARK    1  A    between atoms: C_1  and  C_2
REMARK    2  A    between atoms: C_2  and  C_3
REMARK    3  A    between atoms: C_3  and  C_4
REMARK    4  A    between atoms: C_4  and  C_5
REMARK    5  A    between atoms: N_7  and  C_8
REMARK    6  A    between atoms: C_8  and  C_9
REMARK    7  A    between atoms: C_12  and  O_13
REMARK    8  A    between atoms: C_14  and  O_15
REMARK    9  A    between atoms: O_15  and  C_16
REMARK                            x       y       z     vdW  Elec       q    Type
REMARK                         _______ _______ _______ _____ _____    ______ ____
ROOT
ATOM      1  C   UNL     1       4.907   4.845  18.172  0.00  0.00    +0.000 C 
ATOM      2  C   UNL     1       4.512   5.887  19.261  0.00  0.00    +0.000 C 
ATOM      3  N   UNL     1       3.099   6.170  19.550  0.00  0.00    +0.000 NA
ATOM      4  C   UNL     1       2.389   4.945  19.943  0.00  0.00    +0.000 C 
ATOM      5  C   UNL     1       2.446   3.797  18.937  0.00  0.00    +0.000 C 
ATOM      6  S   UNL     1       4.132   3.205  18.620  0.00  0.00    +0.000 S 
ATOM      7  O   UNL     1       4.742   2.715  19.980  0.00  0.00    +0.000 OA
ENDROOT
BRANCH   1   9
ATOM      8  C   UNL     1       7.218   5.722  19.015  0.00  0.00    +0.000 C 
ATOM      9  C   UNL     1       6.459   4.650  18.239  0.00  0.00    +0.000 C 
ENDBRANCH   1   9
BRANCH   1  10
ATOM     10  C   UNL     1       4.458   5.249  16.741  0.00  0.00    +0.000 C 
ATOM     11  C   UNL     1       5.076   6.517  16.157  0.00  0.00    +0.000 C 
ENDBRANCH   1  10
BRANCH   3  12
ATOM     12  C   UNL     1       2.347   6.996  18.597  0.00  0.00    +0.000 C 
BRANCH  12  13
ATOM     13  C   UNL     1       1.746   8.276  19.143  0.00  0.00    +0.000 A 
ATOM     14  C   UNL     1       1.388   9.341  18.305  0.00  0.00    +0.000 A 
ATOM     15  C   UNL     1       0.882  10.528  18.841  0.00  0.00    +0.000 A 
ATOM     16  C   UNL     1       0.756  10.684  20.223  0.00  0.00    +0.000 A 
ATOM     17  C   UNL     1       1.132   9.646  21.084  0.00  0.00    +0.000 A 
ATOM     18  C   UNL     1       1.609   8.445  20.532  0.00  0.00    +0.000 A 
BRANCH  16  19
ATOM     19  O   UNL     1       0.245  11.854  20.708  0.00  0.00    +0.000 OA
ATOM     20  H   UNL     1       0.186  11.797  21.676  0.00  0.00    +0.000 HD
ENDBRANCH  16  19
BRANCH  17  21
ATOM     21  O   UNL     1       1.064   9.628  22.451  0.00  0.00    +0.000 OA
ATOM     22  C   UNL     1      -0.213   9.373  23.024  0.00  0.00    +0.000 C 
ENDBRANCH  17  21
ENDBRANCH  12  13
ENDBRANCH   3  12
TORSDOF 6
ENDMDL
MODEL 4
REMARK VINA RESULT:      -6.4      3.425      7.442
REMARK  Name = 
REMARK  9 active torsions:
REMARK  status: ('A' for Active; 'I' for Inactive)
REMARK    1  A    between atoms: C_1  and  C_2
REMARK    2  A    between atoms: C_2  and  C_3
REMARK    3  A    between atoms: C_3  and  C_4
REMARK    4  A    between atoms: C_4  and  C_5
REMARK    5  A    between atoms: N_7  and  C_8
REMARK    6  A    between atoms: C_8  and  C_9
REMARK    7  A    between atoms: C_12  and  O_13
REMARK    8  A    between atoms: C_14  and  O_15
REMARK    9  A    between atoms: O_15  and  C_16
REMARK                            x       y       z     vdW  Elec       q    Type
REMARK                         _______ _______ _______ _____ _____    ______ ____
ROOT
ATOM      1  C   UNL     1       6.203   6.153  17.033  0.00  0.00    +0.000 C 
ATOM      2  C   UNL     1       5.550   6.677  18.348  0.00  0.00    +0.000 C 
ATOM      3  N   UNL     1       4.421   5.962  18.961  0.00  0.00    +0.000 NA
ATOM      4  C   UNL     1       4.783   4.571  19.263  0.00  0.00    +0.000 C 
ATOM      5  C   UNL     1       5.279   3.746  18.077  0.00  0.00    +0.000 C 
ATOM      6  S   UNL     1       6.793   4.405  17.327  0.00  0.00    +0.000 S 
ATOM      7  O   UNL     1       7.913   4.431  18.427  0.00  0.00    +0.000 OA
ENDROOT
BRANCH   1   9
ATOM      8  C   UNL     1       7.771   8.099  17.791  0.00  0.00    +0.000 C 
ATOM      9  C   UNL     1       7.473   7.024  16.751  0.00  0.00    +0.000 C 
ENDBRANCH   1   9
BRANCH   1  10
ATOM     10  C   UNL     1       5.236   6.168  15.818  0.00  0.00    +0.000 C 
ATOM     11  C   UNL     1       5.552   5.208  14.674  0.00  0.00    +0.000 C 
ENDBRANCH   1  10
BRANCH   3  12
ATOM     12  C   UNL     1       3.097   6.096  18.342  0.00  0.00    +0.000 C 
BRANCH  12  13
ATOM     13  C   UNL     1       2.336   7.371  18.649  0.00  0.00    +0.000 A 
ATOM     14  C   UNL     1       2.087   8.338  17.666  0.00  0.00    +0.000 A 
ATOM     15  C   UNL     1       1.426   9.527  17.989  0.00  0.00    +0.000 A 
ATOM     16  C   UNL     1       1.032   9.782  19.305  0.00  0.00    +0.000 A 
ATOM     17  C   UNL     1       1.292   8.845  20.310  0.00  0.00    +0.000 A 
ATOM     18  C   UNL     1       1.929   7.640  19.967  0.00  0.00    +0.000 A 
BRANCH  16  19
ATOM     19  O   UNL     1       0.377  10.949  19.578  0.00  0.00    +0.000 OA
ATOM     20  H   UNL     1       0.786  11.369  20.352  0.00  0.00    +0.000 HD
ENDBRANCH  16  19
BRANCH  17  21
ATOM     21  O   UNL     1       0.968   8.931  21.637  0.00  0.00    +0.000 OA
ATOM     22  C   UNL     1      -0.378   8.628  21.986  0.00  0.00    +0.000 C 
ENDBRANCH  17  21
ENDBRANCH  12  13
ENDBRANCH   3  12
TORSDOF 6
ENDMDL
MODEL 5
REMARK VINA RESULT:      -6.4      3.862      7.334
REMARK  Name = 
REMARK  9 active torsions:
REMARK  status: ('A' for Active; 'I' for Inactive)
REMARK    1  A    between atoms: C_1  and  C_2
REMARK    2  A    between atoms: C_2  and  C_3
REMARK    3  A    between atoms: C_3  and  C_4
REMARK    4  A    between atoms: C_4  and  C_5
REMARK    5  A    between atoms: N_7  and  C_8
REMARK    6  A    between atoms: C_8  and  C_9
REMARK    7  A    between atoms: C_12  and  O_13
REMARK    8  A    between atoms: C_14  and  O_15
REMARK    9  A    between atoms: O_15  and  C_16
REMARK                            x       y       z     vdW  Elec       q    Type
REMARK                         _______ _______ _______ _____ _____    ______ ____
ROOT
ATOM      1  C   UNL     1       2.687   3.775  19.293  0.00  0.00    +0.000 C 
ATOM      2  C   UNL     1       2.039   4.953  18.505  0.00  0.00    +0.000 C 
ATOM      3  N   UNL     1       2.599   6.309  18.588  0.00  0.00    +0.000 NA
ATOM      4  C   UNL     1       4.007   6.320  18.168  0.00  0.00    +0.000 C 
ATOM      5  C   UNL     1       4.932   5.378  18.935  0.00  0.00    +0.000 C 
ATOM      6  S   UNL     1       4.474   3.630  18.768  0.00  0.00    +0.000 S 
ATOM      7  O   UNL     1       4.521   3.255  17.244  0.00  0.00    +0.000 OA
ENDROOT
BRANCH   1   9
ATOM      8  C   UNL     1       0.452   2.537  18.752  0.00  0.00    +0.000 C 
ATOM      9  C   UNL     1       1.972   2.454  18.851  0.00  0.00    +0.000 C 
ENDBRANCH   1   9
BRANCH   1  10
ATOM     10  C   UNL     1       2.620   3.956  20.834  0.00  0.00    +0.000 C 
ATOM     11  C   UNL     1       2.485   2.686  21.671  0.00  0.00    +0.000 C 
ENDBRANCH   1  10
BRANCH   3  12
ATOM     12  C   UNL     1       2.350   7.089  19.805  0.00  0.00    +0.000 C 
BRANCH  12  13
ATOM     13  C   UNL     1       1.565   8.375  19.632  0.00  0.00    +0.000 A 
ATOM     14  C   UNL     1       1.496   9.040  18.401  0.00  0.00    +0.000 A 
ATOM     15  C   UNL     1       0.806  10.249  18.283  0.00  0.00    +0.000 A 
ATOM     16  C   UNL     1       0.201  10.831  19.401  0.00  0.00    +0.000 A 
ATOM     17  C   UNL     1       0.278  10.201  20.647  0.00  0.00    +0.000 A 
ATOM     18  C   UNL     1       0.948   8.970  20.746  0.00  0.00    +0.000 A 
BRANCH  16  19
ATOM     19  O   UNL     1      -0.475  12.007  19.242  0.00  0.00    +0.000 OA
ATOM     20  H   UNL     1      -0.846  12.040  18.345  0.00  0.00    +0.000 HD
ENDBRANCH  16  19
BRANCH  17  21
ATOM     21  O   UNL     1      -0.261  10.624  21.832  0.00  0.00    +0.000 OA
ATOM     22  C   UNL     1      -0.347   9.660  22.875  0.00  0.00    +0.000 C 
ENDBRANCH  17  21
ENDBRANCH  12  13
ENDBRANCH   3  12
TORSDOF 6
ENDMDL
MODEL 6
REMARK VINA RESULT:      -6.4      3.946      7.502
REMARK  Name = 
REMARK  9 active torsions:
REMARK  status: ('A' for Active; 'I' for Inactive)
REMARK    1  A    between atoms: C_1  and  C_2
REMARK    2  A    between atoms: C_2  and  C_3
REMARK    3  A    between atoms: C_3  and  C_4
REMARK    4  A    between atoms: C_4  and  C_5
REMARK    5  A    between atoms: N_7  and  C_8
REMARK    6  A    between atoms: C_8  and  C_9
REMARK    7  A    between atoms: C_12  and  O_13
REMARK    8  A    between atoms: C_14  and  O_15
REMARK    9  A    between atoms: O_15  and  C_16
REMARK                            x       y       z     vdW  Elec       q    Type
REMARK                         _______ _______ _______ _____ _____    ______ ____
ROOT
ATOM      1  C   UNL     1       3.032   3.919  18.656  0.00  0.00    +0.000 C 
ATOM      2  C   UNL     1       2.146   5.089  18.132  0.00  0.00    +0.000 C 
ATOM      3  N   UNL     1       2.532   6.487  18.371  0.00  0.00    +0.000 NA
ATOM      4  C   UNL     1       3.865   6.764  17.819  0.00  0.00    +0.000 C 
ATOM      5  C   UNL     1       4.990   5.868  18.332  0.00  0.00    +0.000 C 
ATOM      6  S   UNL     1       4.746   4.114  17.938  0.00  0.00    +0.000 S 
ATOM      7  O   UNL     1       4.657   3.970  16.378  0.00  0.00    +0.000 OA
ENDROOT
BRANCH   1   9
ATOM      8  C   UNL     1       3.322   1.350  18.284  0.00  0.00    +0.000 C 
ATOM      9  C   UNL     1       2.446   2.583  18.085  0.00  0.00    +0.000 C 
ENDBRANCH   1   9
BRANCH   1  10
ATOM     10  C   UNL     1       3.130   3.867  20.205  0.00  0.00    +0.000 C 
ATOM     11  C   UNL     1       1.840   3.575  20.967  0.00  0.00    +0.000 C 
ENDBRANCH   1  10
BRANCH   3  12
ATOM     12  C   UNL     1       2.332   7.042  19.714  0.00  0.00    +0.000 C 
BRANCH  12  13
ATOM     13  C   UNL     1       1.661   8.399  19.791  0.00  0.00    +0.000 A 
ATOM     14  C   UNL     1       1.440   9.179  18.648  0.00  0.00    +0.000 A 
ATOM     15  C   UNL     1       0.864  10.448  18.754  0.00  0.00    +0.000 A 
ATOM     16  C   UNL     1       0.531  10.972  20.006  0.00  0.00    +0.000 A 
ATOM     17  C   UNL     1       0.768  10.225  21.165  0.00  0.00    +0.000 A 
ATOM     18  C   UNL     1       1.318   8.937  21.042  0.00  0.00    +0.000 A 
BRANCH  16  19
ATOM     19  O   UNL     1      -0.041  12.210  20.067  0.00  0.00    +0.000 OA
ATOM     20  H   UNL     1      -0.111  12.572  19.169  0.00  0.00    +0.000 HD
ENDBRANCH  16  19
BRANCH  17  21
ATOM     21  O   UNL     1       0.494  10.580  22.458  0.00  0.00    +0.000 OA
ATOM     22  C   UNL     1      -0.779  10.202  22.969  0.00  0.00    +0.000 C 
ENDBRANCH  17  21
ENDBRANCH  12  13
ENDBRANCH   3  12
TORSDOF 6
ENDMDL
MODEL 7
REMARK VINA RESULT:      -6.4      3.146      7.075
REMARK  Name = 
REMARK  9 active torsions:
REMARK  status: ('A' for Active; 'I' for Inactive)
REMARK    1  A    between atoms: C_1  and  C_2
REMARK    2  A    between atoms: C_2  and  C_3
REMARK    3  A    between atoms: C_3  and  C_4
REMARK    4  A    between atoms: C_4  and  C_5
REMARK    5  A    between atoms: N_7  and  C_8
REMARK    6  A    between atoms: C_8  and  C_9
REMARK    7  A    between atoms: C_12  and  O_13
REMARK    8  A    between atoms: C_14  and  O_15
REMARK    9  A    between atoms: O_15  and  C_16
REMARK                            x       y       z     vdW  Elec       q    Type
REMARK                         _______ _______ _______ _____ _____    ______ ____
ROOT
ATOM      1  C   UNL     1       6.356   6.183  17.532  0.00  0.00    +0.000 C 
ATOM      2  C   UNL     1       5.589   5.455  18.677  0.00  0.00    +0.000 C 
ATOM      3  N   UNL     1       4.482   4.537  18.372  0.00  0.00    +0.000 NA
ATOM      4  C   UNL     1       4.929   3.454  17.486  0.00  0.00    +0.000 C 
ATOM      5  C   UNL     1       5.554   3.897  16.165  0.00  0.00    +0.000 C 
ATOM      6  S   UNL     1       7.057   4.890  16.381  0.00  0.00    +0.000 S 
ATOM      7  O   UNL     1       8.104   4.028  17.171  0.00  0.00    +0.000 OA
ENDROOT
BRANCH   1   9
ATOM      8  C   UNL     1       7.824   8.340  17.642  0.00  0.00    +0.000 C 
ATOM      9  C   UNL     1       7.572   6.932  18.173  0.00  0.00    +0.000 C 
ENDBRANCH   1   9
BRANCH   1  10
ATOM     10  C   UNL     1       5.465   7.162  16.719  0.00  0.00    +0.000 C 
ATOM     11  C   UNL     1       5.144   6.767  15.279  0.00  0.00    +0.000 C 
ENDBRANCH   1  10
BRANCH   3  12
ATOM     12  C   UNL     1       3.191   5.113  17.979  0.00  0.00    +0.000 C 
BRANCH  12  13
ATOM     13  C   UNL     1       2.601   6.148  18.917  0.00  0.00    +0.000 A 
ATOM     14  C   UNL     1       2.181   5.818  20.213  0.00  0.00    +0.000 A 
ATOM     15  C   UNL     1       1.594   6.781  21.038  0.00  0.00    +0.000 A 
ATOM     16  C   UNL     1       1.388   8.081  20.571  0.00  0.00    +0.000 A 
ATOM     17  C   UNL     1       1.773   8.430  19.272  0.00  0.00    +0.000 A 
ATOM     18  C   UNL     1       2.391   7.461  18.463  0.00  0.00    +0.000 A 
BRANCH  16  19
ATOM     19  O   UNL     1       0.823   8.998  21.411  0.00  0.00    +0.000 OA
ATOM     20  H   UNL     1      -0.119   8.789  21.521  0.00  0.00    +0.000 HD
ENDBRANCH  16  19
BRANCH  17  21
ATOM     21  O   UNL     1       1.655   9.652  18.664  0.00  0.00    +0.000 OA
ATOM     22  C   UNL     1       0.373   9.985  18.146  0.00  0.00    +0.000 C 
ENDBRANCH  17  21
ENDBRANCH  12  13
ENDBRANCH   3  12
TORSDOF 6
ENDMDL
MODEL 8
REMARK VINA RESULT:      -6.3      3.912      7.541
REMARK  Name = 
REMARK  9 active torsions:
REMARK  status: ('A' for Active; 'I' for Inactive)
REMARK    1  A    between atoms: C_1  and  C_2
REMARK    2  A    between atoms: C_2  and  C_3
REMARK    3  A    between atoms: C_3  and  C_4
REMARK    4  A    between atoms: C_4  and  C_5
REMARK    5  A    between atoms: N_7  and  C_8
REMARK    6  A    between atoms: C_8  and  C_9
REMARK    7  A    between atoms: C_12  and  O_13
REMARK    8  A    between atoms: C_14  and  O_15
REMARK    9  A    between atoms: O_15  and  C_16
REMARK                            x       y       z     vdW  Elec       q    Type
REMARK                         _______ _______ _______ _____ _____    ______ ____
ROOT
ATOM      1  C   UNL     1       4.875   5.025  17.839  0.00  0.00    +0.000 C 
ATOM      2  C   UNL     1       4.338   5.653  19.160  0.00  0.00    +0.000 C 
ATOM      3  N   UNL     1       2.928   6.046  19.284  0.00  0.00    +0.000 NA
ATOM      4  C   UNL     1       2.041   4.901  19.037  0.00  0.00    +0.000 C 
ATOM      5  C   UNL     1       2.222   4.205  17.690  0.00  0.00    +0.000 C 
ATOM      6  S   UNL     1       3.875   3.492  17.468  0.00  0.00    +0.000 S 
ATOM      7  O   UNL     1       4.115   2.446  18.614  0.00  0.00    +0.000 OA
ENDROOT
BRANCH   1   9
ATOM      8  C   UNL     1       7.280   5.626  18.664  0.00  0.00    +0.000 C 
ATOM      9  C   UNL     1       6.348   4.560  18.095  0.00  0.00    +0.000 C 
ENDBRANCH   1   9
BRANCH   1  10
ATOM     10  C   UNL     1       4.801   5.990  16.624  0.00  0.00    +0.000 C 
ATOM     11  C   UNL     1       5.513   5.549  15.348  0.00  0.00    +0.000 C 
ENDBRANCH   1  10
BRANCH   3  12
ATOM     12  C   UNL     1       2.489   7.276  18.613  0.00  0.00    +0.000 C 
BRANCH  12  13
ATOM     13  C   UNL     1       1.758   8.289  19.473  0.00  0.00    +0.000 A 
ATOM     14  C   UNL     1       1.494   8.054  20.829  0.00  0.00    +0.000 A 
ATOM     15  C   UNL     1       0.774   8.983  21.584  0.00  0.00    +0.000 A 
ATOM     16  C   UNL     1       0.279  10.147  20.990  0.00  0.00    +0.000 A 
ATOM     17  C   UNL     1       0.506  10.393  19.632  0.00  0.00    +0.000 A 
ATOM     18  C   UNL     1       1.258   9.466  18.890  0.00  0.00    +0.000 A 
BRANCH  16  19
ATOM     19  O   UNL     1      -0.407  11.038  21.765  0.00  0.00    +0.000 OA
ATOM     20  H   UNL     1       0.152  11.305  22.513  0.00  0.00    +0.000 HD
ENDBRANCH  16  19
BRANCH  17  21
ATOM     21  O   UNL     1       0.105  11.478  18.900  0.00  0.00    +0.000 OA
ATOM     22  C   UNL     1       1.033  12.551  18.789  0.00  0.00    +0.000 C 
ENDBRANCH  17  21
ENDBRANCH  12  13
ENDBRANCH   3  12
TORSDOF 6
ENDMDL
MODEL 9
REMARK VINA RESULT:      -6.3      2.486      6.911
REMARK  Name = 
REMARK  9 active torsions:
REMARK  status: ('A' for Active; 'I' for Inactive)
REMARK    1  A    between atoms: C_1  and  C_2
REMARK    2  A    between atoms: C_2  and  C_3
REMARK    3  A    between atoms: C_3  and  C_4
REMARK    4  A    between atoms: C_4  and  C_5
REMARK    5  A    between atoms: N_7  and  C_8
REMARK    6  A    between atoms: C_8  and  C_9
REMARK    7  A    between atoms: C_12  and  O_13
REMARK    8  A    between atoms: C_14  and  O_15
REMARK    9  A    between atoms: O_15  and  C_16
REMARK                            x       y       z     vdW  Elec       q    Type
REMARK                         _______ _______ _______ _____ _____    ______ ____
ROOT
ATOM      1  C   UNL     1       6.015   5.896  17.052  0.00  0.00    +0.000 C 
ATOM      2  C   UNL     1       5.716   4.503  17.683  0.00  0.00    +0.000 C 
ATOM      3  N   UNL     1       4.777   3.574  17.039  0.00  0.00    +0.000 NA
ATOM      4  C   UNL     1       5.201   3.269  15.666  0.00  0.00    +0.000 C 
ATOM      5  C   UNL     1       5.379   4.475  14.747  0.00  0.00    +0.000 C 
ATOM      6  S   UNL     1       6.657   5.629  15.318  0.00  0.00    +0.000 S 
ATOM      7  O   UNL     1       8.018   4.851  15.400  0.00  0.00    +0.000 OA
ENDROOT
BRANCH   1   9
ATOM      8  C   UNL     1       7.562   7.964  17.440  0.00  0.00    +0.000 C 
ATOM      9  C   UNL     1       7.175   6.553  17.873  0.00  0.00    +0.000 C 
ENDBRANCH   1   9
BRANCH   1  10
ATOM     10  C   UNL     1       4.773   6.827  17.000  0.00  0.00    +0.000 C 
ATOM     11  C   UNL     1       3.939   6.936  18.274  0.00  0.00    +0.000 C 
ENDBRANCH   1  10
BRANCH   3  12
ATOM     12  C   UNL     1       3.340   3.847  17.155  0.00  0.00    +0.000 C 
BRANCH  12  13
ATOM     13  C   UNL     1       2.692   3.497  18.481  0.00  0.00    +0.000 A 
ATOM     14  C   UNL     1       1.368   3.850  18.772  0.00  0.00    +0.000 A 
ATOM     15  C   UNL     1       0.812   3.558  20.021  0.00  0.00    +0.000 A 
ATOM     16  C   UNL     1       1.580   2.937  21.009  0.00  0.00    +0.000 A 
ATOM     17  C   UNL     1       2.913   2.598  20.753  0.00  0.00    +0.000 A 
ATOM     18  C   UNL     1       3.451   2.869  19.483  0.00  0.00    +0.000 A 
BRANCH  16  19
ATOM     19  O   UNL     1       0.998   2.656  22.212  0.00  0.00    +0.000 OA
ATOM     20  H   UNL     1       1.073   3.433  22.790  0.00  0.00    +0.000 HD
ENDBRANCH  16  19
BRANCH  17  21
ATOM     21  O   UNL     1       3.796   1.982  21.598  0.00  0.00    +0.000 OA
ATOM     22  C   UNL     1       4.982   1.459  21.012  0.00  0.00    +0.000 C 
ENDBRANCH  17  21
ENDBRANCH  12  13
ENDBRANCH   3  12
TORSDOF 6
ENDMDL
