MODEL 1
REMARK VINA RESULT:      -6.8      0.000      0.000
REMARK  Name = 
REMARK  8 active torsions:
REMARK  status: ('A' for Active; 'I' for Inactive)
REMARK    1  A    between atoms: C_2  and  C_3
REMARK    2  A    between atoms: C_3  and  O_4
REMARK    3  A    between atoms: O_4  and  O_5
REMARK    4  A    between atoms: O_5  and  C_6
REMARK    5  A    between atoms: C_6  and  O_7
REMARK    6  A    between atoms: O_7  and  O_8
REMARK    7  A    between atoms: O_8  and  C_9
REMARK    8  A    between atoms: C_9  and  C_10
REMARK                            x       y       z     vdW  Elec       q    Type
REMARK                         _______ _______ _______ _____ _____    ______ ____
ROOT
ATOM      1  C   UNL     1       4.589   3.862  17.500  0.00  0.00    +0.000 C 
ATOM      2  C   UNL     1       3.806   2.503  17.494  0.00  0.00    +0.000 C 
ATOM      3  C   UNL     1       2.467   2.475  18.267  0.00  0.00    +0.000 C 
ATOM      4  C   UNL     1       2.607   2.297  19.785  0.00  0.00    +0.000 C 
ATOM      5  C   UNL     1       1.434   2.853  20.615  0.00  0.00    +0.000 C 
ATOM      6  C   UNL     1       1.052   4.332  20.392  0.00  0.00    +0.000 C 
ATOM      7  C   UNL     1       2.181   5.308  20.722  0.00  0.00    +0.000 C 
ATOM      8  C   UNL     1       2.009   6.730  20.158  0.00  0.00    +0.000 C 
ATOM      9  C   UNL     1       2.188   6.854  18.634  0.00  0.00    +0.000 C 
ATOM     10  C   UNL     1       3.652   7.063  18.207  0.00  0.00    +0.000 C 
ATOM     11  C   UNL     1       4.126   6.407  16.900  0.00  0.00    +0.000 C 
ATOM     12  C   UNL     1       3.795   4.925  16.687  0.00  0.00    +0.000 C 
ENDROOT
BRANCH   1  13
ATOM     13  O   UNL     1       4.722   4.243  18.883  0.00  0.00    +0.000 OA
BRANCH  13  14
ATOM     14  O   UNL     1       6.135   4.184  19.279  0.00  0.00    +0.000 OA
BRANCH  14  15
ATOM     15  C   UNL     1       6.529   5.541  19.537  0.00  0.00    +0.000 C 
BRANCH  15  17
ATOM     16  C   UNL     1       7.649   7.018  17.834  0.00  0.00    +0.000 C 
ATOM     17  C   UNL     1       7.656   5.929  18.625  0.00  0.00    +0.000 C 
ENDBRANCH  15  17
ENDBRANCH  14  15
ENDBRANCH  13  14
ENDBRANCH   1  13
BRANCH   1  18
ATOM     18  O   UNL     1       5.898   3.657  16.919  0.00  0.00    +0.000 OA
BRANCH  18  19
ATOM     19  O   UNL     1       5.771   3.656  15.461  0.00  0.00    +0.000 OA
BRANCH  19  20
ATOM     20  C   UNL     1       6.857   4.453  14.995  0.00  0.00    +0.000 C 
BRANCH  20  21
ATOM     21  C   UNL     1       6.853   4.439  13.497  0.00  0.00    +0.000 C 
ATOM     22  C   UNL     1       6.150   3.582  12.742  0.00  0.00    +0.000 C 
ENDBRANCH  20  21
ENDBRANCH  19  20
ENDBRANCH  18  19
ENDBRANCH   1  18
TORSDOF 8
ENDMDL
MODEL 2
REMARK VINA RESULT:      -6.1      1.112      1.833
REMARK  Name = 
REMARK  8 active torsions:
REMARK  status: ('A' for Active; 'I' for Inactive)
REMARK    1  A    between atoms: C_2  and  C_3
REMARK    2  A    between atoms: C_3  and  O_4
REMARK    3  A    between atoms: O_4  and  O_5
REMARK    4  A    between atoms: O_5  and  C_6
REMARK    5  A    between atoms: C_6  and  O_7
REMARK    6  A    between atoms: O_7  and  O_8
REMARK    7  A    between atoms: O_8  and  C_9
REMARK    8  A    between atoms: C_9  and  C_10
REMARK                            x       y       z     vdW  Elec       q    Type
REMARK                         _______ _______ _______ _____ _____    ______ ____
ROOT
ATOM      1  C   UNL     1       4.078   5.294  17.442  0.00  0.00    +0.000 C 
ATOM      2  C   UNL     1       3.781   4.078  16.496  0.00  0.00    +0.000 C 
ATOM      3  C   UNL     1       2.877   2.962  17.071  0.00  0.00    +0.000 C 
ATOM      4  C   UNL     1       3.594   1.968  17.993  0.00  0.00    +0.000 C 
ATOM      5  C   UNL     1       2.687   1.262  19.018  0.00  0.00    +0.000 C 
ATOM      6  C   UNL     1       1.834   2.160  19.940  0.00  0.00    +0.000 C 
ATOM      7  C   UNL     1       2.667   3.090  20.821  0.00  0.00    +0.000 C 
ATOM      8  C   UNL     1       1.896   4.261  21.456  0.00  0.00    +0.000 C 
ATOM      9  C   UNL     1       1.475   5.372  20.478  0.00  0.00    +0.000 C 
ATOM     10  C   UNL     1       2.560   6.444  20.269  0.00  0.00    +0.000 C 
ATOM     11  C   UNL     1       2.707   7.062  18.870  0.00  0.00    +0.000 C 
ATOM     12  C   UNL     1       2.773   6.107  17.673  0.00  0.00    +0.000 C 
ENDROOT
BRANCH   1  13
ATOM     13  O   UNL     1       4.578   4.732  18.671  0.00  0.00    +0.000 OA
BRANCH  13  14
ATOM     14  O   UNL     1       6.021   4.485  18.553  0.00  0.00    +0.000 OA
BRANCH  14  15
ATOM     15  C   UNL     1       6.653   5.398  19.464  0.00  0.00    +0.000 C 
BRANCH  15  17
ATOM     16  C   UNL     1       8.027   7.206  18.379  0.00  0.00    +0.000 C 
ATOM     17  C   UNL     1       7.905   5.951  18.848  0.00  0.00    +0.000 C 
ENDBRANCH  15  17
ENDBRANCH  14  15
ENDBRANCH  13  14
ENDBRANCH   1  13
BRANCH   1  18
ATOM     18  O   UNL     1       5.092   6.128  16.836  0.00  0.00    +0.000 OA
BRANCH  18  19
ATOM     19  O   UNL     1       5.300   5.688  15.455  0.00  0.00    +0.000 OA
BRANCH  19  20
ATOM     20  C   UNL     1       6.698   5.429  15.356  0.00  0.00    +0.000 C 
BRANCH  20  21
ATOM     21  C   UNL     1       6.920   4.411  14.279  0.00  0.00    +0.000 C 
ATOM     22  C   UNL     1       5.951   3.871  13.526  0.00  0.00    +0.000 C 
ENDBRANCH  20  21
ENDBRANCH  19  20
ENDBRANCH  18  19
ENDBRANCH   1  18
TORSDOF 8
ENDMDL
MODEL 3
REMARK VINA RESULT:      -6.0      0.939      1.051
REMARK  Name = 
REMARK  8 active torsions:
REMARK  status: ('A' for Active; 'I' for Inactive)
REMARK    1  A    between atoms: C_2  and  C_3
REMARK    2  A    between atoms: C_3  and  O_4
REMARK    3  A    between atoms: O_4  and  O_5
REMARK    4  A    between atoms: O_5  and  C_6
REMARK    5  A    between atoms: C_6  and  O_7
REMARK    6  A    between atoms: O_7  and  O_8
REMARK    7  A    between atoms: O_8  and  C_9
REMARK    8  A    between atoms: C_9  and  C_10
REMARK                            x       y       z     vdW  Elec       q    Type
REMARK                         _______ _______ _______ _____ _____    ______ ____
ROOT
ATOM      1  C   UNL     1       5.347   4.300  16.845  0.00  0.00    +0.000 C 
ATOM      2  C   UNL     1       4.725   2.867  16.706  0.00  0.00    +0.000 C 
ATOM      3  C   UNL     1       3.399   2.614  17.463  0.00  0.00    +0.000 C 
ATOM      4  C   UNL     1       3.563   2.312  18.958  0.00  0.00    +0.000 C 
ATOM      5  C   UNL     1       2.337   2.651  19.827  0.00  0.00    +0.000 C 
ATOM      6  C   UNL     1       1.788   4.091  19.740  0.00  0.00    +0.000 C 
ATOM      7  C   UNL     1       2.799   5.154  20.168  0.00  0.00    +0.000 C 
ATOM      8  C   UNL     1       2.464   6.594  19.738  0.00  0.00    +0.000 C 
ATOM      9  C   UNL     1       2.623   6.879  18.234  0.00  0.00    +0.000 C 
ATOM     10  C   UNL     1       4.053   7.292  17.840  0.00  0.00    +0.000 C 
ATOM     11  C   UNL     1       4.595   6.820  16.481  0.00  0.00    +0.000 C 
ATOM     12  C   UNL     1       4.435   5.337  16.128  0.00  0.00    +0.000 C 
ENDROOT
BRANCH   1  13
ATOM     13  O   UNL     1       5.440   4.562  18.258  0.00  0.00    +0.000 OA
BRANCH  13  14
ATOM     14  O   UNL     1       6.841   4.467  18.689  0.00  0.00    +0.000 OA
BRANCH  14  15
ATOM     15  C   UNL     1       7.164   5.744  19.263  0.00  0.00    +0.000 C 
BRANCH  15  17
ATOM     16  C   UNL     1       8.263   7.862  18.466  0.00  0.00    +0.000 C 
ATOM     17  C   UNL     1       7.771   6.635  18.219  0.00  0.00    +0.000 C 
ENDBRANCH  15  17
ENDBRANCH  14  15
ENDBRANCH  13  14
ENDBRANCH   1  13
BRANCH   1  18
ATOM     18  O   UNL     1       6.669   4.300  16.258  0.00  0.00    +0.000 OA
BRANCH  18  19
ATOM     19  O   UNL     1       6.637   5.088  15.025  0.00  0.00    +0.000 OA
BRANCH  19  20
ATOM     20  C   UNL     1       6.974   4.167  13.989  0.00  0.00    +0.000 C 
BRANCH  20  21
ATOM     21  C   UNL     1       5.758   3.926  13.149  0.00  0.00    +0.000 C 
ATOM     22  C   UNL     1       5.681   3.029  12.155  0.00  0.00    +0.000 C 
ENDBRANCH  20  21
ENDBRANCH  19  20
ENDBRANCH  18  19
ENDBRANCH   1  18
TORSDOF 8
ENDMDL
MODEL 4
REMARK VINA RESULT:      -5.5      7.170     10.469
REMARK  Name = 
REMARK  8 active torsions:
REMARK  status: ('A' for Active; 'I' for Inactive)
REMARK    1  A    between atoms: C_2  and  C_3
REMARK    2  A    between atoms: C_3  and  O_4
REMARK    3  A    between atoms: O_4  and  O_5
REMARK    4  A    between atoms: O_5  and  C_6
REMARK    5  A    between atoms: C_6  and  O_7
REMARK    6  A    between atoms: O_7  and  O_8
REMARK    7  A    between atoms: O_8  and  C_9
REMARK    8  A    between atoms: C_9  and  C_10
REMARK                            x       y       z     vdW  Elec       q    Type
REMARK                         _______ _______ _______ _____ _____    ______ ____
ROOT
ATOM      1  C   UNL     1       9.356  11.536  18.644  0.00  0.00    +0.000 C 
ATOM      2  C   UNL     1      10.598  11.281  17.720  0.00  0.00    +0.000 C 
ATOM      3  C   UNL     1      11.756  12.301  17.823  0.00  0.00    +0.000 C 
ATOM      4  C   UNL     1      11.538  13.600  17.037  0.00  0.00    +0.000 C 
ATOM      5  C   UNL     1      12.313  14.820  17.569  0.00  0.00    +0.000 C 
ATOM      6  C   UNL     1      12.118  15.183  19.057  0.00  0.00    +0.000 C 
ATOM      7  C   UNL     1      10.673  15.530  19.413  0.00  0.00    +0.000 C 
ATOM      8  C   UNL     1      10.343  15.512  20.917  0.00  0.00    +0.000 C 
ATOM      9  C   UNL     1      10.290  14.114  21.558  0.00  0.00    +0.000 C 
ATOM     10  C   UNL     1       8.911  13.440  21.437  0.00  0.00    +0.000 C 
ATOM     11  C   UNL     1       8.865  11.918  21.225  0.00  0.00    +0.000 C 
ATOM     12  C   UNL     1       9.760  11.325  20.131  0.00  0.00    +0.000 C 
ENDROOT
BRANCH   1  13
ATOM     13  O   UNL     1       8.943  12.894  18.395  0.00  0.00    +0.000 OA
BRANCH  13  14
ATOM     14  O   UNL     1       8.111  12.945  17.185  0.00  0.00    +0.000 OA
BRANCH  14  15
ATOM     15  C   UNL     1       6.944  13.703  17.542  0.00  0.00    +0.000 C 
BRANCH  15  17
ATOM     16  C   UNL     1       7.302  16.045  18.389  0.00  0.00    +0.000 C 
ATOM     17  C   UNL     1       7.293  14.716  18.593  0.00  0.00    +0.000 C 
ENDBRANCH  15  17
ENDBRANCH  14  15
ENDBRANCH  13  14
ENDBRANCH   1  13
BRANCH   1  18
ATOM     18  O   UNL     1       8.296  10.626  18.274  0.00  0.00    +0.000 OA
BRANCH  18  19
ATOM     19  O   UNL     1       8.716   9.260  18.591  0.00  0.00    +0.000 OA
BRANCH  19  20
ATOM     20  C   UNL     1       7.938   8.426  17.736  0.00  0.00    +0.000 C 
BRANCH  20  21
ATOM     21  C   UNL     1       7.935   7.037  18.295  0.00  0.00    +0.000 C 
ATOM     22  C   UNL     1       7.088   6.065  17.925  0.00  0.00    +0.000 C 
ENDBRANCH  20  21
ENDBRANCH  19  20
ENDBRANCH  18  19
ENDBRANCH   1  18
TORSDOF 8
ENDMDL
MODEL 5
REMARK VINA RESULT:      -5.4      7.069     10.181
REMARK  Name = 
REMARK  8 active torsions:
REMARK  status: ('A' for Active; 'I' for Inactive)
REMARK    1  A    between atoms: C_2  and  C_3
REMARK    2  A    between atoms: C_3  and  O_4
REMARK    3  A    between atoms: O_4  and  O_5
REMARK    4  A    between atoms: O_5  and  C_6
REMARK    5  A    between atoms: C_6  and  O_7
REMARK    6  A    between atoms: O_7  and  O_8
REMARK    7  A    between atoms: O_8  and  C_9
REMARK    8  A    between atoms: C_9  and  C_10
REMARK                            x       y       z     vdW  Elec       q    Type
REMARK                         _______ _______ _______ _____ _____    ______ ____
ROOT
ATOM      1  C   UNL     1       9.359  11.438  18.676  0.00  0.00    +0.000 C 
ATOM      2  C   UNL     1       8.258  11.862  17.643  0.00  0.00    +0.000 C 
ATOM      3  C   UNL     1       8.226  13.355  17.242  0.00  0.00    +0.000 C 
ATOM      4  C   UNL     1       7.521  14.274  18.249  0.00  0.00    +0.000 C 
ATOM      5  C   UNL     1       7.976  15.745  18.214  0.00  0.00    +0.000 C 
ATOM      6  C   UNL     1       9.487  16.019  18.371  0.00  0.00    +0.000 C 
ATOM      7  C   UNL     1      10.059  15.529  19.700  0.00  0.00    +0.000 C 
ATOM      8  C   UNL     1      11.593  15.412  19.754  0.00  0.00    +0.000 C 
ATOM      9  C   UNL     1      12.189  14.254  18.935  0.00  0.00    +0.000 C 
ATOM     10  C   UNL     1      12.247  12.925  19.711  0.00  0.00    +0.000 C 
ATOM     11  C   UNL     1      11.995  11.623  18.935  0.00  0.00    +0.000 C 
ATOM     12  C   UNL     1      10.765  11.565  18.022  0.00  0.00    +0.000 C 
ENDROOT
BRANCH   1  13
ATOM     13  O   UNL     1       9.216  12.327  19.801  0.00  0.00    +0.000 OA
BRANCH  13  14
ATOM     14  O   UNL     1       9.029  11.544  21.030  0.00  0.00    +0.000 OA
BRANCH  14  15
ATOM     15  C   UNL     1       9.380  12.421  22.113  0.00  0.00    +0.000 C 
BRANCH  15  17
ATOM     16  C   UNL     1       8.552  14.624  23.003  0.00  0.00    +0.000 C 
ATOM     17  C   UNL     1       8.442  13.592  22.148  0.00  0.00    +0.000 C 
ENDBRANCH  15  17
ENDBRANCH  14  15
ENDBRANCH  13  14
ENDBRANCH   1  13
BRANCH   1  18
ATOM     18  O   UNL     1       9.117  10.075  19.094  0.00  0.00    +0.000 OA
BRANCH  18  19
ATOM     19  O   UNL     1       8.239   9.432  18.115  0.00  0.00    +0.000 OA
BRANCH  19  20
ATOM     20  C   UNL     1       8.315   8.039  18.409  0.00  0.00    +0.000 C 
BRANCH  20  21
ATOM     21  C   UNL     1       7.515   7.290  17.389  0.00  0.00    +0.000 C 
ATOM     22  C   UNL     1       7.027   6.052  17.558  0.00  0.00    +0.000 C 
ENDBRANCH  20  21
ENDBRANCH  19  20
ENDBRANCH  18  19
ENDBRANCH   1  18
TORSDOF 8
ENDMDL
MODEL 6
REMARK VINA RESULT:      -5.3      1.804      5.691
REMARK  Name = 
REMARK  8 active torsions:
REMARK  status: ('A' for Active; 'I' for Inactive)
REMARK    1  A    between atoms: C_2  and  C_3
REMARK    2  A    between atoms: C_3  and  O_4
REMARK    3  A    between atoms: O_4  and  O_5
REMARK    4  A    between atoms: O_5  and  C_6
REMARK    5  A    between atoms: C_6  and  O_7
REMARK    6  A    between atoms: O_7  and  O_8
REMARK    7  A    between atoms: O_8  and  C_9
REMARK    8  A    between atoms: C_9  and  C_10
REMARK                            x       y       z     vdW  Elec       q    Type
REMARK                         _______ _______ _______ _____ _____    ______ ____
ROOT
ATOM      1  C   UNL     1       3.575   3.925  17.472  0.00  0.00    +0.000 C 
ATOM      2  C   UNL     1       3.821   3.069  16.180  0.00  0.00    +0.000 C 
ATOM      3  C   UNL     1       5.204   3.224  15.503  0.00  0.00    +0.000 C 
ATOM      4  C   UNL     1       5.345   4.466  14.612  0.00  0.00    +0.000 C 
ATOM      5  C   UNL     1       6.788   4.973  14.429  0.00  0.00    +0.000 C 
ATOM      6  C   UNL     1       7.597   5.272  15.709  0.00  0.00    +0.000 C 
ATOM      7  C   UNL     1       6.973   6.360  16.582  0.00  0.00    +0.000 C 
ATOM      8  C   UNL     1       7.497   6.426  18.028  0.00  0.00    +0.000 C 
ATOM      9  C   UNL     1       7.044   5.271  18.939  0.00  0.00    +0.000 C 
ATOM     10  C   UNL     1       5.686   5.526  19.617  0.00  0.00    +0.000 C 
ATOM     11  C   UNL     1       4.743   4.329  19.821  0.00  0.00    +0.000 C 
ATOM     12  C   UNL     1       4.489   3.410  18.621  0.00  0.00    +0.000 C 
ENDROOT
BRANCH   1  13
ATOM     13  O   UNL     1       3.885   5.286  17.116  0.00  0.00    +0.000 OA
BRANCH  13  14
ATOM     14  O   UNL     1       2.844   6.183  17.634  0.00  0.00    +0.000 OA
BRANCH  14  15
ATOM     15  C   UNL     1       3.404   7.505  17.587  0.00  0.00    +0.000 C 
BRANCH  15  17
ATOM     16  C   UNL     1       1.436   9.068  17.715  0.00  0.00    +0.000 C 
ATOM     17  C   UNL     1       2.496   8.471  18.290  0.00  0.00    +0.000 C 
ENDBRANCH  15  17
ENDBRANCH  14  15
ENDBRANCH  13  14
ENDBRANCH   1  13
BRANCH   1  18
ATOM     18  O   UNL     1       2.183   3.821  17.849  0.00  0.00    +0.000 OA
BRANCH  18  19
ATOM     19  O   UNL     1       1.881   2.422  18.157  0.00  0.00    +0.000 OA
BRANCH  19  20
ATOM     20  C   UNL     1       0.723   2.468  18.987  0.00  0.00    +0.000 C 
BRANCH  20  21
ATOM     21  C   UNL     1       1.012   3.347  20.165  0.00  0.00    +0.000 C 
ATOM     22  C   UNL     1       1.530   2.921  21.327  0.00  0.00    +0.000 C 
ENDBRANCH  20  21
ENDBRANCH  19  20
ENDBRANCH  18  19
ENDBRANCH   1  18
TORSDOF 8
ENDMDL
MODEL 7
REMARK VINA RESULT:      -5.2      1.877      3.363
REMARK  Name = 
REMARK  8 active torsions:
REMARK  status: ('A' for Active; 'I' for Inactive)
REMARK    1  A    between atoms: C_2  and  C_3
REMARK    2  A    between atoms: C_3  and  O_4
REMARK    3  A    between atoms: O_4  and  O_5
REMARK    4  A    between atoms: O_5  and  C_6
REMARK    5  A    between atoms: C_6  and  O_7
REMARK    6  A    between atoms: O_7  and  O_8
REMARK    7  A    between atoms: O_8  and  C_9
REMARK    8  A    between atoms: C_9  and  C_10
REMARK                            x       y       z     vdW  Elec       q    Type
REMARK                         _______ _______ _______ _____ _____    ______ ____
ROOT
ATOM      1  C   UNL     1       4.131   6.042  18.065  0.00  0.00    +0.000 C 
ATOM      2  C   UNL     1       4.211   5.122  16.797  0.00  0.00    +0.000 C 
ATOM      3  C   UNL     1       3.459   3.772  16.874  0.00  0.00    +0.000 C 
ATOM      4  C   UNL     1       4.206   2.664  17.628  0.00  0.00    +0.000 C 
ATOM      5  C   UNL     1       3.306   1.573  18.238  0.00  0.00    +0.000 C 
ATOM      6  C   UNL     1       2.172   2.039  19.177  0.00  0.00    +0.000 C 
ATOM      7  C   UNL     1       2.674   2.782  20.414  0.00  0.00    +0.000 C 
ATOM      8  C   UNL     1       1.610   3.601  21.168  0.00  0.00    +0.000 C 
ATOM      9  C   UNL     1       1.137   4.876  20.449  0.00  0.00    +0.000 C 
ATOM     10  C   UNL     1       2.020   6.103  20.741  0.00  0.00    +0.000 C 
ATOM     11  C   UNL     1       2.254   7.113  19.606  0.00  0.00    +0.000 C 
ATOM     12  C   UNL     1       2.676   6.563  18.239  0.00  0.00    +0.000 C 
ENDROOT
BRANCH   1  13
ATOM     13  O   UNL     1       4.539   5.225  19.179  0.00  0.00    +0.000 OA
BRANCH  13  14
ATOM     14  O   UNL     1       5.889   5.613  19.610  0.00  0.00    +0.000 OA
BRANCH  14  15
ATOM     15  C   UNL     1       6.719   4.463  19.386  0.00  0.00    +0.000 C 
BRANCH  15  17
ATOM     16  C   UNL     1       7.646   4.396  17.048  0.00  0.00    +0.000 C 
ATOM     17  C   UNL     1       7.747   4.769  18.337  0.00  0.00    +0.000 C 
ENDBRANCH  15  17
ENDBRANCH  14  15
ENDBRANCH  13  14
ENDBRANCH   1  13
BRANCH   1  18
ATOM     18  O   UNL     1       5.048   7.148  17.905  0.00  0.00    +0.000 OA
BRANCH  18  19
ATOM     19  O   UNL     1       5.806   6.957  16.667  0.00  0.00    +0.000 OA
BRANCH  19  20
ATOM     20  C   UNL     1       6.705   8.061  16.610  0.00  0.00    +0.000 C 
BRANCH  20  21
ATOM     21  C   UNL     1       7.612   8.002  17.801  0.00  0.00    +0.000 C 
ATOM     22  C   UNL     1       8.398   9.007  18.215  0.00  0.00    +0.000 C 
ENDBRANCH  20  21
ENDBRANCH  19  20
ENDBRANCH  18  19
ENDBRANCH   1  18
TORSDOF 8
ENDMDL
MODEL 8
REMARK VINA RESULT:      -5.1      8.585     11.880
REMARK  Name = 
REMARK  8 active torsions:
REMARK  status: ('A' for Active; 'I' for Inactive)
REMARK    1  A    between atoms: C_2  and  C_3
REMARK    2  A    between atoms: C_3  and  O_4
REMARK    3  A    between atoms: O_4  and  O_5
REMARK    4  A    between atoms: O_5  and  C_6
REMARK    5  A    between atoms: C_6  and  O_7
REMARK    6  A    between atoms: O_7  and  O_8
REMARK    7  A    between atoms: O_8  and  C_9
REMARK    8  A    between atoms: C_9  and  C_10
REMARK                            x       y       z     vdW  Elec       q    Type
REMARK                         _______ _______ _______ _____ _____    ______ ____
ROOT
ATOM      1  C   UNL     1      10.010  13.314  18.519  0.00  0.00    +0.000 C 
ATOM      2  C   UNL     1      10.959  13.561  17.294  0.00  0.00    +0.000 C 
ATOM      3  C   UNL     1      11.736  14.898  17.281  0.00  0.00    +0.000 C 
ATOM      4  C   UNL     1      10.924  16.106  16.795  0.00  0.00    +0.000 C 
ATOM      5  C   UNL     1      11.412  17.470  17.319  0.00  0.00    +0.000 C 
ATOM      6  C   UNL     1      11.543  17.631  18.849  0.00  0.00    +0.000 C 
ATOM      7  C   UNL     1      10.222  17.445  19.594  0.00  0.00    +0.000 C 
ATOM      8  C   UNL     1      10.349  17.202  21.109  0.00  0.00    +0.000 C 
ATOM      9  C   UNL     1      10.902  15.821  21.505  0.00  0.00    +0.000 C 
ATOM     10  C   UNL     1       9.815  14.736  21.610  0.00  0.00    +0.000 C 
ATOM     11  C   UNL     1      10.173  13.308  21.168  0.00  0.00    +0.000 C 
ATOM     12  C   UNL     1      10.860  13.135  19.809  0.00  0.00    +0.000 C 
ENDROOT
BRANCH   1  13
ATOM     13  O   UNL     1       9.155  14.470  18.602  0.00  0.00    +0.000 OA
BRANCH  13  14
ATOM     14  O   UNL     1       7.750  14.044  18.657  0.00  0.00    +0.000 OA
BRANCH  14  15
ATOM     15  C   UNL     1       7.023  14.979  17.843  0.00  0.00    +0.000 C 
BRANCH  15  17
ATOM     16  C   UNL     1       4.560  15.438  18.074  0.00  0.00    +0.000 C 
ATOM     17  C   UNL     1       5.573  14.597  17.795  0.00  0.00    +0.000 C 
ENDBRANCH  15  17
ENDBRANCH  14  15
ENDBRANCH  13  14
ENDBRANCH   1  13
BRANCH   1  18
ATOM     18  O   UNL     1       9.215  12.132  18.270  0.00  0.00    +0.000 OA
BRANCH  18  19
ATOM     19  O   UNL     1      10.031  10.948  18.544  0.00  0.00    +0.000 OA
BRANCH  19  20
ATOM     20  C   UNL     1       9.123   9.988  19.079  0.00  0.00    +0.000 C 
BRANCH  20  21
ATOM     21  C   UNL     1       8.259   9.477  17.968  0.00  0.00    +0.000 C 
ATOM     22  C   UNL     1       7.961   8.185  17.764  0.00  0.00    +0.000 C 
ENDBRANCH  20  21
ENDBRANCH  19  20
ENDBRANCH  18  19
ENDBRANCH   1  18
TORSDOF 8
ENDMDL
MODEL 9
REMARK VINA RESULT:      -5.0      5.728      8.543
REMARK  Name = 
REMARK  8 active torsions:
REMARK  status: ('A' for Active; 'I' for Inactive)
REMARK    1  A    between atoms: C_2  and  C_3
REMARK    2  A    between atoms: C_3  and  O_4
REMARK    3  A    between atoms: O_4  and  O_5
REMARK    4  A    between atoms: O_5  and  C_6
REMARK    5  A    between atoms: C_6  and  O_7
REMARK    6  A    between atoms: O_7  and  O_8
REMARK    7  A    between atoms: O_8  and  C_9
REMARK    8  A    between atoms: C_9  and  C_10
REMARK                            x       y       z     vdW  Elec       q    Type
REMARK                         _______ _______ _______ _____ _____    ______ ____
ROOT
ATOM      1  C   UNL     1       0.806  10.177  19.232  0.00  0.00    +0.000 C 
ATOM      2  C   UNL     1       1.530  11.531  18.911  0.00  0.00    +0.000 C 
ATOM      3  C   UNL     1       1.333  12.678  19.929  0.00  0.00    +0.000 C 
ATOM      4  C   UNL     1       0.010  13.443  19.784  0.00  0.00    +0.000 C 
ATOM      5  C   UNL     1      -0.487  14.130  21.070  0.00  0.00    +0.000 C 
ATOM      6  C   UNL     1      -0.639  13.247  22.327  0.00  0.00    +0.000 C 
ATOM      7  C   UNL     1      -1.644  12.110  22.153  0.00  0.00    +0.000 C 
ATOM      8  C   UNL     1      -1.553  10.983  23.198  0.00  0.00    +0.000 C 
ATOM      9  C   UNL     1      -0.320  10.072  23.069  0.00  0.00    +0.000 C 
ATOM     10  C   UNL     1      -0.529   8.898  22.096  0.00  0.00    +0.000 C 
ATOM     11  C   UNL     1       0.665   8.446  21.239  0.00  0.00    +0.000 C 
ATOM     12  C   UNL     1       1.452   9.526  20.489  0.00  0.00    +0.000 C 
ENDROOT
BRANCH   1  13
ATOM     13  O   UNL     1      -0.578  10.507  19.457  0.00  0.00    +0.000 OA
BRANCH  13  14
ATOM     14  O   UNL     1      -1.382  10.084  18.303  0.00  0.00    +0.000 OA
BRANCH  14  15
ATOM     15  C   UNL     1      -2.390  11.093  18.133  0.00  0.00    +0.000 C 
BRANCH  15  17
ATOM     16  C   UNL     1      -2.681  10.474  15.712  0.00  0.00    +0.000 C 
ATOM     17  C   UNL     1      -3.204  10.804  16.907  0.00  0.00    +0.000 C 
ENDBRANCH  15  17
ENDBRANCH  14  15
ENDBRANCH  13  14
ENDBRANCH   1  13
BRANCH   1  18
ATOM     18  O   UNL     1       0.922   9.296  18.091  0.00  0.00    +0.000 OA
BRANCH  18  19
ATOM     19  O   UNL     1       2.336   8.978  17.883  0.00  0.00    +0.000 OA
BRANCH  19  20
ATOM     20  C   UNL     1       2.390   7.554  17.829  0.00  0.00    +0.000 C 
BRANCH  20  21
ATOM     21  C   UNL     1       3.793   7.140  17.511  0.00  0.00    +0.000 C 
ATOM     22  C   UNL     1       4.428   6.097  18.067  0.00  0.00    +0.000 C 
ENDBRANCH  20  21
ENDBRANCH  19  20
ENDBRANCH  18  19
ENDBRANCH   1  18
TORSDOF 8
ENDMDL
