MODEL 1
REMARK VINA RESULT:      -5.7      0.000      0.000
REMARK  Name = 
REMARK  7 active torsions:
REMARK  status: ('A' for Active; 'I' for Inactive)
REMARK    1  A    between atoms: C_1  and  C_2
REMARK    2  A    between atoms: C_3  and  O_4
REMARK    3  A    between atoms: C_5  and  O_6
REMARK    4  A    between atoms: C_7  and  O_8
REMARK    5  A    between atoms: C_9  and  C_10
REMARK    6  A    between atoms: C_10  and  O_11
REMARK    7  A    between atoms: N_12  and  C_13
REMARK                            x       y       z     vdW  Elec       q    Type
REMARK                         _______ _______ _______ _____ _____    ______ ____
ROOT
ATOM      1  C   UNL     1       1.148   4.545  20.455  0.00  0.00    +0.000 C 
ATOM      2  C   UNL     1       1.603   4.521  18.982  0.00  0.00    +0.000 C 
ATOM      3  C   UNL     1       1.736   3.078  18.454  0.00  0.00    +0.000 C 
ATOM      4  C   UNL     1       2.964   2.388  19.061  0.00  0.00    +0.000 C 
ATOM      5  C   UNL     1       4.233   3.216  18.804  0.00  0.00    +0.000 C 
ATOM      6  C   UNL     1       4.068   4.684  19.285  0.00  0.00    +0.000 C 
ATOM      7  N   UNL     1       2.840   5.287  18.708  0.00  0.00    +0.000 NA
ATOM      8  C   UNL     1       2.686   6.705  19.039  0.00  0.00    +0.000 C 
ENDROOT
BRANCH   3   9
ATOM      9  O   UNL     1       0.548   2.331  18.745  0.00  0.00    +0.000 OA
ATOM     10  H   UNL     1       0.828   1.492  19.157  0.00  0.00    +0.000 HD
ENDBRANCH   3   9
BRANCH   4  11
ATOM     11  O   UNL     1       3.089   1.066  18.509  0.00  0.00    +0.000 OA
ATOM     12  H   UNL     1       3.288   1.152  17.561  0.00  0.00    +0.000 HD
ENDBRANCH   4  11
BRANCH   5  13
ATOM     13  O   UNL     1       5.359   2.607  19.449  0.00  0.00    +0.000 OA
ATOM     14  H   UNL     1       6.168   2.895  19.002  0.00  0.00    +0.000 HD
ENDBRANCH   5  13
BRANCH   6  15
ATOM     15  C   UNL     1       5.372   5.477  18.973  0.00  0.00    +0.000 C 
BRANCH  15  16
ATOM     16  O   UNL     1       6.441   5.171  19.865  0.00  0.00    +0.000 OA
ATOM     17  H   UNL     1       6.050   4.801  20.674  0.00  0.00    +0.000 HD
ENDBRANCH  15  16
ENDBRANCH   6  15
TORSDOF 5
ENDMDL
MODEL 2
REMARK VINA RESULT:      -5.4      1.308      3.650
REMARK  Name = 
REMARK  7 active torsions:
REMARK  status: ('A' for Active; 'I' for Inactive)
REMARK    1  A    between atoms: C_1  and  C_2
REMARK    2  A    between atoms: C_3  and  O_4
REMARK    3  A    between atoms: C_5  and  O_6
REMARK    4  A    between atoms: C_7  and  O_8
REMARK    5  A    between atoms: C_9  and  C_10
REMARK    6  A    between atoms: C_10  and  O_11
REMARK    7  A    between atoms: N_12  and  C_13
REMARK                            x       y       z     vdW  Elec       q    Type
REMARK                         _______ _______ _______ _____ _____    ______ ____
ROOT
ATOM      1  C   UNL     1       4.283   5.458  17.237  0.00  0.00    +0.000 C 
ATOM      2  C   UNL     1       4.529   5.530  18.757  0.00  0.00    +0.000 C 
ATOM      3  C   UNL     1       5.346   4.319  19.254  0.00  0.00    +0.000 C 
ATOM      4  C   UNL     1       4.491   3.046  19.244  0.00  0.00    +0.000 C 
ATOM      5  C   UNL     1       3.204   3.250  20.059  0.00  0.00    +0.000 C 
ATOM      6  C   UNL     1       2.420   4.505  19.590  0.00  0.00    +0.000 C 
ATOM      7  N   UNL     1       3.305   5.697  19.572  0.00  0.00    +0.000 NA
ATOM      8  C   UNL     1       2.597   6.935  19.240  0.00  0.00    +0.000 C 
ENDROOT
BRANCH   3   9
ATOM      9  O   UNL     1       6.517   4.142  18.447  0.00  0.00    +0.000 OA
ATOM     10  H   UNL     1       7.217   3.788  19.028  0.00  0.00    +0.000 HD
ENDBRANCH   3   9
BRANCH   4  11
ATOM     11  O   UNL     1       5.263   1.950  19.763  0.00  0.00    +0.000 OA
ATOM     12  H   UNL     1       4.687   1.168  19.805  0.00  0.00    +0.000 HD
ENDBRANCH   4  11
BRANCH   5  13
ATOM     13  O   UNL     1       2.373   2.084  19.970  0.00  0.00    +0.000 OA
ATOM     14  H   UNL     1       2.728   1.404  20.560  0.00  0.00    +0.000 HD
ENDBRANCH   5  13
BRANCH   6  15
ATOM     15  C   UNL     1       1.145   4.674  20.468  0.00  0.00    +0.000 C 
BRANCH  15  16
ATOM     16  O   UNL     1       0.194   3.628  20.284  0.00  0.00    +0.000 OA
ATOM     17  H   UNL     1       0.470   3.116  19.506  0.00  0.00    +0.000 HD
ENDBRANCH  15  16
ENDBRANCH   6  15
TORSDOF 5
ENDMDL
MODEL 3
REMARK VINA RESULT:      -5.4      1.351      3.508
REMARK  Name = 
REMARK  7 active torsions:
REMARK  status: ('A' for Active; 'I' for Inactive)
REMARK    1  A    between atoms: C_1  and  C_2
REMARK    2  A    between atoms: C_3  and  O_4
REMARK    3  A    between atoms: C_5  and  O_6
REMARK    4  A    between atoms: C_7  and  O_8
REMARK    5  A    between atoms: C_9  and  C_10
REMARK    6  A    between atoms: C_10  and  O_11
REMARK    7  A    between atoms: N_12  and  C_13
REMARK                            x       y       z     vdW  Elec       q    Type
REMARK                         _______ _______ _______ _____ _____    ______ ____
ROOT
ATOM      1  C   UNL     1       3.813   5.667  17.411  0.00  0.00    +0.000 C 
ATOM      2  C   UNL     1       4.143   5.013  18.767  0.00  0.00    +0.000 C 
ATOM      3  C   UNL     1       4.745   3.605  18.584  0.00  0.00    +0.000 C 
ATOM      4  C   UNL     1       3.670   2.609  18.130  0.00  0.00    +0.000 C 
ATOM      5  C   UNL     1       2.485   2.608  19.108  0.00  0.00    +0.000 C 
ATOM      6  C   UNL     1       1.924   4.038  19.333  0.00  0.00    +0.000 C 
ATOM      7  N   UNL     1       3.012   4.970  19.722  0.00  0.00    +0.000 NA
ATOM      8  C   UNL     1       2.529   6.313  20.051  0.00  0.00    +0.000 C 
ENDROOT
BRANCH   3   9
ATOM      9  O   UNL     1       5.822   3.643  17.639  0.00  0.00    +0.000 OA
ATOM     10  H   UNL     1       5.465   4.011  16.809  0.00  0.00    +0.000 HD
ENDBRANCH   3   9
BRANCH   4  11
ATOM     11  O   UNL     1       4.252   1.298  18.021  0.00  0.00    +0.000 OA
ATOM     12  H   UNL     1       4.350   1.090  17.076  0.00  0.00    +0.000 HD
ENDBRANCH   4  11
BRANCH   5  13
ATOM     13  O   UNL     1       1.450   1.739  18.629  0.00  0.00    +0.000 OA
ATOM     14  H   UNL     1       1.667   0.829  18.880  0.00  0.00    +0.000 HD
ENDBRANCH   5  13
BRANCH   6  15
ATOM     15  C   UNL     1       0.747   3.976  20.351  0.00  0.00    +0.000 C 
BRANCH  15  16
ATOM     16  O   UNL     1       0.784   2.818  21.181  0.00  0.00    +0.000 OA
ATOM     17  H   UNL     1       1.715   2.557  21.278  0.00  0.00    +0.000 HD
ENDBRANCH  15  16
ENDBRANCH   6  15
TORSDOF 5
ENDMDL
MODEL 4
REMARK VINA RESULT:      -5.4      1.731      1.853
REMARK  Name = 
REMARK  7 active torsions:
REMARK  status: ('A' for Active; 'I' for Inactive)
REMARK    1  A    between atoms: C_1  and  C_2
REMARK    2  A    between atoms: C_3  and  O_4
REMARK    3  A    between atoms: C_5  and  O_6
REMARK    4  A    between atoms: C_7  and  O_8
REMARK    5  A    between atoms: C_9  and  C_10
REMARK    6  A    between atoms: C_10  and  O_11
REMARK    7  A    between atoms: N_12  and  C_13
REMARK                            x       y       z     vdW  Elec       q    Type
REMARK                         _______ _______ _______ _____ _____    ______ ____
ROOT
ATOM      1  C   UNL     1       2.768   5.260  20.429  0.00  0.00    +0.000 C 
ATOM      2  C   UNL     1       2.070   5.038  19.073  0.00  0.00    +0.000 C 
ATOM      3  C   UNL     1       1.304   3.699  19.045  0.00  0.00    +0.000 C 
ATOM      4  C   UNL     1       2.279   2.517  18.970  0.00  0.00    +0.000 C 
ATOM      5  C   UNL     1       3.224   2.669  17.769  0.00  0.00    +0.000 C 
ATOM      6  C   UNL     1       3.945   4.044  17.774  0.00  0.00    +0.000 C 
ATOM      7  N   UNL     1       2.961   5.148  17.896  0.00  0.00    +0.000 NA
ATOM      8  C   UNL     1       3.572   6.476  17.800  0.00  0.00    +0.000 C 
ENDROOT
BRANCH   3   9
ATOM      9  O   UNL     1       0.462   3.583  20.198  0.00  0.00    +0.000 OA
ATOM     10  H   UNL     1      -0.455   3.487  19.878  0.00  0.00    +0.000 HD
ENDBRANCH   3   9
BRANCH   4  11
ATOM     11  O   UNL     1       1.533   1.290  18.891  0.00  0.00    +0.000 OA
ATOM     12  H   UNL     1       1.802   0.825  18.081  0.00  0.00    +0.000 HD
ENDBRANCH   4  11
BRANCH   5  13
ATOM     13  O   UNL     1       4.185   1.604  17.760  0.00  0.00    +0.000 OA
ATOM     14  H   UNL     1       5.023   1.938  18.112  0.00  0.00    +0.000 HD
ENDBRANCH   5  13
BRANCH   6  15
ATOM     15  C   UNL     1       4.865   4.147  16.521  0.00  0.00    +0.000 C 
BRANCH  15  16
ATOM     16  O   UNL     1       6.196   3.697  16.763  0.00  0.00    +0.000 OA
ATOM     17  H   UNL     1       6.487   3.209  15.975  0.00  0.00    +0.000 HD
ENDBRANCH  15  16
ENDBRANCH   6  15
TORSDOF 5
ENDMDL
MODEL 5
REMARK VINA RESULT:      -5.3      2.258      4.512
REMARK  Name = 
REMARK  7 active torsions:
REMARK  status: ('A' for Active; 'I' for Inactive)
REMARK    1  A    between atoms: C_1  and  C_2
REMARK    2  A    between atoms: C_3  and  O_4
REMARK    3  A    between atoms: C_5  and  O_6
REMARK    4  A    between atoms: C_7  and  O_8
REMARK    5  A    between atoms: C_9  and  C_10
REMARK    6  A    between atoms: C_10  and  O_11
REMARK    7  A    between atoms: N_12  and  C_13
REMARK                            x       y       z     vdW  Elec       q    Type
REMARK                         _______ _______ _______ _____ _____    ______ ____
ROOT
ATOM      1  C   UNL     1       4.969   6.367  15.617  0.00  0.00    +0.000 C 
ATOM      2  C   UNL     1       5.433   6.855  17.004  0.00  0.00    +0.000 C 
ATOM      3  C   UNL     1       6.798   6.247  17.388  0.00  0.00    +0.000 C 
ATOM      4  C   UNL     1       6.652   4.759  17.732  0.00  0.00    +0.000 C 
ATOM      5  C   UNL     1       5.598   4.556  18.831  0.00  0.00    +0.000 C 
ATOM      6  C   UNL     1       4.246   5.223  18.460  0.00  0.00    +0.000 C 
ATOM      7  N   UNL     1       4.450   6.647  18.090  0.00  0.00    +0.000 NA
ATOM      8  C   UNL     1       3.197   7.359  17.834  0.00  0.00    +0.000 C 
ENDROOT
BRANCH   3   9
ATOM      9  O   UNL     1       7.740   6.426  16.324  0.00  0.00    +0.000 OA
ATOM     10  H   UNL     1       8.290   5.620  16.287  0.00  0.00    +0.000 HD
ENDBRANCH   3   9
BRANCH   4  11
ATOM     11  O   UNL     1       7.930   4.238  18.137  0.00  0.00    +0.000 OA
ATOM     12  H   UNL     1       8.619   4.701  17.632  0.00  0.00    +0.000 HD
ENDBRANCH   4  11
BRANCH   5  13
ATOM     13  O   UNL     1       5.409   3.157  19.082  0.00  0.00    +0.000 OA
ATOM     14  H   UNL     1       5.461   3.002  20.036  0.00  0.00    +0.000 HD
ENDBRANCH   5  13
BRANCH   6  15
ATOM     15  C   UNL     1       3.230   5.007  19.622  0.00  0.00    +0.000 C 
BRANCH  15  16
ATOM     16  O   UNL     1       2.706   3.682  19.670  0.00  0.00    +0.000 OA
ATOM     17  H   UNL     1       2.831   3.286  18.792  0.00  0.00    +0.000 HD
ENDBRANCH  15  16
ENDBRANCH   6  15
TORSDOF 5
ENDMDL
MODEL 6
REMARK VINA RESULT:      -5.3      1.189      1.284
REMARK  Name = 
REMARK  7 active torsions:
REMARK  status: ('A' for Active; 'I' for Inactive)
REMARK    1  A    between atoms: C_1  and  C_2
REMARK    2  A    between atoms: C_3  and  O_4
REMARK    3  A    between atoms: C_5  and  O_6
REMARK    4  A    between atoms: C_7  and  O_8
REMARK    5  A    between atoms: C_9  and  C_10
REMARK    6  A    between atoms: C_10  and  O_11
REMARK    7  A    between atoms: N_12  and  C_13
REMARK                            x       y       z     vdW  Elec       q    Type
REMARK                         _______ _______ _______ _____ _____    ______ ____
ROOT
ATOM      1  C   UNL     1       1.920   5.806  19.010  0.00  0.00    +0.000 C 
ATOM      2  C   UNL     1       2.596   5.157  17.787  0.00  0.00    +0.000 C 
ATOM      3  C   UNL     1       2.292   3.646  17.710  0.00  0.00    +0.000 C 
ATOM      4  C   UNL     1       3.057   2.882  18.798  0.00  0.00    +0.000 C 
ATOM      5  C   UNL     1       4.564   3.175  18.710  0.00  0.00    +0.000 C 
ATOM      6  C   UNL     1       4.854   4.700  18.727  0.00  0.00    +0.000 C 
ATOM      7  N   UNL     1       4.053   5.396  17.689  0.00  0.00    +0.000 NA
ATOM      8  C   UNL     1       4.363   6.823  17.585  0.00  0.00    +0.000 C 
ENDROOT
BRANCH   3   9
ATOM      9  O   UNL     1       0.884   3.414  17.832  0.00  0.00    +0.000 OA
ATOM     10  H   UNL     1       0.621   3.697  18.729  0.00  0.00    +0.000 HD
ENDBRANCH   3   9
BRANCH   4  11
ATOM     11  O   UNL     1       2.795   1.475  18.665  0.00  0.00    +0.000 OA
ATOM     12  H   UNL     1       1.837   1.336  18.753  0.00  0.00    +0.000 HD
ENDBRANCH   4  11
BRANCH   5  13
ATOM     13  O   UNL     1       5.257   2.525  19.784  0.00  0.00    +0.000 OA
ATOM     14  H   UNL     1       6.056   3.031  19.989  0.00  0.00    +0.000 HD
ENDBRANCH   5  13
BRANCH   6  15
ATOM     15  C   UNL     1       6.390   4.933  18.607  0.00  0.00    +0.000 C 
BRANCH  15  16
ATOM     16  O   UNL     1       7.020   5.180  19.862  0.00  0.00    +0.000 OA
ATOM     17  H   UNL     1       7.817   5.708  19.689  0.00  0.00    +0.000 HD
ENDBRANCH  15  16
ENDBRANCH   6  15
TORSDOF 5
ENDMDL
MODEL 7
REMARK VINA RESULT:      -5.2      1.984      3.385
REMARK  Name = 
REMARK  7 active torsions:
REMARK  status: ('A' for Active; 'I' for Inactive)
REMARK    1  A    between atoms: C_1  and  C_2
REMARK    2  A    between atoms: C_3  and  O_4
REMARK    3  A    between atoms: C_5  and  O_6
REMARK    4  A    between atoms: C_7  and  O_8
REMARK    5  A    between atoms: C_9  and  C_10
REMARK    6  A    between atoms: C_10  and  O_11
REMARK    7  A    between atoms: N_12  and  C_13
REMARK                            x       y       z     vdW  Elec       q    Type
REMARK                         _______ _______ _______ _____ _____    ______ ____
ROOT
ATOM      1  C   UNL     1       1.456   4.371  17.811  0.00  0.00    +0.000 C 
ATOM      2  C   UNL     1       2.069   4.950  19.102  0.00  0.00    +0.000 C 
ATOM      3  C   UNL     1       3.127   6.029  18.790  0.00  0.00    +0.000 C 
ATOM      4  C   UNL     1       4.402   5.391  18.225  0.00  0.00    +0.000 C 
ATOM      5  C   UNL     1       4.939   4.313  19.180  0.00  0.00    +0.000 C 
ATOM      6  C   UNL     1       3.849   3.266  19.535  0.00  0.00    +0.000 C 
ATOM      7  N   UNL     1       2.621   3.939  20.030  0.00  0.00    +0.000 NA
ATOM      8  C   UNL     1       1.593   2.999  20.482  0.00  0.00    +0.000 C 
ENDROOT
BRANCH   3   9
ATOM      9  O   UNL     1       2.599   6.993  17.870  0.00  0.00    +0.000 OA
ATOM     10  H   UNL     1       3.150   6.955  17.065  0.00  0.00    +0.000 HD
ENDBRANCH   3   9
BRANCH   4  11
ATOM     11  O   UNL     1       5.385   6.416  17.996  0.00  0.00    +0.000 OA
ATOM     12  H   UNL     1       5.800   6.249  17.133  0.00  0.00    +0.000 HD
ENDBRANCH   4  11
BRANCH   5  13
ATOM     13  O   UNL     1       6.080   3.665  18.602  0.00  0.00    +0.000 OA
ATOM     14  H   UNL     1       6.554   4.305  18.050  0.00  0.00    +0.000 HD
ENDBRANCH   5  13
BRANCH   6  15
ATOM     15  C   UNL     1       4.443   2.220  20.524  0.00  0.00    +0.000 C 
BRANCH  15  16
ATOM     16  O   UNL     1       5.210   1.208  19.877  0.00  0.00    +0.000 OA
ATOM     17  H   UNL     1       5.772   1.645  19.216  0.00  0.00    +0.000 HD
ENDBRANCH  15  16
ENDBRANCH   6  15
TORSDOF 5
ENDMDL
MODEL 8
REMARK VINA RESULT:      -5.2      3.163      5.018
REMARK  Name = 
REMARK  7 active torsions:
REMARK  status: ('A' for Active; 'I' for Inactive)
REMARK    1  A    between atoms: C_1  and  C_2
REMARK    2  A    between atoms: C_3  and  O_4
REMARK    3  A    between atoms: C_5  and  O_6
REMARK    4  A    between atoms: C_7  and  O_8
REMARK    5  A    between atoms: C_9  and  C_10
REMARK    6  A    between atoms: C_10  and  O_11
REMARK    7  A    between atoms: N_12  and  C_13
REMARK                            x       y       z     vdW  Elec       q    Type
REMARK                         _______ _______ _______ _____ _____    ______ ____
ROOT
ATOM      1  C   UNL     1       7.018   7.089  17.218  0.00  0.00    +0.000 C 
ATOM      2  C   UNL     1       7.407   5.598  17.261  0.00  0.00    +0.000 C 
ATOM      3  C   UNL     1       7.085   4.891  15.928  0.00  0.00    +0.000 C 
ATOM      4  C   UNL     1       5.572   4.704  15.764  0.00  0.00    +0.000 C 
ATOM      5  C   UNL     1       4.984   3.958  16.972  0.00  0.00    +0.000 C 
ATOM      6  C   UNL     1       5.364   4.644  18.312  0.00  0.00    +0.000 C 
ATOM      7  N   UNL     1       6.832   4.844  18.397  0.00  0.00    +0.000 NA
ATOM      8  C   UNL     1       7.264   5.391  19.686  0.00  0.00    +0.000 C 
ENDROOT
BRANCH   3   9
ATOM      9  O   UNL     1       7.620   5.636  14.827  0.00  0.00    +0.000 OA
ATOM     10  H   UNL     1       7.867   4.993  14.136  0.00  0.00    +0.000 HD
ENDBRANCH   3   9
BRANCH   4  11
ATOM     11  O   UNL     1       5.310   3.996  14.541  0.00  0.00    +0.000 OA
ATOM     12  H   UNL     1       6.145   3.923  14.049  0.00  0.00    +0.000 HD
ENDBRANCH   4  11
BRANCH   5  13
ATOM     13  O   UNL     1       3.558   3.866  16.849  0.00  0.00    +0.000 OA
ATOM     14  H   UNL     1       3.319   3.977  15.917  0.00  0.00    +0.000 HD
ENDBRANCH   5  13
BRANCH   6  15
ATOM     15  C   UNL     1       4.764   3.828  19.496  0.00  0.00    +0.000 C 
BRANCH  15  16
ATOM     16  O   UNL     1       4.983   2.425  19.379  0.00  0.00    +0.000 OA
ATOM     17  H   UNL     1       4.310   2.074  18.771  0.00  0.00    +0.000 HD
ENDBRANCH  15  16
ENDBRANCH   6  15
TORSDOF 5
ENDMDL
MODEL 9
REMARK VINA RESULT:      -5.2      1.728      3.488
REMARK  Name = 
REMARK  7 active torsions:
REMARK  status: ('A' for Active; 'I' for Inactive)
REMARK    1  A    between atoms: C_1  and  C_2
REMARK    2  A    between atoms: C_3  and  O_4
REMARK    3  A    between atoms: C_5  and  O_6
REMARK    4  A    between atoms: C_7  and  O_8
REMARK    5  A    between atoms: C_9  and  C_10
REMARK    6  A    between atoms: C_10  and  O_11
REMARK    7  A    between atoms: N_12  and  C_13
REMARK                            x       y       z     vdW  Elec       q    Type
REMARK                         _______ _______ _______ _____ _____    ______ ____
ROOT
ATOM      1  C   UNL     1       2.610   6.119  17.974  0.00  0.00    +0.000 C 
ATOM      2  C   UNL     1       3.404   5.972  19.287  0.00  0.00    +0.000 C 
ATOM      3  C   UNL     1       4.868   5.565  19.019  0.00  0.00    +0.000 C 
ATOM      4  C   UNL     1       4.951   4.103  18.563  0.00  0.00    +0.000 C 
ATOM      5  C   UNL     1       4.270   3.177  19.584  0.00  0.00    +0.000 C 
ATOM      6  C   UNL     1       2.817   3.630  19.891  0.00  0.00    +0.000 C 
ATOM      7  N   UNL     1       2.789   5.063  20.280  0.00  0.00    +0.000 NA
ATOM      8  C   UNL     1       1.459   5.522  20.686  0.00  0.00    +0.000 C 
ENDROOT
BRANCH   3   9
ATOM      9  O   UNL     1       5.453   6.430  18.038  0.00  0.00    +0.000 OA
ATOM     10  H   UNL     1       4.756   7.046  17.744  0.00  0.00    +0.000 HD
ENDBRANCH   3   9
BRANCH   4  11
ATOM     11  O   UNL     1       6.329   3.741  18.375  0.00  0.00    +0.000 OA
ATOM     12  H   UNL     1       6.386   2.771  18.345  0.00  0.00    +0.000 HD
ENDBRANCH   4  11
BRANCH   5  13
ATOM     13  O   UNL     1       4.278   1.825  19.105  0.00  0.00    +0.000 OA
ATOM     14  H   UNL     1       4.022   1.824  18.171  0.00  0.00    +0.000 HD
ENDBRANCH   5  13
BRANCH   6  15
ATOM     15  C   UNL     1       2.193   2.672  20.949  0.00  0.00    +0.000 C 
BRANCH  15  16
ATOM     16  O   UNL     1       3.116   2.270  21.957  0.00  0.00    +0.000 OA
ATOM     17  H   UNL     1       3.905   2.831  21.871  0.00  0.00    +0.000 HD
ENDBRANCH  15  16
ENDBRANCH   6  15
TORSDOF 5
ENDMDL
