MODEL 1
REMARK VINA RESULT:      -6.6      0.000      0.000
REMARK  Name = 
REMARK  7 active torsions:
REMARK  status: ('A' for Active; 'I' for Inactive)
REMARK    1  A    between atoms: C_1  and  C_2
REMARK    2  A    between atoms: C_2  and  C_3
REMARK    3  A    between atoms: C_3  and  C_4
REMARK    4  A    between atoms: C_3  and  N_10
REMARK    5  A    between atoms: C_4  and  N_5
REMARK    6  A    between atoms: N_10  and  C_11
REMARK    7  A    between atoms: C_11  and  C_12
REMARK                            x       y       z     vdW  Elec       q    Type
REMARK                         _______ _______ _______ _____ _____    ______ ____
ROOT
ATOM      1  C   UNL     1       4.773   4.474  18.755  0.00  0.00    +0.000 C 
ENDROOT
BRANCH   1   3
ATOM      2  C   UNL     1       3.217   6.535  18.578  0.00  0.00    +0.000 C 
ATOM      3  C   UNL     1       4.441   5.806  18.044  0.00  0.00    +0.000 C 
ENDBRANCH   1   3
BRANCH   1   4
ATOM      4  N   UNL     1       6.111   3.999  18.341  0.00  0.00    +0.000 NA
ATOM      5  H   UNL     1       6.037   3.128  17.817  0.00  0.00    +0.000 HD
BRANCH   4   6
ATOM      6  C   UNL     1       6.854   4.966  17.530  0.00  0.00    +0.000 C 
BRANCH   6   7
ATOM      7  C   UNL     1       6.714   4.642  16.084  0.00  0.00    +0.000 A 
ATOM      8  C   UNL     1       5.930   3.750  15.385  0.00  0.00    +0.000 A 
ATOM      9  C   UNL     1       6.271   3.916  14.021  0.00  0.00    +0.000 A 
ATOM     10  C   UNL     1       7.242   4.897  13.972  0.00  0.00    +0.000 A 
ATOM     11 CL   UNL     1       8.029   5.502  12.569  0.00  0.00    +0.000 Cl
ATOM     12  O   UNL     1       7.509   5.343  15.228  0.00  0.00    +0.000 OA
ENDBRANCH   6   7
ENDBRANCH   4   6
ENDBRANCH   1   4
BRANCH   1  13
ATOM     13  C   UNL     1       3.712   3.385  18.449  0.00  0.00    +0.000 C 
BRANCH  13  14
ATOM     14  N   UNL     1       2.794   3.133  19.547  0.00  0.00    +0.000 N 
ATOM     15  C   UNL     1       3.126   2.708  20.803  0.00  0.00    +0.000 A 
ATOM     16  C   UNL     1       1.931   2.649  21.484  0.00  0.00    +0.000 A 
ATOM     17  N   UNL     1       0.895   3.057  20.685  0.00  0.00    +0.000 NA
ATOM     18  C   UNL     1       1.445   3.346  19.527  0.00  0.00    +0.000 A 
ENDBRANCH  13  14
ENDBRANCH   1  13
TORSDOF 6
ENDMDL
MODEL 2
REMARK VINA RESULT:      -6.3      0.877      1.213
REMARK  Name = 
REMARK  7 active torsions:
REMARK  status: ('A' for Active; 'I' for Inactive)
REMARK    1  A    between atoms: C_1  and  C_2
REMARK    2  A    between atoms: C_2  and  C_3
REMARK    3  A    between atoms: C_3  and  C_4
REMARK    4  A    between atoms: C_3  and  N_10
REMARK    5  A    between atoms: C_4  and  N_5
REMARK    6  A    between atoms: N_10  and  C_11
REMARK    7  A    between atoms: C_11  and  C_12
REMARK                            x       y       z     vdW  Elec       q    Type
REMARK                         _______ _______ _______ _____ _____    ______ ____
ROOT
ATOM      1  C   UNL     1       4.981   4.339  18.628  0.00  0.00    +0.000 C 
ENDROOT
BRANCH   1   3
ATOM      2  C   UNL     1       3.848   6.436  17.619  0.00  0.00    +0.000 C 
ATOM      3  C   UNL     1       4.895   5.883  18.573  0.00  0.00    +0.000 C 
ENDBRANCH   1   3
BRANCH   1   4
ATOM      4  N   UNL     1       6.315   3.890  18.175  0.00  0.00    +0.000 NA
ATOM      5  H   UNL     1       6.239   3.036  17.624  0.00  0.00    +0.000 HD
BRANCH   4   6
ATOM      6  C   UNL     1       7.034   4.890  17.382  0.00  0.00    +0.000 C 
BRANCH   6   7
ATOM      7  C   UNL     1       6.851   4.625  15.929  0.00  0.00    +0.000 A 
ATOM      8  C   UNL     1       6.051   3.758  15.218  0.00  0.00    +0.000 A 
ATOM      9  C   UNL     1       6.349   3.983  13.853  0.00  0.00    +0.000 A 
ATOM     10  C   UNL     1       7.313   4.971  13.814  0.00  0.00    +0.000 A 
ATOM     11 CL   UNL     1       8.053   5.640  12.415  0.00  0.00    +0.000 Cl
ATOM     12  O   UNL     1       7.616   5.367  15.079  0.00  0.00    +0.000 OA
ENDBRANCH   6   7
ENDBRANCH   4   6
ENDBRANCH   1   4
BRANCH   1  13
ATOM     13  C   UNL     1       3.881   3.676  17.759  0.00  0.00    +0.000 C 
BRANCH  13  14
ATOM     14  N   UNL     1       2.726   3.224  18.517  0.00  0.00    +0.000 N 
ATOM     15  C   UNL     1       1.422   3.568  18.295  0.00  0.00    +0.000 A 
ATOM     16  C   UNL     1       0.706   2.867  19.239  0.00  0.00    +0.000 A 
ATOM     17  N   UNL     1       1.537   2.086  20.000  0.00  0.00    +0.000 NA
ATOM     18  C   UNL     1       2.746   2.318  19.540  0.00  0.00    +0.000 A 
ENDBRANCH  13  14
ENDBRANCH   1  13
TORSDOF 6
ENDMDL
MODEL 3
REMARK VINA RESULT:      -6.3      0.767      1.059
REMARK  Name = 
REMARK  7 active torsions:
REMARK  status: ('A' for Active; 'I' for Inactive)
REMARK    1  A    between atoms: C_1  and  C_2
REMARK    2  A    between atoms: C_2  and  C_3
REMARK    3  A    between atoms: C_3  and  C_4
REMARK    4  A    between atoms: C_3  and  N_10
REMARK    5  A    between atoms: C_4  and  N_5
REMARK    6  A    between atoms: N_10  and  C_11
REMARK    7  A    between atoms: C_11  and  C_12
REMARK                            x       y       z     vdW  Elec       q    Type
REMARK                         _______ _______ _______ _____ _____    ______ ____
ROOT
ATOM      1  C   UNL     1       4.300   5.116  18.747  0.00  0.00    +0.000 C 
ENDROOT
BRANCH   1   3
ATOM      2  C   UNL     1       2.795   7.092  18.022  0.00  0.00    +0.000 C 
ATOM      3  C   UNL     1       4.153   6.416  17.923  0.00  0.00    +0.000 C 
ENDBRANCH   1   3
BRANCH   1   4
ATOM      4  N   UNL     1       5.517   4.386  18.330  0.00  0.00    +0.000 NA
ATOM      5  H   UNL     1       5.274   3.584  17.749  0.00  0.00    +0.000 HD
BRANCH   4   6
ATOM      6  C   UNL     1       6.478   5.215  17.598  0.00  0.00    +0.000 C 
BRANCH   6   7
ATOM      7  C   UNL     1       6.513   4.817  16.164  0.00  0.00    +0.000 A 
ATOM      8  C   UNL     1       5.867   3.844  15.435  0.00  0.00    +0.000 A 
ATOM      9  C   UNL     1       6.340   3.972  14.107  0.00  0.00    +0.000 A 
ATOM     10  C   UNL     1       7.247   5.014  14.108  0.00  0.00    +0.000 A 
ATOM     11 CL   UNL     1       8.139   5.609  12.765  0.00  0.00    +0.000 Cl
ATOM     12  O   UNL     1       7.349   5.533  15.360  0.00  0.00    +0.000 OA
ENDBRANCH   6   7
ENDBRANCH   4   6
ENDBRANCH   1   4
BRANCH   1  13
ATOM     13  C   UNL     1       3.059   4.198  18.590  0.00  0.00    +0.000 C 
BRANCH  13  14
ATOM     14  N   UNL     1       2.563   3.660  19.845  0.00  0.00    +0.000 N 
ATOM     15  C   UNL     1       1.258   3.598  20.245  0.00  0.00    +0.000 A 
ATOM     16  C   UNL     1       1.293   2.982  21.476  0.00  0.00    +0.000 A 
ATOM     17  N   UNL     1       2.577   2.642  21.813  0.00  0.00    +0.000 NA
ATOM     18  C   UNL     1       3.319   3.058  20.812  0.00  0.00    +0.000 A 
ENDBRANCH  13  14
ENDBRANCH   1  13
TORSDOF 6
ENDMDL
MODEL 4
REMARK VINA RESULT:      -6.3      2.030      2.766
REMARK  Name = 
REMARK  7 active torsions:
REMARK  status: ('A' for Active; 'I' for Inactive)
REMARK    1  A    between atoms: C_1  and  C_2
REMARK    2  A    between atoms: C_2  and  C_3
REMARK    3  A    between atoms: C_3  and  C_4
REMARK    4  A    between atoms: C_3  and  N_10
REMARK    5  A    between atoms: C_4  and  N_5
REMARK    6  A    between atoms: N_10  and  C_11
REMARK    7  A    between atoms: C_11  and  C_12
REMARK                            x       y       z     vdW  Elec       q    Type
REMARK                         _______ _______ _______ _____ _____    ______ ____
ROOT
ATOM      1  C   UNL     1       3.989   4.417  17.598  0.00  0.00    +0.000 C 
ENDROOT
BRANCH   1   3
ATOM      2  C   UNL     1       3.295   6.319  19.210  0.00  0.00    +0.000 C 
ATOM      3  C   UNL     1       3.167   5.707  17.823  0.00  0.00    +0.000 C 
ENDBRANCH   1   3
BRANCH   1   4
ATOM      4  N   UNL     1       4.572   4.418  16.239  0.00  0.00    +0.000 NA
ATOM      5  H   UNL     1       4.402   5.311  15.776  0.00  0.00    +0.000 HD
BRANCH   4   6
ATOM      6  C   UNL     1       6.012   4.152  16.216  0.00  0.00    +0.000 C 
BRANCH   6   7
ATOM      7  C   UNL     1       6.723   5.086  17.131  0.00  0.00    +0.000 A 
ATOM      8  C   UNL     1       7.321   4.934  18.363  0.00  0.00    +0.000 A 
ATOM      9  C   UNL     1       7.819   6.211  18.715  0.00  0.00    +0.000 A 
ATOM     10  C   UNL     1       7.493   7.064  17.679  0.00  0.00    +0.000 A 
ATOM     11 CL   UNL     1       7.846   8.743  17.572  0.00  0.00    +0.000 Cl
ATOM     12  O   UNL     1       6.830   6.379  16.710  0.00  0.00    +0.000 OA
ENDBRANCH   6   7
ENDBRANCH   4   6
ENDBRANCH   1   4
BRANCH   1  13
ATOM     13  C   UNL     1       3.120   3.147  17.794  0.00  0.00    +0.000 C 
BRANCH  13  14
ATOM     14  N   UNL     1       2.612   2.985  19.146  0.00  0.00    +0.000 N 
ATOM     15  C   UNL     1       1.299   2.961  19.523  0.00  0.00    +0.000 A 
ATOM     16  C   UNL     1       1.325   2.754  20.884  0.00  0.00    +0.000 A 
ATOM     17  N   UNL     1       2.614   2.621  21.331  0.00  0.00    +0.000 NA
ATOM     18  C   UNL     1       3.366   2.760  20.262  0.00  0.00    +0.000 A 
ENDBRANCH  13  14
ENDBRANCH   1  13
TORSDOF 6
ENDMDL
MODEL 5
REMARK VINA RESULT:      -6.1      2.338      2.876
REMARK  Name = 
REMARK  7 active torsions:
REMARK  status: ('A' for Active; 'I' for Inactive)
REMARK    1  A    between atoms: C_1  and  C_2
REMARK    2  A    between atoms: C_2  and  C_3
REMARK    3  A    between atoms: C_3  and  C_4
REMARK    4  A    between atoms: C_3  and  N_10
REMARK    5  A    between atoms: C_4  and  N_5
REMARK    6  A    between atoms: N_10  and  C_11
REMARK    7  A    between atoms: C_11  and  C_12
REMARK                            x       y       z     vdW  Elec       q    Type
REMARK                         _______ _______ _______ _____ _____    ______ ____
ROOT
ATOM      1  C   UNL     1       3.699   4.916  17.960  0.00  0.00    +0.000 C 
ENDROOT
BRANCH   1   3
ATOM      2  C   UNL     1       2.572   6.992  19.018  0.00  0.00    +0.000 C 
ATOM      3  C   UNL     1       3.187   6.364  17.777  0.00  0.00    +0.000 C 
ENDBRANCH   1   3
BRANCH   1   4
ATOM      4  N   UNL     1       4.596   4.551  16.843  0.00  0.00    +0.000 NA
ATOM      5  H   UNL     1       4.083   4.049  16.119  0.00  0.00    +0.000 HD
BRANCH   4   6
ATOM      6  C   UNL     1       5.264   5.699  16.226  0.00  0.00    +0.000 C 
BRANCH   6   7
ATOM      7  C   UNL     1       6.362   6.190  17.103  0.00  0.00    +0.000 A 
ATOM      8  C   UNL     1       7.145   5.591  18.065  0.00  0.00    +0.000 A 
ATOM      9  C   UNL     1       8.010   6.602  18.549  0.00  0.00    +0.000 A 
ATOM     10  C   UNL     1       7.701   7.755  17.855  0.00  0.00    +0.000 A 
ATOM     11 CL   UNL     1       8.434   9.299  18.036  0.00  0.00    +0.000 Cl
ATOM     12  O   UNL     1       6.700   7.504  16.970  0.00  0.00    +0.000 OA
ENDBRANCH   6   7
ENDBRANCH   4   6
ENDBRANCH   1   4
BRANCH   1  13
ATOM     13  C   UNL     1       2.527   3.904  18.044  0.00  0.00    +0.000 C 
BRANCH  13  14
ATOM     14  N   UNL     1       2.260   3.422  19.389  0.00  0.00    +0.000 N 
ATOM     15  C   UNL     1       3.190   3.061  20.323  0.00  0.00    +0.000 A 
ATOM     16  C   UNL     1       2.457   2.711  21.435  0.00  0.00    +0.000 A 
ATOM     17  N   UNL     1       1.116   2.883  21.208  0.00  0.00    +0.000 NA
ATOM     18  C   UNL     1       1.028   3.316  19.970  0.00  0.00    +0.000 A 
ENDBRANCH  13  14
ENDBRANCH   1  13
TORSDOF 6
ENDMDL
MODEL 6
REMARK VINA RESULT:      -6.1      1.513      1.874
REMARK  Name = 
REMARK  7 active torsions:
REMARK  status: ('A' for Active; 'I' for Inactive)
REMARK    1  A    between atoms: C_1  and  C_2
REMARK    2  A    between atoms: C_2  and  C_3
REMARK    3  A    between atoms: C_3  and  C_4
REMARK    4  A    between atoms: C_3  and  N_10
REMARK    5  A    between atoms: C_4  and  N_5
REMARK    6  A    between atoms: N_10  and  C_11
REMARK    7  A    between atoms: C_11  and  C_12
REMARK                            x       y       z     vdW  Elec       q    Type
REMARK                         _______ _______ _______ _____ _____    ______ ____
ROOT
ATOM      1  C   UNL     1       3.561   5.869  18.829  0.00  0.00    +0.000 C 
ENDROOT
BRANCH   1   3
ATOM      2  C   UNL     1       2.206   7.951  18.104  0.00  0.00    +0.000 C 
ATOM      3  C   UNL     1       3.463   7.116  17.920  0.00  0.00    +0.000 C 
ENDBRANCH   1   3
BRANCH   1   4
ATOM      4  N   UNL     1       4.775   5.093  18.496  0.00  0.00    +0.000 NA
ATOM      5  H   UNL     1       5.123   4.599  19.317  0.00  0.00    +0.000 HD
BRANCH   4   6
ATOM      6  C   UNL     1       4.574   4.119  17.420  0.00  0.00    +0.000 C 
BRANCH   6   7
ATOM      7  C   UNL     1       5.539   4.366  16.314  0.00  0.00    +0.000 A 
ATOM      8  C   UNL     1       6.696   5.107  16.214  0.00  0.00    +0.000 A 
ATOM      9  C   UNL     1       7.152   4.941  14.885  0.00  0.00    +0.000 A 
ATOM     10  C   UNL     1       6.246   4.111  14.255  0.00  0.00    +0.000 A 
ATOM     11 CL   UNL     1       6.297   3.574  12.623  0.00  0.00    +0.000 Cl
ATOM     12  O   UNL     1       5.265   3.755  15.127  0.00  0.00    +0.000 OA
ENDBRANCH   6   7
ENDBRANCH   4   6
ENDBRANCH   1   4
BRANCH   1  13
ATOM     13  C   UNL     1       2.308   4.965  18.694  0.00  0.00    +0.000 C 
BRANCH  13  14
ATOM     14  N   UNL     1       2.046   4.144  19.864  0.00  0.00    +0.000 N 
ATOM     15  C   UNL     1       1.445   2.917  19.879  0.00  0.00    +0.000 A 
ATOM     16  C   UNL     1       1.454   2.534  21.201  0.00  0.00    +0.000 A 
ATOM     17  N   UNL     1       2.072   3.480  21.977  0.00  0.00    +0.000 NA
ATOM     18  C   UNL     1       2.421   4.435  21.145  0.00  0.00    +0.000 A 
ENDBRANCH  13  14
ENDBRANCH   1  13
TORSDOF 6
ENDMDL
MODEL 7
REMARK VINA RESULT:      -6.0      1.396      1.723
REMARK  Name = 
REMARK  7 active torsions:
REMARK  status: ('A' for Active; 'I' for Inactive)
REMARK    1  A    between atoms: C_1  and  C_2
REMARK    2  A    between atoms: C_2  and  C_3
REMARK    3  A    between atoms: C_3  and  C_4
REMARK    4  A    between atoms: C_3  and  N_10
REMARK    5  A    between atoms: C_4  and  N_5
REMARK    6  A    between atoms: N_10  and  C_11
REMARK    7  A    between atoms: C_11  and  C_12
REMARK                            x       y       z     vdW  Elec       q    Type
REMARK                         _______ _______ _______ _____ _____    ______ ____
ROOT
ATOM      1  C   UNL     1       4.336   4.022  18.319  0.00  0.00    +0.000 C 
ENDROOT
BRANCH   1   3
ATOM      2  C   UNL     1       2.452   5.764  17.985  0.00  0.00    +0.000 C 
ATOM      3  C   UNL     1       3.946   5.501  18.092  0.00  0.00    +0.000 C 
ENDBRANCH   1   3
BRANCH   1   4
ATOM      4  N   UNL     1       5.207   3.553  17.219  0.00  0.00    +0.000 NA
ATOM      5  H   UNL     1       4.663   3.406  16.369  0.00  0.00    +0.000 HD
BRANCH   4   6
ATOM      6  C   UNL     1       6.310   4.467  16.911  0.00  0.00    +0.000 C 
BRANCH   6   7
ATOM      7  C   UNL     1       6.563   4.493  15.445  0.00  0.00    +0.000 A 
ATOM      8  C   UNL     1       7.449   5.185  14.649  0.00  0.00    +0.000 A 
ATOM      9  C   UNL     1       7.184   4.774  13.320  0.00  0.00    +0.000 A 
ATOM     10  C   UNL     1       6.152   3.858  13.387  0.00  0.00    +0.000 A 
ATOM     11 CL   UNL     1       5.415   3.034  12.071  0.00  0.00    +0.000 Cl
ATOM     12  O   UNL     1       5.776   3.682  14.681  0.00  0.00    +0.000 OA
ENDBRANCH   6   7
ENDBRANCH   4   6
ENDBRANCH   1   4
BRANCH   1  13
ATOM     13  C   UNL     1       3.085   3.112  18.421  0.00  0.00    +0.000 C 
BRANCH  13  14
ATOM     14  N   UNL     1       2.585   2.950  19.776  0.00  0.00    +0.000 N 
ATOM     15  C   UNL     1       1.275   2.970  20.168  0.00  0.00    +0.000 A 
ATOM     16  C   UNL     1       1.308   2.743  21.525  0.00  0.00    +0.000 A 
ATOM     17  N   UNL     1       2.596   2.556  21.956  0.00  0.00    +0.000 NA
ATOM     18  C   UNL     1       3.342   2.682  20.881  0.00  0.00    +0.000 A 
ENDBRANCH  13  14
ENDBRANCH   1  13
TORSDOF 6
ENDMDL
MODEL 8
REMARK VINA RESULT:      -5.9      1.536      1.750
REMARK  Name = 
REMARK  7 active torsions:
REMARK  status: ('A' for Active; 'I' for Inactive)
REMARK    1  A    between atoms: C_1  and  C_2
REMARK    2  A    between atoms: C_2  and  C_3
REMARK    3  A    between atoms: C_3  and  C_4
REMARK    4  A    between atoms: C_3  and  N_10
REMARK    5  A    between atoms: C_4  and  N_5
REMARK    6  A    between atoms: N_10  and  C_11
REMARK    7  A    between atoms: C_11  and  C_12
REMARK                            x       y       z     vdW  Elec       q    Type
REMARK                         _______ _______ _______ _____ _____    ______ ____
ROOT
ATOM      1  C   UNL     1       3.945   5.933  18.381  0.00  0.00    +0.000 C 
ENDROOT
BRANCH   1   3
ATOM      2  C   UNL     1       2.654   8.128  17.917  0.00  0.00    +0.000 C 
ATOM      3  C   UNL     1       3.827   7.231  17.550  0.00  0.00    +0.000 C 
ENDBRANCH   1   3
BRANCH   1   4
ATOM      4  N   UNL     1       5.342   5.449  18.369  0.00  0.00    +0.000 NA
ATOM      5  H   UNL     1       5.696   5.349  19.320  0.00  0.00    +0.000 HD
BRANCH   4   6
ATOM      6  C   UNL     1       5.517   4.172  17.673  0.00  0.00    +0.000 C 
BRANCH   6   7
ATOM      7  C   UNL     1       6.088   4.399  16.317  0.00  0.00    +0.000 A 
ATOM      8  C   UNL     1       7.101   5.199  15.838  0.00  0.00    +0.000 A 
ATOM      9  C   UNL     1       7.154   4.970  14.442  0.00  0.00    +0.000 A 
ATOM     10  C   UNL     1       6.168   4.045  14.155  0.00  0.00    +0.000 A 
ATOM     11 CL   UNL     1       5.774   3.400  12.612  0.00  0.00    +0.000 Cl
ATOM     12  O   UNL     1       5.522   3.692  15.298  0.00  0.00    +0.000 OA
ENDBRANCH   6   7
ENDBRANCH   4   6
ENDBRANCH   1   4
BRANCH   1  13
ATOM     13  C   UNL     1       3.002   4.825  17.844  0.00  0.00    +0.000 C 
BRANCH  13  14
ATOM     14  N   UNL     1       2.183   4.201  18.870  0.00  0.00    +0.000 N 
ATOM     15  C   UNL     1       2.109   4.565  20.185  0.00  0.00    +0.000 A 
ATOM     16  C   UNL     1       1.184   3.709  20.738  0.00  0.00    +0.000 A 
ATOM     17  N   UNL     1       0.675   2.862  19.788  0.00  0.00    +0.000 NA
ATOM     18  C   UNL     1       1.292   3.185  18.673  0.00  0.00    +0.000 A 
ENDBRANCH  13  14
ENDBRANCH   1  13
TORSDOF 6
ENDMDL
MODEL 9
REMARK VINA RESULT:      -5.9      2.429      2.919
REMARK  Name = 
REMARK  7 active torsions:
REMARK  status: ('A' for Active; 'I' for Inactive)
REMARK    1  A    between atoms: C_1  and  C_2
REMARK    2  A    between atoms: C_2  and  C_3
REMARK    3  A    between atoms: C_3  and  C_4
REMARK    4  A    between atoms: C_3  and  N_10
REMARK    5  A    between atoms: C_4  and  N_5
REMARK    6  A    between atoms: N_10  and  C_11
REMARK    7  A    between atoms: C_11  and  C_12
REMARK                            x       y       z     vdW  Elec       q    Type
REMARK                         _______ _______ _______ _____ _____    ______ ____
ROOT
ATOM      1  C   UNL     1       3.672   4.154  17.687  0.00  0.00    +0.000 C 
ENDROOT
BRANCH   1   3
ATOM      2  C   UNL     1       3.352   6.505  18.721  0.00  0.00    +0.000 C 
ATOM      3  C   UNL     1       2.791   5.419  17.817  0.00  0.00    +0.000 C 
ENDBRANCH   1   3
BRANCH   1   4
ATOM      4  N   UNL     1       4.211   4.052  16.314  0.00  0.00    +0.000 NA
ATOM      5  H   UNL     1       4.012   4.901  15.785  0.00  0.00    +0.000 HD
BRANCH   4   6
ATOM      6  C   UNL     1       5.654   3.804  16.265  0.00  0.00    +0.000 C 
BRANCH   6   7
ATOM      7  C   UNL     1       6.384   4.859  17.019  0.00  0.00    +0.000 A 
ATOM      8  C   UNL     1       6.636   6.192  16.778  0.00  0.00    +0.000 A 
ATOM      9  C   UNL     1       7.398   6.650  17.880  0.00  0.00    +0.000 A 
ATOM     10  C   UNL     1       7.566   5.569  18.723  0.00  0.00    +0.000 A 
ATOM     11 CL   UNL     1       8.418   5.545  20.215  0.00  0.00    +0.000 Cl
ATOM     12  O   UNL     1       6.943   4.479  18.202  0.00  0.00    +0.000 OA
ENDBRANCH   6   7
ENDBRANCH   4   6
ENDBRANCH   1   4
BRANCH   1  13
ATOM     13  C   UNL     1       2.878   2.868  18.036  0.00  0.00    +0.000 C 
BRANCH  13  14
ATOM     14  N   UNL     1       2.462   2.793  19.426  0.00  0.00    +0.000 N 
ATOM     15  C   UNL     1       3.281   2.749  20.519  0.00  0.00    +0.000 A 
ATOM     16  C   UNL     1       2.429   2.717  21.600  0.00  0.00    +0.000 A 
ATOM     17  N   UNL     1       1.122   2.774  21.190  0.00  0.00    +0.000 NA
ATOM     18  C   UNL     1       1.173   2.823  19.878  0.00  0.00    +0.000 A 
ENDBRANCH  13  14
ENDBRANCH   1  13
TORSDOF 6
ENDMDL
