MODEL 1
REMARK VINA RESULT:      -8.2      0.000      0.000
REMARK  Name = 
REMARK  8 active torsions:
REMARK  status: ('A' for Active; 'I' for Inactive)
REMARK    1  A    between atoms: C_1  and  N_2
REMARK    2  A    between atoms: C_4  and  C_5
REMARK    3  A    between atoms: C_7  and  C_8
REMARK    4  A    between atoms: N_10  and  C_11
REMARK    5  A    between atoms: N_14  and  C_15
REMARK    6  A    between atoms: C_16  and  N_17
REMARK    7  A    between atoms: C_21  and  N_22
REMARK    8  A    between atoms: C_25  and  N_26
REMARK                            x       y       z     vdW  Elec       q    Type
REMARK                         _______ _______ _______ _____ _____    ______ ____
ROOT
ATOM      1  C   UNL     1       2.557   7.976  18.252  0.00  0.00    +0.000 C 
ATOM      2  O   UNL     1       2.455   8.517  17.150  0.00  0.00    +0.000 OA
ATOM      3  N   UNL     1       3.399   6.900  18.527  0.00  0.00    +0.000 N 
ATOM      4  H   UNL     1       3.390   6.539  19.470  0.00  0.00    +0.000 HD
ENDROOT
BRANCH   3   5
ATOM      5  C   UNL     1       4.251   6.310  17.584  0.00  0.00    +0.000 A 
ATOM      6  C   UNL     1       5.183   6.976  16.753  0.00  0.00    +0.000 A 
ATOM      7  N   UNL     1       5.891   6.148  15.998  0.00  0.00    +0.000 NA
ATOM      8  N   UNL     1       5.391   4.937  16.289  0.00  0.00    +0.000 N 
ATOM      9  C   UNL     1       5.910   3.851  15.486  0.00  0.00    +0.000 C 
ATOM     10  C   UNL     1       4.387   4.946  17.263  0.00  0.00    +0.000 A 
BRANCH  10  11
ATOM     11  N   UNL     1       3.701   3.812  17.678  0.00  0.00    +0.000 N 
ATOM     12  C   UNL     1       2.370   3.495  17.146  0.00  0.00    +0.000 C 
ATOM     13  C   UNL     1       1.286   3.592  18.227  0.00  0.00    +0.000 C 
ATOM     14  C   UNL     1       1.340   2.422  19.217  0.00  0.00    +0.000 C 
ATOM     15  C   UNL     1       2.311   2.591  20.398  0.00  0.00    +0.000 C 
ATOM     16  C   UNL     1       3.662   3.238  20.071  0.00  0.00    +0.000 C 
ATOM     17  C   UNL     1       4.194   2.868  18.693  0.00  0.00    +0.000 C 
BRANCH  15  18
ATOM     18  N   UNL     1       1.665   3.347  21.477  0.00  0.00    +0.000 NA
ATOM     19  H   UNL     1       1.363   2.703  22.208  0.00  0.00    +0.000 HD
ATOM     20  H   UNL     1       0.809   3.779  21.126  0.00  0.00    +0.000 HD
ENDBRANCH  15  18
ENDBRANCH  10  11
ENDBRANCH   3   5
BRANCH   1  23
ATOM     21  C   UNL     1       0.452   9.830  20.561  0.00  0.00    +0.000 A 
ATOM     22  N   UNL     1       1.066   9.667  19.401  0.00  0.00    +0.000 NA
ATOM     23  C   UNL     1       1.733   8.426  19.396  0.00  0.00    +0.000 A 
ATOM     24  C   UNL     1       1.556   7.670  20.556  0.00  0.00    +0.000 A 
ATOM     25  S   UNL     1       0.598   8.535  21.671  0.00  0.00    +0.000 S 
BRANCH  21  29
ATOM     26  C   UNL     1      -1.797  13.550  23.052  0.00  0.00    +0.000 C 
ATOM     27  N   UNL     1      -1.283  12.681  22.023  0.00  0.00    +0.000 N 
ATOM     28  C   UNL     1      -0.477  11.589  22.184  0.00  0.00    +0.000 A 
ATOM     29  C   UNL     1      -0.319  11.053  20.926  0.00  0.00    +0.000 A 
ATOM     30  C   UNL     1      -1.046  11.915  20.077  0.00  0.00    +0.000 A 
ATOM     31  N   UNL     1      -1.639  12.906  20.745  0.00  0.00    +0.000 NA
ENDBRANCH  21  29
BRANCH  24  32
ATOM     32  N   UNL     1       2.018   6.449  20.898  0.00  0.00    +0.000 N 
ATOM     33  H   UNL     1       2.096   5.707  20.203  0.00  0.00    +0.000 HD
ATOM     34  H   UNL     1       2.538   6.305  21.757  0.00  0.00    +0.000 HD
ENDBRANCH  24  32
ENDBRANCH   1  23
TORSDOF 6
ENDMDL
MODEL 2
REMARK VINA RESULT:      -7.7      2.475      8.715
REMARK  Name = 
REMARK  8 active torsions:
REMARK  status: ('A' for Active; 'I' for Inactive)
REMARK    1  A    between atoms: C_1  and  N_2
REMARK    2  A    between atoms: C_4  and  C_5
REMARK    3  A    between atoms: C_7  and  C_8
REMARK    4  A    between atoms: N_10  and  C_11
REMARK    5  A    between atoms: N_14  and  C_15
REMARK    6  A    between atoms: C_16  and  N_17
REMARK    7  A    between atoms: C_21  and  N_22
REMARK    8  A    between atoms: C_25  and  N_26
REMARK                            x       y       z     vdW  Elec       q    Type
REMARK                         _______ _______ _______ _____ _____    ______ ____
ROOT
ATOM      1  C   UNL     1       1.949   6.302  20.039  0.00  0.00    +0.000 C 
ATOM      2  O   UNL     1       1.296   5.756  20.929  0.00  0.00    +0.000 OA
ATOM      3  N   UNL     1       2.077   7.682  19.887  0.00  0.00    +0.000 N 
ATOM      4  H   UNL     1       2.635   8.009  19.112  0.00  0.00    +0.000 HD
ENDROOT
BRANCH   3   5
ATOM      5  C   UNL     1       1.491   8.622  20.745  0.00  0.00    +0.000 A 
ATOM      6  C   UNL     1       1.447   8.566  22.158  0.00  0.00    +0.000 A 
ATOM      7  N   UNL     1       0.872   9.628  22.703  0.00  0.00    +0.000 NA
ATOM      8  N   UNL     1       0.487  10.365  21.649  0.00  0.00    +0.000 N 
ATOM      9  C   UNL     1      -0.298  11.536  21.974  0.00  0.00    +0.000 C 
ATOM     10  C   UNL     1       0.838   9.824  20.407  0.00  0.00    +0.000 A 
BRANCH  10  11
ATOM     11  N   UNL     1       0.496  10.396  19.189  0.00  0.00    +0.000 N 
ATOM     12  C   UNL     1       0.977  11.732  18.820  0.00  0.00    +0.000 C 
ATOM     13  C   UNL     1      -0.171  12.746  18.729  0.00  0.00    +0.000 C 
ATOM     14  C   UNL     1      -1.037  12.541  17.480  0.00  0.00    +0.000 C 
ATOM     15  C   UNL     1      -2.169  11.509  17.615  0.00  0.00    +0.000 C 
ATOM     16  C   UNL     1      -1.828  10.234  18.395  0.00  0.00    +0.000 C 
ATOM     17  C   UNL     1      -0.392   9.769  18.197  0.00  0.00    +0.000 C 
BRANCH  15  18
ATOM     18  N   UNL     1      -3.353  12.136  18.214  0.00  0.00    +0.000 NA
ATOM     19  H   UNL     1      -3.082  12.629  19.065  0.00  0.00    +0.000 HD
ATOM     20  H   UNL     1      -4.006  11.411  18.518  0.00  0.00    +0.000 HD
ENDBRANCH  15  18
ENDBRANCH  10  11
ENDBRANCH   3   5
BRANCH   1  23
ATOM     21  C   UNL     1       4.172   5.067  17.443  0.00  0.00    +0.000 A 
ATOM     22  N   UNL     1       3.799   5.959  18.347  0.00  0.00    +0.000 NA
ATOM     23  C   UNL     1       2.641   5.499  19.005  0.00  0.00    +0.000 A 
ATOM     24  C   UNL     1       2.206   4.238  18.597  0.00  0.00    +0.000 A 
ATOM     25  S   UNL     1       3.214   3.651  17.352  0.00  0.00    +0.000 S 
BRANCH  21  29
ATOM     26  C   UNL     1       7.355   4.851  13.580  0.00  0.00    +0.000 C 
ATOM     27  N   UNL     1       6.712   5.160  14.833  0.00  0.00    +0.000 N 
ATOM     28  C   UNL     1       5.471   4.768  15.249  0.00  0.00    +0.000 A 
ATOM     29  C   UNL     1       5.338   5.249  16.531  0.00  0.00    +0.000 A 
ATOM     30  C   UNL     1       6.543   5.941  16.780  0.00  0.00    +0.000 A 
ATOM     31  N   UNL     1       7.385   5.883  15.746  0.00  0.00    +0.000 NA
ENDBRANCH  21  29
BRANCH  24  32
ATOM     32  N   UNL     1       1.165   3.483  19.008  0.00  0.00    +0.000 N 
ATOM     33  H   UNL     1       1.316   2.551  19.393  0.00  0.00    +0.000 HD
ATOM     34  H   UNL     1       0.258   3.896  19.196  0.00  0.00    +0.000 HD
ENDBRANCH  24  32
ENDBRANCH   1  23
TORSDOF 6
ENDMDL
MODEL 3
REMARK VINA RESULT:      -7.7      2.297      8.652
REMARK  Name = 
REMARK  8 active torsions:
REMARK  status: ('A' for Active; 'I' for Inactive)
REMARK    1  A    between atoms: C_1  and  N_2
REMARK    2  A    between atoms: C_4  and  C_5
REMARK    3  A    between atoms: C_7  and  C_8
REMARK    4  A    between atoms: N_10  and  C_11
REMARK    5  A    between atoms: N_14  and  C_15
REMARK    6  A    between atoms: C_16  and  N_17
REMARK    7  A    between atoms: C_21  and  N_22
REMARK    8  A    between atoms: C_25  and  N_26
REMARK                            x       y       z     vdW  Elec       q    Type
REMARK                         _______ _______ _______ _____ _____    ______ ____
ROOT
ATOM      1  C   UNL     1       1.331   6.891  20.713  0.00  0.00    +0.000 C 
ATOM      2  O   UNL     1       0.189   6.483  20.921  0.00  0.00    +0.000 OA
ATOM      3  N   UNL     1       1.796   8.155  21.075  0.00  0.00    +0.000 N 
ATOM      4  H   UNL     1       2.754   8.375  20.844  0.00  0.00    +0.000 HD
ENDROOT
BRANCH   3   5
ATOM      5  C   UNL     1       1.022   9.113  21.741  0.00  0.00    +0.000 A 
ATOM      6  C   UNL     1       0.655   9.103  23.108  0.00  0.00    +0.000 A 
ATOM      7  N   UNL     1      -0.038  10.174  23.469  0.00  0.00    +0.000 NA
ATOM      8  N   UNL     1      -0.175  10.870  22.329  0.00  0.00    +0.000 N 
ATOM      9  C   UNL     1      -1.022  12.038  22.424  0.00  0.00    +0.000 C 
ATOM     10  C   UNL     1       0.456  10.293  21.221  0.00  0.00    +0.000 A 
BRANCH  10  11
ATOM     11  N   UNL     1       0.399  10.820  19.938  0.00  0.00    +0.000 N 
ATOM     12  C   UNL     1       0.826  12.197  19.665  0.00  0.00    +0.000 C 
ATOM     13  C   UNL     1      -0.350  13.085  19.238  0.00  0.00    +0.000 C 
ATOM     14  C   UNL     1      -0.824  12.785  17.811  0.00  0.00    +0.000 C 
ATOM     15  C   UNL     1      -1.843  11.641  17.674  0.00  0.00    +0.000 C 
ATOM     16  C   UNL     1      -1.599  10.413  18.558  0.00  0.00    +0.000 C 
ATOM     17  C   UNL     1      -0.123  10.098  18.766  0.00  0.00    +0.000 C 
BRANCH  15  18
ATOM     18  N   UNL     1      -3.200  12.144  17.914  0.00  0.00    +0.000 NA
ATOM     19  H   UNL     1      -3.159  12.939  18.552  0.00  0.00    +0.000 HD
ATOM     20  H   UNL     1      -3.746  11.433  18.403  0.00  0.00    +0.000 HD
ENDBRANCH  15  18
ENDBRANCH  10  11
ENDBRANCH   3   5
BRANCH   1  23
ATOM     21  C   UNL     1       3.763   5.519  18.388  0.00  0.00    +0.000 A 
ATOM     22  N   UNL     1       2.981   6.486  18.837  0.00  0.00    +0.000 NA
ATOM     23  C   UNL     1       2.319   6.049  20.002  0.00  0.00    +0.000 A 
ATOM     24  C   UNL     1       2.669   4.763  20.417  0.00  0.00    +0.000 A 
ATOM     25  S   UNL     1       3.785   4.083  19.320  0.00  0.00    +0.000 S 
BRANCH  21  29
ATOM     26  C   UNL     1       6.724   4.547  14.465  0.00  0.00    +0.000 C 
ATOM     27  N   UNL     1       5.861   5.184  15.428  0.00  0.00    +0.000 N 
ATOM     28  C   UNL     1       5.221   4.600  16.485  0.00  0.00    +0.000 A 
ATOM     29  C   UNL     1       4.581   5.624  17.145  0.00  0.00    +0.000 A 
ATOM     30  C   UNL     1       4.875   6.778  16.387  0.00  0.00    +0.000 A 
ATOM     31  N   UNL     1       5.661   6.512  15.342  0.00  0.00    +0.000 NA
ENDBRANCH  21  29
BRANCH  24  32
ATOM     32  N   UNL     1       2.264   4.032  21.477  0.00  0.00    +0.000 N 
ATOM     33  H   UNL     1       1.356   3.569  21.476  0.00  0.00    +0.000 HD
ATOM     34  H   UNL     1       2.926   3.703  22.172  0.00  0.00    +0.000 HD
ENDBRANCH  24  32
ENDBRANCH   1  23
TORSDOF 6
ENDMDL
MODEL 4
REMARK VINA RESULT:      -7.6      3.194      4.105
REMARK  Name = 
REMARK  8 active torsions:
REMARK  status: ('A' for Active; 'I' for Inactive)
REMARK    1  A    between atoms: C_1  and  N_2
REMARK    2  A    between atoms: C_4  and  C_5
REMARK    3  A    between atoms: C_7  and  C_8
REMARK    4  A    between atoms: N_10  and  C_11
REMARK    5  A    between atoms: N_14  and  C_15
REMARK    6  A    between atoms: C_16  and  N_17
REMARK    7  A    between atoms: C_21  and  N_22
REMARK    8  A    between atoms: C_25  and  N_26
REMARK                            x       y       z     vdW  Elec       q    Type
REMARK                         _______ _______ _______ _____ _____    ______ ____
ROOT
ATOM      1  C   UNL     1       1.521   8.860  18.966  0.00  0.00    +0.000 C 
ATOM      2  O   UNL     1       1.903   8.631  20.113  0.00  0.00    +0.000 OA
ATOM      3  N   UNL     1       2.128   8.356  17.817  0.00  0.00    +0.000 N 
ATOM      4  H   UNL     1       1.725   8.621  16.930  0.00  0.00    +0.000 HD
ENDROOT
BRANCH   3   5
ATOM      5  C   UNL     1       3.242   7.507  17.827  0.00  0.00    +0.000 A 
ATOM      6  C   UNL     1       4.545   7.816  17.370  0.00  0.00    +0.000 A 
ATOM      7  N   UNL     1       5.410   6.829  17.558  0.00  0.00    +0.000 NA
ATOM      8  N   UNL     1       4.669   5.846  18.092  0.00  0.00    +0.000 N 
ATOM      9  C   UNL     1       5.359   4.588  18.273  0.00  0.00    +0.000 C 
ATOM     10  C   UNL     1       3.327   6.183  18.301  0.00  0.00    +0.000 A 
BRANCH  10  11
ATOM     11  N   UNL     1       2.376   5.302  18.797  0.00  0.00    +0.000 N 
ATOM     12  C   UNL     1       2.189   5.125  20.242  0.00  0.00    +0.000 C 
ATOM     13  C   UNL     1       2.594   3.718  20.701  0.00  0.00    +0.000 C 
ATOM     14  C   UNL     1       1.578   2.649  20.280  0.00  0.00    +0.000 C 
ATOM     15  C   UNL     1       1.764   2.071  18.868  0.00  0.00    +0.000 C 
ATOM     16  C   UNL     1       2.152   3.073  17.775  0.00  0.00    +0.000 C 
ATOM     17  C   UNL     1       1.520   4.446  17.960  0.00  0.00    +0.000 C 
BRANCH  15  18
ATOM     18  N   UNL     1       2.749   0.984  18.894  0.00  0.00    +0.000 NA
ATOM     19  H   UNL     1       3.601   1.287  18.421  0.00  0.00    +0.000 HD
ATOM     20  H   UNL     1       2.402   0.195  18.347  0.00  0.00    +0.000 HD
ENDBRANCH  15  18
ENDBRANCH  10  11
ENDBRANCH   3   5
BRANCH   1  23
ATOM     21  C   UNL     1      -1.445  10.493  17.647  0.00  0.00    +0.000 A 
ATOM     22  N   UNL     1      -0.551   9.519  17.671  0.00  0.00    +0.000 NA
ATOM     23  C   UNL     1       0.366   9.752  18.715  0.00  0.00    +0.000 A 
ATOM     24  C   UNL     1       0.096  10.889  19.478  0.00  0.00    +0.000 A 
ATOM     25  S   UNL     1      -1.274  11.693  18.856  0.00  0.00    +0.000 S 
BRANCH  21  29
ATOM     26  C   UNL     1      -4.261  10.061  13.526  0.00  0.00    +0.000 C 
ATOM     27  N   UNL     1      -3.769  10.379  14.843  0.00  0.00    +0.000 N 
ATOM     28  C   UNL     1      -2.595   9.970  15.412  0.00  0.00    +0.000 A 
ATOM     29  C   UNL     1      -2.541  10.588  16.641  0.00  0.00    +0.000 A 
ATOM     30  C   UNL     1      -3.744  11.323  16.724  0.00  0.00    +0.000 A 
ATOM     31  N   UNL     1      -4.491  11.201  15.626  0.00  0.00    +0.000 NA
ENDBRANCH  21  29
BRANCH  24  32
ATOM     32  N   UNL     1       0.732  11.409  20.549  0.00  0.00    +0.000 N 
ATOM     33  H   UNL     1       0.217  11.652  21.395  0.00  0.00    +0.000 HD
ATOM     34  H   UNL     1       1.738  11.328  20.653  0.00  0.00    +0.000 HD
ENDBRANCH  24  32
ENDBRANCH   1  23
TORSDOF 6
ENDMDL
MODEL 5
REMARK VINA RESULT:      -7.5      2.919      9.098
REMARK  Name = 
REMARK  8 active torsions:
REMARK  status: ('A' for Active; 'I' for Inactive)
REMARK    1  A    between atoms: C_1  and  N_2
REMARK    2  A    between atoms: C_4  and  C_5
REMARK    3  A    between atoms: C_7  and  C_8
REMARK    4  A    between atoms: N_10  and  C_11
REMARK    5  A    between atoms: N_14  and  C_15
REMARK    6  A    between atoms: C_16  and  N_17
REMARK    7  A    between atoms: C_21  and  N_22
REMARK    8  A    between atoms: C_25  and  N_26
REMARK                            x       y       z     vdW  Elec       q    Type
REMARK                         _______ _______ _______ _____ _____    ______ ____
ROOT
ATOM      1  C   UNL     1       1.712   8.300  19.288  0.00  0.00    +0.000 C 
ATOM      2  O   UNL     1       1.337   8.531  20.437  0.00  0.00    +0.000 OA
ATOM      3  N   UNL     1       1.258   8.980  18.158  0.00  0.00    +0.000 N 
ATOM      4  H   UNL     1       1.638   8.694  17.267  0.00  0.00    +0.000 HD
ENDROOT
BRANCH   3   5
ATOM      5  C   UNL     1       0.329  10.026  18.194  0.00  0.00    +0.000 A 
ATOM      6  C   UNL     1      -1.016   9.980  17.754  0.00  0.00    +0.000 A 
ATOM      7  N   UNL     1      -1.672  11.112  17.964  0.00  0.00    +0.000 NA
ATOM      8  N   UNL     1      -0.748  11.928  18.497  0.00  0.00    +0.000 N 
ATOM      9  C   UNL     1      -1.181  13.292  18.700  0.00  0.00    +0.000 C 
ATOM     10  C   UNL     1       0.506  11.336  18.682  0.00  0.00    +0.000 A 
BRANCH  10  11
ATOM     11  N   UNL     1       1.616  12.012  19.171  0.00  0.00    +0.000 N 
ATOM     12  C   UNL     1       1.777  12.261  20.609  0.00  0.00    +0.000 C 
ATOM     13  C   UNL     1       1.695  13.756  20.941  0.00  0.00    +0.000 C 
ATOM     14  C   UNL     1       2.951  14.523  20.509  0.00  0.00    +0.000 C 
ATOM     15  C   UNL     1       2.967  15.009  19.050  0.00  0.00    +0.000 C 
ATOM     16  C   UNL     1       2.401  14.036  18.010  0.00  0.00    +0.000 C 
ATOM     17  C   UNL     1       2.685  12.574  18.330  0.00  0.00    +0.000 C 
BRANCH  15  18
ATOM     18  N   UNL     1       2.264  16.292  18.939  0.00  0.00    +0.000 NA
ATOM     19  H   UNL     1       2.368  16.812  19.811  0.00  0.00    +0.000 HD
ATOM     20  H   UNL     1       1.261  16.125  18.842  0.00  0.00    +0.000 HD
ENDBRANCH  15  18
ENDBRANCH  10  11
ENDBRANCH   3   5
BRANCH   1  23
ATOM     21  C   UNL     1       4.299   6.163  17.894  0.00  0.00    +0.000 A 
ATOM     22  N   UNL     1       3.591   7.280  17.935  0.00  0.00    +0.000 NA
ATOM     23  C   UNL     1       2.683   7.218  19.010  0.00  0.00    +0.000 A 
ATOM     24  C   UNL     1       2.774   6.056  19.778  0.00  0.00    +0.000 A 
ATOM     25  S   UNL     1       3.959   5.019  19.122  0.00  0.00    +0.000 S 
BRANCH  21  29
ATOM     26  C   UNL     1       6.739   4.435  13.874  0.00  0.00    +0.000 C 
ATOM     27  N   UNL     1       6.377   5.123  15.088  0.00  0.00    +0.000 N 
ATOM     28  C   UNL     1       5.155   5.143  15.699  0.00  0.00    +0.000 A 
ATOM     29  C   UNL     1       5.327   5.870  16.854  0.00  0.00    +0.000 A 
ATOM     30  C   UNL     1       6.682   6.266  16.829  0.00  0.00    +0.000 A 
ATOM     31  N   UNL     1       7.326   5.806  15.754  0.00  0.00    +0.000 NA
ENDBRANCH  21  29
BRANCH  24  32
ATOM     32  N   UNL     1       2.093   5.662  20.874  0.00  0.00    +0.000 N 
ATOM     33  H   UNL     1       2.043   4.676  21.132  0.00  0.00    +0.000 HD
ATOM     34  H   UNL     1       1.846   6.322  21.604  0.00  0.00    +0.000 HD
ENDBRANCH  24  32
ENDBRANCH   1  23
TORSDOF 6
ENDMDL
MODEL 6
REMARK VINA RESULT:      -7.5      1.904      3.834
REMARK  Name = 
REMARK  8 active torsions:
REMARK  status: ('A' for Active; 'I' for Inactive)
REMARK    1  A    between atoms: C_1  and  N_2
REMARK    2  A    between atoms: C_4  and  C_5
REMARK    3  A    between atoms: C_7  and  C_8
REMARK    4  A    between atoms: N_10  and  C_11
REMARK    5  A    between atoms: N_14  and  C_15
REMARK    6  A    between atoms: C_16  and  N_17
REMARK    7  A    between atoms: C_21  and  N_22
REMARK    8  A    between atoms: C_25  and  N_26
REMARK                            x       y       z     vdW  Elec       q    Type
REMARK                         _______ _______ _______ _____ _____    ______ ____
ROOT
ATOM      1  C   UNL     1       1.695   8.032  19.099  0.00  0.00    +0.000 C 
ATOM      2  O   UNL     1       1.663   7.657  17.927  0.00  0.00    +0.000 OA
ATOM      3  N   UNL     1       2.014   7.214  20.181  0.00  0.00    +0.000 N 
ATOM      4  H   UNL     1       2.000   7.638  21.097  0.00  0.00    +0.000 HD
ENDROOT
BRANCH   3   5
ATOM      5  C   UNL     1       2.357   5.861  20.066  0.00  0.00    +0.000 A 
ATOM      6  C   UNL     1       1.736   4.772  20.722  0.00  0.00    +0.000 A 
ATOM      7  N   UNL     1       2.243   3.597  20.376  0.00  0.00    +0.000 NA
ATOM      8  N   UNL     1       3.236   3.911  19.528  0.00  0.00    +0.000 N 
ATOM      9  C   UNL     1       4.050   2.795  19.099  0.00  0.00    +0.000 C 
ATOM     10  C   UNL     1       3.368   5.281  19.275  0.00  0.00    +0.000 A 
BRANCH  10  11
ATOM     11  N   UNL     1       4.358   5.827  18.469  0.00  0.00    +0.000 N 
ATOM     12  C   UNL     1       4.243   5.800  17.006  0.00  0.00    +0.000 C 
ATOM     13  C   UNL     1       5.311   4.903  16.367  0.00  0.00    +0.000 C 
ATOM     14  C   UNL     1       6.707   5.537  16.402  0.00  0.00    +0.000 C 
ATOM     15  C   UNL     1       7.512   5.307  17.692  0.00  0.00    +0.000 C 
ATOM     16  C   UNL     1       6.721   5.388  19.003  0.00  0.00    +0.000 C 
ATOM     17  C   UNL     1       5.605   6.423  18.975  0.00  0.00    +0.000 C 
BRANCH  15  18
ATOM     18  N   UNL     1       8.207   4.016  17.629  0.00  0.00    +0.000 NA
ATOM     19  H   UNL     1       7.980   3.468  18.459  0.00  0.00    +0.000 HD
ATOM     20  H   UNL     1       9.216   4.169  17.673  0.00  0.00    +0.000 HD
ENDBRANCH  15  18
ENDBRANCH  10  11
ENDBRANCH   3   5
BRANCH   1  23
ATOM     21  C   UNL     1       0.442  11.051  20.686  0.00  0.00    +0.000 A 
ATOM     22  N   UNL     1       0.665   9.748  20.647  0.00  0.00    +0.000 NA
ATOM     23  C   UNL     1       1.348   9.426  19.458  0.00  0.00    +0.000 A 
ATOM     24  C   UNL     1       1.659  10.524  18.654  0.00  0.00    +0.000 A 
ATOM     25  S   UNL     1       1.049  11.951  19.362  0.00  0.00    +0.000 S 
BRANCH  21  29
ATOM     26  C   UNL     1      -1.414  14.443  23.872  0.00  0.00    +0.000 C 
ATOM     27  N   UNL     1      -1.114  13.225  23.161  0.00  0.00    +0.000 N 
ATOM     28  C   UNL     1      -0.341  13.085  22.042  0.00  0.00    +0.000 A 
ATOM     29  C   UNL     1      -0.298  11.734  21.786  0.00  0.00    +0.000 A 
ATOM     30  C   UNL     1      -1.100  11.153  22.792  0.00  0.00    +0.000 A 
ATOM     31  N   UNL     1      -1.595  12.061  23.635  0.00  0.00    +0.000 NA
ENDBRANCH  21  29
BRANCH  24  32
ATOM     32  N   UNL     1       2.311  10.604  17.475  0.00  0.00    +0.000 N 
ATOM     33  H   UNL     1       2.938  11.383  17.277  0.00  0.00    +0.000 HD
ATOM     34  H   UNL     1       2.412   9.792  16.876  0.00  0.00    +0.000 HD
ENDBRANCH  24  32
ENDBRANCH   1  23
TORSDOF 6
ENDMDL
MODEL 7
REMARK VINA RESULT:      -7.5      1.693      1.700
REMARK  Name = 
REMARK  8 active torsions:
REMARK  status: ('A' for Active; 'I' for Inactive)
REMARK    1  A    between atoms: C_1  and  N_2
REMARK    2  A    between atoms: C_4  and  C_5
REMARK    3  A    between atoms: C_7  and  C_8
REMARK    4  A    between atoms: N_10  and  C_11
REMARK    5  A    between atoms: N_14  and  C_15
REMARK    6  A    between atoms: C_16  and  N_17
REMARK    7  A    between atoms: C_21  and  N_22
REMARK    8  A    between atoms: C_25  and  N_26
REMARK                            x       y       z     vdW  Elec       q    Type
REMARK                         _______ _______ _______ _____ _____    ______ ____
ROOT
ATOM      1  C   UNL     1       3.182   6.930  18.915  0.00  0.00    +0.000 C 
ATOM      2  O   UNL     1       3.834   6.215  19.676  0.00  0.00    +0.000 OA
ATOM      3  N   UNL     1       3.373   6.996  17.536  0.00  0.00    +0.000 N 
ATOM      4  H   UNL     1       2.778   7.627  17.019  0.00  0.00    +0.000 HD
ENDROOT
BRANCH   3   5
ATOM      5  C   UNL     1       4.323   6.238  16.839  0.00  0.00    +0.000 A 
ATOM      6  C   UNL     1       5.374   6.733  16.033  0.00  0.00    +0.000 A 
ATOM      7  N   UNL     1       6.150   5.776  15.543  0.00  0.00    +0.000 NA
ATOM      8  N   UNL     1       5.581   4.642  15.982  0.00  0.00    +0.000 N 
ATOM      9  C   UNL     1       6.168   3.424  15.468  0.00  0.00    +0.000 C 
ATOM     10  C   UNL     1       4.459   4.836  16.795  0.00  0.00    +0.000 A 
BRANCH  10  11
ATOM     11  N   UNL     1       3.692   3.802  17.315  0.00  0.00    +0.000 N 
ATOM     12  C   UNL     1       2.260   3.695  17.011  0.00  0.00    +0.000 C 
ATOM     13  C   UNL     1       1.395   3.918  18.258  0.00  0.00    +0.000 C 
ATOM     14  C   UNL     1       1.438   2.726  19.223  0.00  0.00    +0.000 C 
ATOM     15  C   UNL     1       2.604   2.723  20.226  0.00  0.00    +0.000 C 
ATOM     16  C   UNL     1       3.963   3.177  19.681  0.00  0.00    +0.000 C 
ATOM     17  C   UNL     1       4.202   2.771  18.232  0.00  0.00    +0.000 C 
BRANCH  15  18
ATOM     18  N   UNL     1       2.261   3.535  21.399  0.00  0.00    +0.000 NA
ATOM     19  H   UNL     1       1.349   3.249  21.755  0.00  0.00    +0.000 HD
ATOM     20  H   UNL     1       2.148   4.510  21.118  0.00  0.00    +0.000 HD
ENDBRANCH  15  18
ENDBRANCH  10  11
ENDBRANCH   3   5
BRANCH   1  23
ATOM     21  C   UNL     1       0.830   9.643  19.474  0.00  0.00    +0.000 A 
ATOM     22  N   UNL     1       1.743   9.006  18.759  0.00  0.00    +0.000 NA
ATOM     23  C   UNL     1       2.133   7.834  19.438  0.00  0.00    +0.000 A 
ATOM     24  C   UNL     1       1.454   7.608  20.636  0.00  0.00    +0.000 A 
ATOM     25  S   UNL     1       0.367   8.887  20.938  0.00  0.00    +0.000 S 
BRANCH  21  29
ATOM     26  C   UNL     1      -0.069  14.513  18.714  0.00  0.00    +0.000 C 
ATOM     27  N   UNL     1      -0.149  13.074  18.733  0.00  0.00    +0.000 N 
ATOM     28  C   UNL     1       0.786  12.196  19.208  0.00  0.00    +0.000 A 
ATOM     29  C   UNL     1       0.226  10.946  19.074  0.00  0.00    +0.000 A 
ATOM     30  C   UNL     1      -1.035  11.181  18.482  0.00  0.00    +0.000 A 
ATOM     31  N   UNL     1      -1.267  12.479  18.279  0.00  0.00    +0.000 NA
ENDBRANCH  21  29
BRANCH  24  32
ATOM     32  N   UNL     1       1.544   6.600  21.530  0.00  0.00    +0.000 N 
ATOM     33  H   UNL     1       1.824   6.780  22.493  0.00  0.00    +0.000 HD
ATOM     34  H   UNL     1       1.095   5.706  21.361  0.00  0.00    +0.000 HD
ENDBRANCH  24  32
ENDBRANCH   1  23
TORSDOF 6
ENDMDL
MODEL 8
REMARK VINA RESULT:      -7.4      2.737      3.541
REMARK  Name = 
REMARK  8 active torsions:
REMARK  status: ('A' for Active; 'I' for Inactive)
REMARK    1  A    between atoms: C_1  and  N_2
REMARK    2  A    between atoms: C_4  and  C_5
REMARK    3  A    between atoms: C_7  and  C_8
REMARK    4  A    between atoms: N_10  and  C_11
REMARK    5  A    between atoms: N_14  and  C_15
REMARK    6  A    between atoms: C_16  and  N_17
REMARK    7  A    between atoms: C_21  and  N_22
REMARK    8  A    between atoms: C_25  and  N_26
REMARK                            x       y       z     vdW  Elec       q    Type
REMARK                         _______ _______ _______ _____ _____    ______ ____
ROOT
ATOM      1  C   UNL     1       1.576   8.867  19.236  0.00  0.00    +0.000 C 
ATOM      2  O   UNL     1       1.964   8.425  20.318  0.00  0.00    +0.000 OA
ATOM      3  N   UNL     1       2.098   8.493  17.999  0.00  0.00    +0.000 N 
ATOM      4  H   UNL     1       1.700   8.932  17.181  0.00  0.00    +0.000 HD
ENDROOT
BRANCH   3   5
ATOM      5  C   UNL     1       3.119   7.548  17.831  0.00  0.00    +0.000 A 
ATOM      6  C   UNL     1       4.394   7.773  17.260  0.00  0.00    +0.000 A 
ATOM      7  N   UNL     1       5.172   6.700  17.285  0.00  0.00    +0.000 NA
ATOM      8  N   UNL     1       4.394   5.749  17.826  0.00  0.00    +0.000 N 
ATOM      9  C   UNL     1       4.971   4.423  17.844  0.00  0.00    +0.000 C 
ATOM     10  C   UNL     1       3.119   6.189  18.200  0.00  0.00    +0.000 A 
BRANCH  10  11
ATOM     11  N   UNL     1       2.140   5.361  18.733  0.00  0.00    +0.000 N 
ATOM     12  C   UNL     1       1.934   5.269  20.183  0.00  0.00    +0.000 C 
ATOM     13  C   UNL     1       2.297   3.879  20.723  0.00  0.00    +0.000 C 
ATOM     14  C   UNL     1       1.257   2.815  20.350  0.00  0.00    +0.000 C 
ATOM     15  C   UNL     1       1.443   2.155  18.973  0.00  0.00    +0.000 C 
ATOM     16  C   UNL     1       1.869   3.086  17.832  0.00  0.00    +0.000 C 
ATOM     17  C   UNL     1       1.270   4.483  17.934  0.00  0.00    +0.000 C 
BRANCH  15  18
ATOM     18  N   UNL     1       2.399   1.047  19.071  0.00  0.00    +0.000 NA
ATOM     19  H   UNL     1       2.994   1.183  19.888  0.00  0.00    +0.000 HD
ATOM     20  H   UNL     1       3.031   1.069  18.269  0.00  0.00    +0.000 HD
ENDBRANCH  15  18
ENDBRANCH  10  11
ENDBRANCH   3   5
BRANCH   1  23
ATOM     21  C   UNL     1      -1.373  10.839  18.453  0.00  0.00    +0.000 A 
ATOM     22  N   UNL     1      -0.620   9.757  18.349  0.00  0.00    +0.000 NA
ATOM     23  C   UNL     1       0.514   9.895  19.175  0.00  0.00    +0.000 A 
ATOM     24  C   UNL     1       0.548  11.078  19.916  0.00  0.00    +0.000 A 
ATOM     25  S   UNL     1      -0.811  12.038  19.539  0.00  0.00    +0.000 S 
BRANCH  21  29
ATOM     26  C   UNL     1      -6.049  11.997  17.076  0.00  0.00    +0.000 C 
ATOM     27  N   UNL     1      -4.670  11.574  17.089  0.00  0.00    +0.000 N 
ATOM     28  C   UNL     1      -3.794  11.633  18.136  0.00  0.00    +0.000 A 
ATOM     29  C   UNL     1      -2.632  11.050  17.683  0.00  0.00    +0.000 A 
ATOM     30  C   UNL     1      -2.906  10.702  16.342  0.00  0.00    +0.000 A 
ATOM     31  N   UNL     1      -4.152  11.016  15.980  0.00  0.00    +0.000 NA
ENDBRANCH  21  29
BRANCH  24  32
ATOM     32  N   UNL     1       1.448  11.538  20.809  0.00  0.00    +0.000 N 
ATOM     33  H   UNL     1       2.317  11.972  20.499  0.00  0.00    +0.000 HD
ATOM     34  H   UNL     1       1.189  11.713  21.774  0.00  0.00    +0.000 HD
ENDBRANCH  24  32
ENDBRANCH   1  23
TORSDOF 6
ENDMDL
MODEL 9
REMARK VINA RESULT:      -7.3      2.593      9.505
REMARK  Name = 
REMARK  8 active torsions:
REMARK  status: ('A' for Active; 'I' for Inactive)
REMARK    1  A    between atoms: C_1  and  N_2
REMARK    2  A    between atoms: C_4  and  C_5
REMARK    3  A    between atoms: C_7  and  C_8
REMARK    4  A    between atoms: N_10  and  C_11
REMARK    5  A    between atoms: N_14  and  C_15
REMARK    6  A    between atoms: C_16  and  N_17
REMARK    7  A    between atoms: C_21  and  N_22
REMARK    8  A    between atoms: C_25  and  N_26
REMARK                            x       y       z     vdW  Elec       q    Type
REMARK                         _______ _______ _______ _____ _____    ______ ____
ROOT
ATOM      1  C   UNL     1       0.954   9.962  21.251  0.00  0.00    +0.000 C 
ATOM      2  O   UNL     1       1.440   9.809  22.371  0.00  0.00    +0.000 OA
ATOM      3  N   UNL     1      -0.064  10.865  20.949  0.00  0.00    +0.000 N 
ATOM      4  H   UNL     1      -0.383  10.894  19.991  0.00  0.00    +0.000 HD
ENDROOT
BRANCH   3   5
ATOM      5  C   UNL     1      -0.649  11.728  21.884  0.00  0.00    +0.000 A 
ATOM      6  C   UNL     1      -1.568  11.375  22.901  0.00  0.00    +0.000 A 
ATOM      7  N   UNL     1      -1.909  12.397  23.672  0.00  0.00    +0.000 NA
ATOM      8  N   UNL     1      -1.256  13.440  23.134  0.00  0.00    +0.000 N 
ATOM      9  C   UNL     1      -1.568  14.725  23.720  0.00  0.00    +0.000 C 
ATOM     10  C   UNL     1      -0.451  13.113  22.038  0.00  0.00    +0.000 A 
BRANCH  10  11
ATOM     11  N   UNL     1       0.271  14.045  21.304  0.00  0.00    +0.000 N 
ATOM     12  C   UNL     1      -0.379  14.867  20.277  0.00  0.00    +0.000 C 
ATOM     13  C   UNL     1       0.128  14.527  18.869  0.00  0.00    +0.000 C 
ATOM     14  C   UNL     1       1.546  15.051  18.614  0.00  0.00    +0.000 C 
ATOM     15  C   UNL     1       2.690  14.134  19.076  0.00  0.00    +0.000 C 
ATOM     16  C   UNL     1       2.484  13.425  20.420  0.00  0.00    +0.000 C 
ATOM     17  C   UNL     1       1.721  14.264  21.436  0.00  0.00    +0.000 C 
BRANCH  15  18
ATOM     18  N   UNL     1       2.980  13.131  18.044  0.00  0.00    +0.000 NA
ATOM     19  H   UNL     1       2.603  12.229  18.333  0.00  0.00    +0.000 HD
ATOM     20  H   UNL     1       3.990  12.994  17.977  0.00  0.00    +0.000 HD
ENDBRANCH  15  18
ENDBRANCH  10  11
ENDBRANCH   3   5
BRANCH   1  23
ATOM     21  C   UNL     1       2.234   7.331  19.096  0.00  0.00    +0.000 A 
ATOM     22  N   UNL     1       1.837   7.805  20.265  0.00  0.00    +0.000 NA
ATOM     23  C   UNL     1       1.410   9.139  20.108  0.00  0.00    +0.000 A 
ATOM     24  C   UNL     1       1.461   9.611  18.796  0.00  0.00    +0.000 A 
ATOM     25  S   UNL     1       2.092   8.404  17.769  0.00  0.00    +0.000 S 
BRANCH  21  29
ATOM     26  C   UNL     1       2.914   2.542  17.790  0.00  0.00    +0.000 C 
ATOM     27  N   UNL     1       3.082   3.875  18.312  0.00  0.00    +0.000 N 
ATOM     28  C   UNL     1       2.232   4.937  18.171  0.00  0.00    +0.000 A 
ATOM     29  C   UNL     1       2.789   5.961  18.902  0.00  0.00    +0.000 A 
ATOM     30  C   UNL     1       3.986   5.421  19.419  0.00  0.00    +0.000 A 
ATOM     31  N   UNL     1       4.164   4.146  19.065  0.00  0.00    +0.000 NA
ENDBRANCH  21  29
BRANCH  24  32
ATOM     32  N   UNL     1       1.121  10.807  18.270  0.00  0.00    +0.000 N 
ATOM     33  H   UNL     1       0.919  10.902  17.275  0.00  0.00    +0.000 HD
ATOM     34  H   UNL     1       0.801  11.568  18.860  0.00  0.00    +0.000 HD
ENDBRANCH  24  32
ENDBRANCH   1  23
TORSDOF 6
ENDMDL
