MODEL 1
REMARK VINA RESULT:      -6.9      0.000      0.000
REMARK  Name = 
REMARK  6 active torsions:
REMARK  status: ('A' for Active; 'I' for Inactive)
REMARK    1  A    between atoms: C_1  and  C_2
REMARK    2  A    between atoms: C_2  and  C_3
REMARK    3  A    between atoms: C_2  and  C_4
REMARK    4  A    between atoms: C_2  and  C_5
REMARK    5  A    between atoms: C_8  and  C_9
REMARK    6  A    between atoms: C_9  and  C_10
REMARK                            x       y       z     vdW  Elec       q    Type
REMARK                         _______ _______ _______ _____ _____    ______ ____
ROOT
ATOM      1  C   UNL     1       2.954   4.106  19.511  0.00  0.00    +0.000 A 
ATOM      2  C   UNL     1       2.600   5.335  18.924  0.00  0.00    +0.000 A 
ATOM      3  C   UNL     1       3.548   6.138  18.276  0.00  0.00    +0.000 A 
ATOM      4  C   UNL     1       4.883   5.739  18.197  0.00  0.00    +0.000 A 
ATOM      5  C   UNL     1       5.262   4.548  18.822  0.00  0.00    +0.000 A 
ATOM      6  C   UNL     1       4.314   3.751  19.473  0.00  0.00    +0.000 A 
ENDROOT
BRANCH   1   8
ATOM      7  C   UNL     1       1.558   1.963  19.329  0.00  0.00    +0.000 C 
ATOM      8  C   UNL     1       1.906   3.203  20.186  0.00  0.00    +0.000 C 
ATOM      9  C   UNL     1       0.623   4.023  20.412  0.00  0.00    +0.000 C 
ATOM     10  C   UNL     1       2.389   2.660  21.553  0.00  0.00    +0.000 C 
ENDBRANCH   1   8
BRANCH   4  11
ATOM     11  C   UNL     1       5.902   6.590  17.481  0.00  0.00    +0.000 C 
BRANCH  11  12
ATOM     12  C   UNL     1       6.351   6.027  16.152  0.00  0.00    +0.000 C 
ATOM     13  N   UNL     1       7.620   6.056  15.840  0.00  0.00    +0.000 NA
ATOM     14  O   UNL     1       7.778   5.388  14.589  0.00  0.00    +0.000 OA
ATOM     15  S   UNL     1       6.357   4.858  14.023  0.00  0.00    +0.000 S 
ATOM     16  O   UNL     1       6.314   3.365  14.129  0.00  0.00    +0.000 OA
ATOM     17  N   UNL     1       5.460   5.508  15.252  0.00  0.00    +0.000 N 
ATOM     18  H   UNL     1       4.717   4.935  15.636  0.00  0.00    +0.000 HD
ENDBRANCH  11  12
ENDBRANCH   4  11
TORSDOF 3
ENDMDL
MODEL 2
REMARK VINA RESULT:      -6.8      0.193      1.173
REMARK  Name = 
REMARK  6 active torsions:
REMARK  status: ('A' for Active; 'I' for Inactive)
REMARK    1  A    between atoms: C_1  and  C_2
REMARK    2  A    between atoms: C_2  and  C_3
REMARK    3  A    between atoms: C_2  and  C_4
REMARK    4  A    between atoms: C_2  and  C_5
REMARK    5  A    between atoms: C_8  and  C_9
REMARK    6  A    between atoms: C_9  and  C_10
REMARK                            x       y       z     vdW  Elec       q    Type
REMARK                         _______ _______ _______ _____ _____    ______ ____
ROOT
ATOM      1  C   UNL     1       2.952   4.126  19.420  0.00  0.00    +0.000 A 
ATOM      2  C   UNL     1       4.267   3.709  19.145  0.00  0.00    +0.000 A 
ATOM      3  C   UNL     1       5.173   4.538  18.470  0.00  0.00    +0.000 A 
ATOM      4  C   UNL     1       4.791   5.811  18.044  0.00  0.00    +0.000 A 
ATOM      5  C   UNL     1       3.472   6.219  18.261  0.00  0.00    +0.000 A 
ATOM      6  C   UNL     1       2.569   5.387  18.930  0.00  0.00    +0.000 A 
ENDROOT
BRANCH   1   8
ATOM      7  C   UNL     1       1.619   1.936  19.433  0.00  0.00    +0.000 C 
ATOM      8  C   UNL     1       1.968   3.234  20.199  0.00  0.00    +0.000 C 
ATOM      9  C   UNL     1       0.672   4.028  20.442  0.00  0.00    +0.000 C 
ATOM     10  C   UNL     1       2.535   2.787  21.568  0.00  0.00    +0.000 C 
ENDBRANCH   1   8
BRANCH   4  11
ATOM     11  C   UNL     1       5.770   6.714  17.336  0.00  0.00    +0.000 C 
BRANCH  11  12
ATOM     12  C   UNL     1       6.334   6.133  16.060  0.00  0.00    +0.000 C 
ATOM     13  N   UNL     1       7.630   6.065  15.905  0.00  0.00    +0.000 NA
ATOM     14  O   UNL     1       7.888   5.400  14.668  0.00  0.00    +0.000 OA
ATOM     15  S   UNL     1       6.510   4.990  13.923  0.00  0.00    +0.000 S 
ATOM     16  O   UNL     1       6.340   3.504  13.993  0.00  0.00    +0.000 OA
ATOM     17  N   UNL     1       5.522   5.695  15.048  0.00  0.00    +0.000 N 
ATOM     18  H   UNL     1       4.695   5.178  15.328  0.00  0.00    +0.000 HD
ENDBRANCH  11  12
ENDBRANCH   4  11
TORSDOF 3
ENDMDL
MODEL 3
REMARK VINA RESULT:      -6.8      0.313      1.601
REMARK  Name = 
REMARK  6 active torsions:
REMARK  status: ('A' for Active; 'I' for Inactive)
REMARK    1  A    between atoms: C_1  and  C_2
REMARK    2  A    between atoms: C_2  and  C_3
REMARK    3  A    between atoms: C_2  and  C_4
REMARK    4  A    between atoms: C_2  and  C_5
REMARK    5  A    between atoms: C_8  and  C_9
REMARK    6  A    between atoms: C_9  and  C_10
REMARK                            x       y       z     vdW  Elec       q    Type
REMARK                         _______ _______ _______ _____ _____    ______ ____
ROOT
ATOM      1  C   UNL     1       2.845   4.102  19.323  0.00  0.00    +0.000 A 
ATOM      2  C   UNL     1       4.148   3.692  18.988  0.00  0.00    +0.000 A 
ATOM      3  C   UNL     1       5.028   4.538  18.301  0.00  0.00    +0.000 A 
ATOM      4  C   UNL     1       4.632   5.821  17.922  0.00  0.00    +0.000 A 
ATOM      5  C   UNL     1       3.322   6.224  18.198  0.00  0.00    +0.000 A 
ATOM      6  C   UNL     1       2.444   5.375  18.880  0.00  0.00    +0.000 A 
ENDROOT
BRANCH   1   8
ATOM      7  C   UNL     1       2.456   2.814  21.506  0.00  0.00    +0.000 C 
ATOM      8  C   UNL     1       1.890   3.190  20.116  0.00  0.00    +0.000 C 
ATOM      9  C   UNL     1       1.662   1.899  19.309  0.00  0.00    +0.000 C 
ATOM     10  C   UNL     1       0.518   3.857  20.375  0.00  0.00    +0.000 C 
ENDBRANCH   1   8
BRANCH   4  11
ATOM     11  C   UNL     1       5.584   6.742  17.201  0.00  0.00    +0.000 C 
BRANCH  11  12
ATOM     12  C   UNL     1       6.255   6.117  15.999  0.00  0.00    +0.000 C 
ATOM     13  N   UNL     1       7.552   5.954  16.002  0.00  0.00    +0.000 NA
ATOM     14  O   UNL     1       7.909   5.269  14.802  0.00  0.00    +0.000 OA
ATOM     15  S   UNL     1       6.605   4.959  13.892  0.00  0.00    +0.000 S 
ATOM     16  O   UNL     1       6.320   3.490  13.932  0.00  0.00    +0.000 OA
ATOM     17  N   UNL     1       5.543   5.738  14.893  0.00  0.00    +0.000 N 
ATOM     18  H   UNL     1       4.652   5.284  15.067  0.00  0.00    +0.000 HD
ENDBRANCH  11  12
ENDBRANCH   4  11
TORSDOF 3
ENDMDL
MODEL 4
REMARK VINA RESULT:      -6.7      0.451      1.138
REMARK  Name = 
REMARK  6 active torsions:
REMARK  status: ('A' for Active; 'I' for Inactive)
REMARK    1  A    between atoms: C_1  and  C_2
REMARK    2  A    between atoms: C_2  and  C_3
REMARK    3  A    between atoms: C_2  and  C_4
REMARK    4  A    between atoms: C_2  and  C_5
REMARK    5  A    between atoms: C_8  and  C_9
REMARK    6  A    between atoms: C_9  and  C_10
REMARK                            x       y       z     vdW  Elec       q    Type
REMARK                         _______ _______ _______ _____ _____    ______ ____
ROOT
ATOM      1  C   UNL     1       2.871   4.082  19.462  0.00  0.00    +0.000 A 
ATOM      2  C   UNL     1       2.465   5.062  18.539  0.00  0.00    +0.000 A 
ATOM      3  C   UNL     1       3.395   5.866  17.866  0.00  0.00    +0.000 A 
ATOM      4  C   UNL     1       4.764   5.717  18.100  0.00  0.00    +0.000 A 
ATOM      5  C   UNL     1       5.180   4.786  19.054  0.00  0.00    +0.000 A 
ATOM      6  C   UNL     1       4.248   3.988  19.727  0.00  0.00    +0.000 A 
ENDROOT
BRANCH   1   8
ATOM      7  C   UNL     1       0.512   3.888  20.448  0.00  0.00    +0.000 C 
ATOM      8  C   UNL     1       1.853   3.169  20.170  0.00  0.00    +0.000 C 
ATOM      9  C   UNL     1       2.454   2.709  21.511  0.00  0.00    +0.000 C 
ATOM     10  C   UNL     1       1.504   1.915  19.332  0.00  0.00    +0.000 C 
ENDBRANCH   1   8
BRANCH   4  11
ATOM     11  C   UNL     1       5.768   6.566  17.362  0.00  0.00    +0.000 C 
BRANCH  11  12
ATOM     12  C   UNL     1       6.415   5.872  16.185  0.00  0.00    +0.000 C 
ATOM     13  N   UNL     1       7.566   5.272  16.347  0.00  0.00    +0.000 NA
ATOM     14  O   UNL     1       7.901   4.631  15.117  0.00  0.00    +0.000 OA
ATOM     15  S   UNL     1       6.763   4.883  13.993  0.00  0.00    +0.000 S 
ATOM     16  O   UNL     1       6.017   3.606  13.759  0.00  0.00    +0.000 OA
ATOM     17  N   UNL     1       5.840   5.875  14.942  0.00  0.00    +0.000 N 
ATOM     18  H   UNL     1       4.835   5.741  14.913  0.00  0.00    +0.000 HD
ENDBRANCH  11  12
ENDBRANCH   4  11
TORSDOF 3
ENDMDL
MODEL 5
REMARK VINA RESULT:      -6.6      1.172      1.461
REMARK  Name = 
REMARK  6 active torsions:
REMARK  status: ('A' for Active; 'I' for Inactive)
REMARK    1  A    between atoms: C_1  and  C_2
REMARK    2  A    between atoms: C_2  and  C_3
REMARK    3  A    between atoms: C_2  and  C_4
REMARK    4  A    between atoms: C_2  and  C_5
REMARK    5  A    between atoms: C_8  and  C_9
REMARK    6  A    between atoms: C_9  and  C_10
REMARK                            x       y       z     vdW  Elec       q    Type
REMARK                         _______ _______ _______ _____ _____    ______ ____
ROOT
ATOM      1  C   UNL     1       3.026   3.819  19.701  0.00  0.00    +0.000 A 
ATOM      2  C   UNL     1       3.440   5.154  19.862  0.00  0.00    +0.000 A 
ATOM      3  C   UNL     1       4.631   5.626  19.297  0.00  0.00    +0.000 A 
ATOM      4  C   UNL     1       5.451   4.775  18.553  0.00  0.00    +0.000 A 
ATOM      5  C   UNL     1       5.083   3.433  18.430  0.00  0.00    +0.000 A 
ATOM      6  C   UNL     1       3.894   2.964  19.000  0.00  0.00    +0.000 A 
ENDROOT
BRANCH   1   8
ATOM      7  C   UNL     1       1.003   2.281  19.361  0.00  0.00    +0.000 C 
ATOM      8  C   UNL     1       1.695   3.310  20.285  0.00  0.00    +0.000 C 
ATOM      9  C   UNL     1       0.753   4.512  20.481  0.00  0.00    +0.000 C 
ATOM     10  C   UNL     1       1.883   2.606  21.651  0.00  0.00    +0.000 C 
ENDBRANCH   1   8
BRANCH   4  11
ATOM     11  C   UNL     1       6.724   5.285  17.925  0.00  0.00    +0.000 C 
BRANCH  11  12
ATOM     12  C   UNL     1       6.701   5.304  16.414  0.00  0.00    +0.000 C 
ATOM     13  N   UNL     1       5.817   6.043  15.796  0.00  0.00    +0.000 NA
ATOM     14  O   UNL     1       6.072   5.950  14.395  0.00  0.00    +0.000 OA
ATOM     15  S   UNL     1       7.330   4.977  14.091  0.00  0.00    +0.000 S 
ATOM     16  O   UNL     1       8.490   5.806  13.634  0.00  0.00    +0.000 OA
ATOM     17  N   UNL     1       7.567   4.549  15.671  0.00  0.00    +0.000 N 
ATOM     18  H   UNL     1       8.525   4.509  16.002  0.00  0.00    +0.000 HD
ENDBRANCH  11  12
ENDBRANCH   4  11
TORSDOF 3
ENDMDL
MODEL 6
REMARK VINA RESULT:      -6.6      4.023      5.217
REMARK  Name = 
REMARK  6 active torsions:
REMARK  status: ('A' for Active; 'I' for Inactive)
REMARK    1  A    between atoms: C_1  and  C_2
REMARK    2  A    between atoms: C_2  and  C_3
REMARK    3  A    between atoms: C_2  and  C_4
REMARK    4  A    between atoms: C_2  and  C_5
REMARK    5  A    between atoms: C_8  and  C_9
REMARK    6  A    between atoms: C_9  and  C_10
REMARK                            x       y       z     vdW  Elec       q    Type
REMARK                         _______ _______ _______ _____ _____    ______ ____
ROOT
ATOM      1  C   UNL     1       1.301   9.217  19.357  0.00  0.00    +0.000 A 
ATOM      2  C   UNL     1       1.835   9.130  18.058  0.00  0.00    +0.000 A 
ATOM      3  C   UNL     1       2.537   7.997  17.629  0.00  0.00    +0.000 A 
ATOM      4  C   UNL     1       2.732   6.913  18.487  0.00  0.00    +0.000 A 
ATOM      5  C   UNL     1       2.256   7.007  19.798  0.00  0.00    +0.000 A 
ATOM      6  C   UNL     1       1.560   8.142  20.225  0.00  0.00    +0.000 A 
ENDROOT
BRANCH   1   8
ATOM      7  C   UNL     1      -0.926  10.479  19.198  0.00  0.00    +0.000 C 
ATOM      8  C   UNL     1       0.492  10.444  19.816  0.00  0.00    +0.000 C 
ATOM      9  C   UNL     1       1.247  11.717  19.393  0.00  0.00    +0.000 C 
ATOM     10  C   UNL     1       0.294  10.478  21.351  0.00  0.00    +0.000 C 
ENDBRANCH   1   8
BRANCH   4  11
ATOM     11  C   UNL     1       3.469   5.683  18.022  0.00  0.00    +0.000 C 
BRANCH  11  12
ATOM     12  C   UNL     1       4.928   5.652  18.416  0.00  0.00    +0.000 C 
ATOM     13  N   UNL     1       5.261   5.240  19.611  0.00  0.00    +0.000 NA
ATOM     14  O   UNL     1       6.686   5.225  19.687  0.00  0.00    +0.000 OA
ATOM     15  S   UNL     1       7.354   5.720  18.298  0.00  0.00    +0.000 S 
ATOM     16  O   UNL     1       7.979   4.547  17.610  0.00  0.00    +0.000 OA
ATOM     17  N   UNL     1       5.914   6.067  17.561  0.00  0.00    +0.000 N 
ATOM     18  H   UNL     1       5.811   5.790  16.590  0.00  0.00    +0.000 HD
ENDBRANCH  11  12
ENDBRANCH   4  11
TORSDOF 3
ENDMDL
MODEL 7
REMARK VINA RESULT:      -6.6      0.797      1.727
REMARK  Name = 
REMARK  6 active torsions:
REMARK  status: ('A' for Active; 'I' for Inactive)
REMARK    1  A    between atoms: C_1  and  C_2
REMARK    2  A    between atoms: C_2  and  C_3
REMARK    3  A    between atoms: C_2  and  C_4
REMARK    4  A    between atoms: C_2  and  C_5
REMARK    5  A    between atoms: C_8  and  C_9
REMARK    6  A    between atoms: C_9  and  C_10
REMARK                            x       y       z     vdW  Elec       q    Type
REMARK                         _______ _______ _______ _____ _____    ______ ____
ROOT
ATOM      1  C   UNL     1       3.013   4.031  19.239  0.00  0.00    +0.000 A 
ATOM      2  C   UNL     1       2.644   5.196  18.543  0.00  0.00    +0.000 A 
ATOM      3  C   UNL     1       3.567   5.914  17.772  0.00  0.00    +0.000 A 
ATOM      4  C   UNL     1       4.894   5.492  17.676  0.00  0.00    +0.000 A 
ATOM      5  C   UNL     1       5.291   4.368  18.406  0.00  0.00    +0.000 A 
ATOM      6  C   UNL     1       4.367   3.657  19.179  0.00  0.00    +0.000 A 
ENDROOT
BRANCH   1   8
ATOM      7  C   UNL     1       0.741   4.050  20.428  0.00  0.00    +0.000 C 
ATOM      8  C   UNL     1       1.990   3.217  20.052  0.00  0.00    +0.000 C 
ATOM      9  C   UNL     1       2.667   2.730  21.347  0.00  0.00    +0.000 C 
ATOM     10  C   UNL     1       1.469   1.984  19.277  0.00  0.00    +0.000 C 
ENDBRANCH   1   8
BRANCH   4  11
ATOM     11  C   UNL     1       5.886   6.250  16.830  0.00  0.00    +0.000 C 
BRANCH  11  12
ATOM     12  C   UNL     1       6.304   5.525  15.571  0.00  0.00    +0.000 C 
ATOM     13  N   UNL     1       5.394   4.944  14.834  0.00  0.00    +0.000 NA
ATOM     14  O   UNL     1       6.041   4.420  13.675  0.00  0.00    +0.000 OA
ATOM     15  S   UNL     1       7.631   4.723  13.701  0.00  0.00    +0.000 S 
ATOM     16  O   UNL     1       7.948   5.761  12.669  0.00  0.00    +0.000 OA
ATOM     17  N   UNL     1       7.617   5.439  15.193  0.00  0.00    +0.000 N 
ATOM     18  H   UNL     1       8.173   6.279  15.309  0.00  0.00    +0.000 HD
ENDBRANCH  11  12
ENDBRANCH   4  11
TORSDOF 3
ENDMDL
MODEL 8
REMARK VINA RESULT:      -6.6      0.848      2.089
REMARK  Name = 
REMARK  6 active torsions:
REMARK  status: ('A' for Active; 'I' for Inactive)
REMARK    1  A    between atoms: C_1  and  C_2
REMARK    2  A    between atoms: C_2  and  C_3
REMARK    3  A    between atoms: C_2  and  C_4
REMARK    4  A    between atoms: C_2  and  C_5
REMARK    5  A    between atoms: C_8  and  C_9
REMARK    6  A    between atoms: C_9  and  C_10
REMARK                            x       y       z     vdW  Elec       q    Type
REMARK                         _______ _______ _______ _____ _____    ______ ____
ROOT
ATOM      1  C   UNL     1       2.989   3.981  19.190  0.00  0.00    +0.000 A 
ATOM      2  C   UNL     1       4.323   3.558  19.056  0.00  0.00    +0.000 A 
ATOM      3  C   UNL     1       5.242   4.266  18.270  0.00  0.00    +0.000 A 
ATOM      4  C   UNL     1       4.853   5.420  17.588  0.00  0.00    +0.000 A 
ATOM      5  C   UNL     1       3.518   5.823  17.666  0.00  0.00    +0.000 A 
ATOM      6  C   UNL     1       2.602   5.111  18.447  0.00  0.00    +0.000 A 
ENDROOT
BRANCH   1   8
ATOM      7  C   UNL     1       2.622   2.783  21.427  0.00  0.00    +0.000 C 
ATOM      8  C   UNL     1       1.989   3.229  20.087  0.00  0.00    +0.000 C 
ATOM      9  C   UNL     1       1.496   1.980  19.334  0.00  0.00    +0.000 C 
ATOM     10  C   UNL     1       0.762   4.096  20.458  0.00  0.00    +0.000 C 
ENDBRANCH   1   8
BRANCH   4  11
ATOM     11  C   UNL     1       5.845   6.196  16.758  0.00  0.00    +0.000 C 
BRANCH  11  12
ATOM     12  C   UNL     1       6.293   5.481  15.504  0.00  0.00    +0.000 C 
ATOM     13  N   UNL     1       5.406   4.874  14.760  0.00  0.00    +0.000 NA
ATOM     14  O   UNL     1       6.077   4.367  13.607  0.00  0.00    +0.000 OA
ATOM     15  S   UNL     1       7.658   4.714  13.646  0.00  0.00    +0.000 S 
ATOM     16  O   UNL     1       7.954   5.758  12.615  0.00  0.00    +0.000 OA
ATOM     17  N   UNL     1       7.611   5.431  15.136  0.00  0.00    +0.000 N 
ATOM     18  H   UNL     1       8.143   6.286  15.256  0.00  0.00    +0.000 HD
ENDBRANCH  11  12
ENDBRANCH   4  11
TORSDOF 3
ENDMDL
MODEL 9
REMARK VINA RESULT:      -6.5      1.027      1.671
REMARK  Name = 
REMARK  6 active torsions:
REMARK  status: ('A' for Active; 'I' for Inactive)
REMARK    1  A    between atoms: C_1  and  C_2
REMARK    2  A    between atoms: C_2  and  C_3
REMARK    3  A    between atoms: C_2  and  C_4
REMARK    4  A    between atoms: C_2  and  C_5
REMARK    5  A    between atoms: C_8  and  C_9
REMARK    6  A    between atoms: C_9  and  C_10
REMARK                            x       y       z     vdW  Elec       q    Type
REMARK                         _______ _______ _______ _____ _____    ______ ____
ROOT
ATOM      1  C   UNL     1       2.983   3.983  19.672  0.00  0.00    +0.000 A 
ATOM      2  C   UNL     1       3.170   5.366  19.501  0.00  0.00    +0.000 A 
ATOM      3  C   UNL     1       4.331   5.882  18.911  0.00  0.00    +0.000 A 
ATOM      4  C   UNL     1       5.348   5.029  18.476  0.00  0.00    +0.000 A 
ATOM      5  C   UNL     1       5.202   3.656  18.689  0.00  0.00    +0.000 A 
ATOM      6  C   UNL     1       4.043   3.145  19.283  0.00  0.00    +0.000 A 
ENDROOT
BRANCH   1   8
ATOM      7  C   UNL     1       1.940   2.696  21.629  0.00  0.00    +0.000 C 
ATOM      8  C   UNL     1       1.689   3.412  20.281  0.00  0.00    +0.000 C 
ATOM      9  C   UNL     1       1.085   2.400  19.289  0.00  0.00    +0.000 C 
ATOM     10  C   UNL     1       0.637   4.511  20.565  0.00  0.00    +0.000 C 
ENDBRANCH   1   8
BRANCH   4  11
ATOM     11  C   UNL     1       6.589   5.579  17.822  0.00  0.00    +0.000 C 
BRANCH  11  12
ATOM     12  C   UNL     1       6.598   5.457  16.315  0.00  0.00    +0.000 C 
ATOM     13  N   UNL     1       5.697   6.095  15.615  0.00  0.00    +0.000 NA
ATOM     14  O   UNL     1       5.987   5.883  14.234  0.00  0.00    +0.000 OA
ATOM     15  S   UNL     1       7.291   4.943  14.044  0.00  0.00    +0.000 S 
ATOM     16  O   UNL     1       8.424   5.777  13.533  0.00  0.00    +0.000 OA
ATOM     17  N   UNL     1       7.512   4.675  15.661  0.00  0.00    +0.000 N 
ATOM     18  H   UNL     1       8.463   4.709  16.011  0.00  0.00    +0.000 HD
ENDBRANCH  11  12
ENDBRANCH   4  11
TORSDOF 3
ENDMDL
