MODEL 1
REMARK VINA RESULT:      -8.4      0.000      0.000
REMARK  Name = 
REMARK  7 active torsions:
REMARK  status: ('A' for Active; 'I' for Inactive)
REMARK    1  A    between atoms: C_2  and  O_3
REMARK    2  A    between atoms: C_2  and  C_4
REMARK    3  A    between atoms: C_4  and  C_6
REMARK    4  A    between atoms: C_6  and  C_7
REMARK    5  A    between atoms: C_7  and  C_9
REMARK    6  A    between atoms: C_13  and  C_14
REMARK    7  A    between atoms: C_14  and  C_15
REMARK                            x       y       z     vdW  Elec       q    Type
REMARK                         _______ _______ _______ _____ _____    ______ ____
ROOT
ATOM      1  C   UNL     1       6.616   5.189  16.015  0.00  0.00    +0.000 A 
ATOM      2  C   UNL     1       7.490   4.921  17.074  0.00  0.00    +0.000 A 
ATOM      3  C   UNL     1       7.115   5.216  18.385  0.00  0.00    +0.000 A 
ATOM      4  C   UNL     1       5.868   5.781  18.650  0.00  0.00    +0.000 A 
ATOM      5  C   UNL     1       4.978   6.064  17.609  0.00  0.00    +0.000 A 
ATOM      6  C   UNL     1       5.372   5.788  16.287  0.00  0.00    +0.000 A 
ENDROOT
BRANCH   1   7
ATOM      7  C   UNL     1       6.935   4.811  14.605  0.00  0.00    +0.000 C 
ATOM      8  O   UNL     1       7.758   5.472  13.969  0.00  0.00    +0.000 OA
BRANCH   7   9
ATOM      9  C   UNL     1       6.225   3.655  13.949  0.00  0.00    +0.000 C 
BRANCH   9  10
ATOM     10  C   UNL     1       6.371   3.632  12.458  0.00  0.00    +0.000 C 
ATOM     11  O   UNL     1       7.251   4.193  11.807  0.00  0.00    +0.000 OA
BRANCH  10  13
ATOM     12  O   UNL     1       5.670   1.602  11.361  0.00  0.00    +0.000 OA
ATOM     13  C   UNL     1       5.397   2.735  11.695  0.00  0.00    +0.000 C 
BRANCH  13  14
ATOM     14  O   UNL     1       4.249   3.380  11.421  0.00  0.00    +0.000 OA
ATOM     15  H   UNL     1       3.954   3.170  10.503  0.00  0.00    +0.000 HD
ENDBRANCH  13  14
ENDBRANCH  10  13
ENDBRANCH   9  10
ENDBRANCH   7   9
ENDBRANCH   1   7
BRANCH   5  16
ATOM     16  C   UNL     1       3.593   6.595  17.911  0.00  0.00    +0.000 C 
BRANCH  16  17
ATOM     17  C   UNL     1       2.653   5.623  18.584  0.00  0.00    +0.000 A 
ATOM     18  C   UNL     1       2.124   4.538  17.867  0.00  0.00    +0.000 A 
ATOM     19  C   UNL     1       1.302   3.604  18.501  0.00  0.00    +0.000 A 
ATOM     20  C   UNL     1       1.014   3.749  19.852  0.00  0.00    +0.000 A 
ATOM     21  F   UNL     1       0.245   2.839  20.465  0.00  0.00    +0.000 F 
ATOM     22  C   UNL     1       1.518   4.820  20.579  0.00  0.00    +0.000 A 
ATOM     23  C   UNL     1       2.331   5.762  19.944  0.00  0.00    +0.000 A 
ENDBRANCH  16  17
ENDBRANCH   5  16
TORSDOF 7
ENDMDL
MODEL 2
REMARK VINA RESULT:      -8.1      3.093      4.595
REMARK  Name = 
REMARK  7 active torsions:
REMARK  status: ('A' for Active; 'I' for Inactive)
REMARK    1  A    between atoms: C_2  and  O_3
REMARK    2  A    between atoms: C_2  and  C_4
REMARK    3  A    between atoms: C_4  and  C_6
REMARK    4  A    between atoms: C_6  and  C_7
REMARK    5  A    between atoms: C_7  and  C_9
REMARK    6  A    between atoms: C_13  and  C_14
REMARK    7  A    between atoms: C_14  and  C_15
REMARK                            x       y       z     vdW  Elec       q    Type
REMARK                         _______ _______ _______ _____ _____    ______ ____
ROOT
ATOM      1  C   UNL     1       4.960   4.706  18.516  0.00  0.00    +0.000 A 
ATOM      2  C   UNL     1       4.289   3.930  17.566  0.00  0.00    +0.000 A 
ATOM      3  C   UNL     1       2.895   3.924  17.521  0.00  0.00    +0.000 A 
ATOM      4  C   UNL     1       2.159   4.692  18.423  0.00  0.00    +0.000 A 
ATOM      5  C   UNL     1       2.805   5.474  19.387  0.00  0.00    +0.000 A 
ATOM      6  C   UNL     1       4.211   5.454  19.443  0.00  0.00    +0.000 A 
ENDROOT
BRANCH   1   7
ATOM      7  C   UNL     1       6.451   4.814  18.547  0.00  0.00    +0.000 C 
ATOM      8  O   UNL     1       7.007   5.265  19.550  0.00  0.00    +0.000 OA
BRANCH   7   9
ATOM      9  C   UNL     1       7.267   4.415  17.344  0.00  0.00    +0.000 C 
BRANCH   9  10
ATOM     10  C   UNL     1       7.239   5.427  16.240  0.00  0.00    +0.000 C 
ATOM     11  O   UNL     1       7.464   6.631  16.355  0.00  0.00    +0.000 OA
BRANCH  10  13
ATOM     12  O   UNL     1       6.248   3.981  14.583  0.00  0.00    +0.000 OA
ATOM     13  C   UNL     1       7.020   4.884  14.829  0.00  0.00    +0.000 C 
BRANCH  13  14
ATOM     14  O   UNL     1       7.813   5.504  13.937  0.00  0.00    +0.000 OA
ATOM     15  H   UNL     1       7.272   5.858  13.191  0.00  0.00    +0.000 HD
ENDBRANCH  13  14
ENDBRANCH  10  13
ENDBRANCH   9  10
ENDBRANCH   7   9
ENDBRANCH   1   7
BRANCH   5  16
ATOM     16  C   UNL     1       2.005   6.372  20.304  0.00  0.00    +0.000 C 
BRANCH  16  17
ATOM     17  C   UNL     1       1.764   7.774  19.799  0.00  0.00    +0.000 A 
ATOM     18  C   UNL     1       2.156   8.137  18.501  0.00  0.00    +0.000 A 
ATOM     19  C   UNL     1       1.883   9.415  18.009  0.00  0.00    +0.000 A 
ATOM     20  C   UNL     1       1.211  10.329  18.811  0.00  0.00    +0.000 A 
ATOM     21  F   UNL     1       0.927  11.547  18.331  0.00  0.00    +0.000 F 
ATOM     22  C   UNL     1       0.823   9.996  20.103  0.00  0.00    +0.000 A 
ATOM     23  C   UNL     1       1.107   8.722  20.601  0.00  0.00    +0.000 A 
ENDBRANCH  16  17
ENDBRANCH   5  16
TORSDOF 7
ENDMDL
MODEL 3
REMARK VINA RESULT:      -8.1      1.329      2.016
REMARK  Name = 
REMARK  7 active torsions:
REMARK  status: ('A' for Active; 'I' for Inactive)
REMARK    1  A    between atoms: C_2  and  O_3
REMARK    2  A    between atoms: C_2  and  C_4
REMARK    3  A    between atoms: C_4  and  C_6
REMARK    4  A    between atoms: C_6  and  C_7
REMARK    5  A    between atoms: C_7  and  C_9
REMARK    6  A    between atoms: C_13  and  C_14
REMARK    7  A    between atoms: C_14  and  C_15
REMARK                            x       y       z     vdW  Elec       q    Type
REMARK                         _______ _______ _______ _____ _____    ______ ____
ROOT
ATOM      1  C   UNL     1       5.618   5.418  16.727  0.00  0.00    +0.000 A 
ATOM      2  C   UNL     1       5.956   6.725  17.091  0.00  0.00    +0.000 A 
ATOM      3  C   UNL     1       4.995   7.569  17.650  0.00  0.00    +0.000 A 
ATOM      4  C   UNL     1       3.691   7.116  17.848  0.00  0.00    +0.000 A 
ATOM      5  C   UNL     1       3.326   5.814  17.487  0.00  0.00    +0.000 A 
ATOM      6  C   UNL     1       4.293   4.978  16.901  0.00  0.00    +0.000 A 
ENDROOT
BRANCH   1   7
ATOM      7  C   UNL     1       6.632   4.449  16.208  0.00  0.00    +0.000 C 
ATOM      8  O   UNL     1       7.754   4.413  16.714  0.00  0.00    +0.000 OA
BRANCH   7   9
ATOM      9  C   UNL     1       6.298   3.551  15.044  0.00  0.00    +0.000 C 
BRANCH   9  10
ATOM     10  C   UNL     1       6.568   4.176  13.710  0.00  0.00    +0.000 C 
ATOM     11  O   UNL     1       7.269   5.167  13.502  0.00  0.00    +0.000 OA
BRANCH  10  13
ATOM     12  O   UNL     1       4.847   3.516  12.155  0.00  0.00    +0.000 OA
ATOM     13  C   UNL     1       6.010   3.442  12.492  0.00  0.00    +0.000 C 
BRANCH  13  14
ATOM     14  O   UNL     1       6.954   2.694  11.895  0.00  0.00    +0.000 OA
ATOM     15  H   UNL     1       6.569   2.214  11.123  0.00  0.00    +0.000 HD
ENDBRANCH  13  14
ENDBRANCH  10  13
ENDBRANCH   9  10
ENDBRANCH   7   9
ENDBRANCH   1   7
BRANCH   5  16
ATOM     16  C   UNL     1       1.934   5.301  17.787  0.00  0.00    +0.000 C 
BRANCH  16  17
ATOM     17  C   UNL     1       1.812   4.416  19.004  0.00  0.00    +0.000 A 
ATOM     18  C   UNL     1       1.395   3.082  18.871  0.00  0.00    +0.000 A 
ATOM     19  C   UNL     1       1.337   2.244  19.986  0.00  0.00    +0.000 A 
ATOM     20  C   UNL     1       1.702   2.736  21.233  0.00  0.00    +0.000 A 
ATOM     21  F   UNL     1       1.669   1.924  22.299  0.00  0.00    +0.000 F 
ATOM     22  C   UNL     1       2.106   4.055  21.391  0.00  0.00    +0.000 A 
ATOM     23  C   UNL     1       2.154   4.899  20.278  0.00  0.00    +0.000 A 
ENDBRANCH  16  17
ENDBRANCH   5  16
TORSDOF 7
ENDMDL
MODEL 4
REMARK VINA RESULT:      -7.9      3.238      5.244
REMARK  Name = 
REMARK  7 active torsions:
REMARK  status: ('A' for Active; 'I' for Inactive)
REMARK    1  A    between atoms: C_2  and  O_3
REMARK    2  A    between atoms: C_2  and  C_4
REMARK    3  A    between atoms: C_4  and  C_6
REMARK    4  A    between atoms: C_6  and  C_7
REMARK    5  A    between atoms: C_7  and  C_9
REMARK    6  A    between atoms: C_13  and  C_14
REMARK    7  A    between atoms: C_14  and  C_15
REMARK                            x       y       z     vdW  Elec       q    Type
REMARK                         _______ _______ _______ _____ _____    ______ ____
ROOT
ATOM      1  C   UNL     1       4.262   4.222  17.528  0.00  0.00    +0.000 A 
ATOM      2  C   UNL     1       3.172   3.486  17.055  0.00  0.00    +0.000 A 
ATOM      3  C   UNL     1       1.907   3.663  17.618  0.00  0.00    +0.000 A 
ATOM      4  C   UNL     1       1.722   4.574  18.658  0.00  0.00    +0.000 A 
ATOM      5  C   UNL     1       2.797   5.319  19.153  0.00  0.00    +0.000 A 
ATOM      6  C   UNL     1       4.074   5.117  18.597  0.00  0.00    +0.000 A 
ENDROOT
BRANCH   1   7
ATOM      7  C   UNL     1       5.616   4.133  16.899  0.00  0.00    +0.000 C 
ATOM      8  O   UNL     1       5.753   3.531  15.833  0.00  0.00    +0.000 OA
BRANCH   7   9
ATOM      9  C   UNL     1       6.813   4.739  17.585  0.00  0.00    +0.000 C 
BRANCH   9  10
ATOM     10  C   UNL     1       7.370   5.934  16.872  0.00  0.00    +0.000 C 
ATOM     11  O   UNL     1       7.527   6.043  15.656  0.00  0.00    +0.000 OA
BRANCH  10  13
ATOM     12  O   UNL     1       7.452   8.296  17.353  0.00  0.00    +0.000 OA
ATOM     13  C   UNL     1       7.659   7.163  17.732  0.00  0.00    +0.000 C 
BRANCH  13  14
ATOM     14  O   UNL     1       8.200   6.817  18.914  0.00  0.00    +0.000 OA
ATOM     15  H   UNL     1       7.703   7.244  19.652  0.00  0.00    +0.000 HD
ENDBRANCH  13  14
ENDBRANCH  10  13
ENDBRANCH   9  10
ENDBRANCH   7   9
ENDBRANCH   1   7
BRANCH   5  16
ATOM     16  C   UNL     1       2.572   6.368  20.219  0.00  0.00    +0.000 C 
BRANCH  16  17
ATOM     17  C   UNL     1       1.992   7.677  19.737  0.00  0.00    +0.000 A 
ATOM     18  C   UNL     1       2.186   8.091  18.410  0.00  0.00    +0.000 A 
ATOM     19  C   UNL     1       1.601   9.270  17.943  0.00  0.00    +0.000 A 
ATOM     20  C   UNL     1       0.818  10.033  18.800  0.00  0.00    +0.000 A 
ATOM     21  F   UNL     1       0.238  11.152  18.346  0.00  0.00    +0.000 F 
ATOM     22  C   UNL     1       0.622   9.649  20.121  0.00  0.00    +0.000 A 
ATOM     23  C   UNL     1       1.215   8.475  20.593  0.00  0.00    +0.000 A 
ENDBRANCH  16  17
ENDBRANCH   5  16
TORSDOF 7
ENDMDL
MODEL 5
REMARK VINA RESULT:      -7.9      3.418      5.337
REMARK  Name = 
REMARK  7 active torsions:
REMARK  status: ('A' for Active; 'I' for Inactive)
REMARK    1  A    between atoms: C_2  and  O_3
REMARK    2  A    between atoms: C_2  and  C_4
REMARK    3  A    between atoms: C_4  and  C_6
REMARK    4  A    between atoms: C_6  and  C_7
REMARK    5  A    between atoms: C_7  and  C_9
REMARK    6  A    between atoms: C_13  and  C_14
REMARK    7  A    between atoms: C_14  and  C_15
REMARK                            x       y       z     vdW  Elec       q    Type
REMARK                         _______ _______ _______ _____ _____    ______ ____
ROOT
ATOM      1  C   UNL     1       4.713   5.754  16.907  0.00  0.00    +0.000 A 
ATOM      2  C   UNL     1       3.938   4.646  17.262  0.00  0.00    +0.000 A 
ATOM      3  C   UNL     1       2.688   4.823  17.856  0.00  0.00    +0.000 A 
ATOM      4  C   UNL     1       2.202   6.108  18.102  0.00  0.00    +0.000 A 
ATOM      5  C   UNL     1       2.960   7.234  17.762  0.00  0.00    +0.000 A 
ATOM      6  C   UNL     1       4.230   7.047  17.186  0.00  0.00    +0.000 A 
ENDROOT
BRANCH   1   7
ATOM      7  C   UNL     1       6.017   5.618  16.189  0.00  0.00    +0.000 C 
ATOM      8  O   UNL     1       6.065   5.815  14.974  0.00  0.00    +0.000 OA
BRANCH   7   9
ATOM      9  C   UNL     1       7.256   5.200  16.937  0.00  0.00    +0.000 C 
BRANCH   9  10
ATOM     10  C   UNL     1       7.577   6.084  18.103  0.00  0.00    +0.000 C 
ATOM     11  O   UNL     1       7.896   7.271  18.046  0.00  0.00    +0.000 OA
BRANCH  10  13
ATOM     12  O   UNL     1       6.296   5.117  19.903  0.00  0.00    +0.000 OA
ATOM     13  C   UNL     1       7.378   5.476  19.490  0.00  0.00    +0.000 C 
BRANCH  13  14
ATOM     14  O   UNL     1       8.533   5.439  20.179  0.00  0.00    +0.000 OA
ATOM     15  H   UNL     1       9.149   6.134  19.845  0.00  0.00    +0.000 HD
ENDBRANCH  13  14
ENDBRANCH  10  13
ENDBRANCH   9  10
ENDBRANCH   7   9
ENDBRANCH   1   7
BRANCH   5  16
ATOM     16  C   UNL     1       2.390   8.622  17.949  0.00  0.00    +0.000 C 
BRANCH  16  17
ATOM     17  C   UNL     1       1.508   8.809  19.161  0.00  0.00    +0.000 A 
ATOM     18  C   UNL     1       1.779   8.111  20.349  0.00  0.00    +0.000 A 
ATOM     19  C   UNL     1       1.002   8.325  21.490  0.00  0.00    +0.000 A 
ATOM     20  C   UNL     1      -0.040   9.241  21.446  0.00  0.00    +0.000 A 
ATOM     21  F   UNL     1      -0.770   9.464  22.548  0.00  0.00    +0.000 F 
ATOM     22  C   UNL     1      -0.334   9.936  20.280  0.00  0.00    +0.000 A 
ATOM     23  C   UNL     1       0.434   9.714  19.134  0.00  0.00    +0.000 A 
ENDBRANCH  16  17
ENDBRANCH   5  16
TORSDOF 7
ENDMDL
MODEL 6
REMARK VINA RESULT:      -7.9      3.104      4.684
REMARK  Name = 
REMARK  7 active torsions:
REMARK  status: ('A' for Active; 'I' for Inactive)
REMARK    1  A    between atoms: C_2  and  O_3
REMARK    2  A    between atoms: C_2  and  C_4
REMARK    3  A    between atoms: C_4  and  C_6
REMARK    4  A    between atoms: C_6  and  C_7
REMARK    5  A    between atoms: C_7  and  C_9
REMARK    6  A    between atoms: C_13  and  C_14
REMARK    7  A    between atoms: C_14  and  C_15
REMARK                            x       y       z     vdW  Elec       q    Type
REMARK                         _______ _______ _______ _____ _____    ______ ____
ROOT
ATOM      1  C   UNL     1       4.663   4.631  18.281  0.00  0.00    +0.000 A 
ATOM      2  C   UNL     1       3.848   3.903  17.409  0.00  0.00    +0.000 A 
ATOM      3  C   UNL     1       2.460   4.003  17.496  0.00  0.00    +0.000 A 
ATOM      4  C   UNL     1       1.873   4.829  18.455  0.00  0.00    +0.000 A 
ATOM      5  C   UNL     1       2.665   5.564  19.344  0.00  0.00    +0.000 A 
ATOM      6  C   UNL     1       4.064   5.438  19.266  0.00  0.00    +0.000 A 
ENDROOT
BRANCH   1   7
ATOM      7  C   UNL     1       6.154   4.625  18.170  0.00  0.00    +0.000 C 
ATOM      8  O   UNL     1       6.836   5.026  19.115  0.00  0.00    +0.000 OA
BRANCH   7   9
ATOM      9  C   UNL     1       6.819   4.173  16.896  0.00  0.00    +0.000 C 
BRANCH   9  10
ATOM     10  C   UNL     1       7.076   5.287  15.927  0.00  0.00    +0.000 C 
ATOM     11  O   UNL     1       7.376   6.445  16.218  0.00  0.00    +0.000 OA
BRANCH  10  13
ATOM     12  O   UNL     1       6.366   4.039  13.990  0.00  0.00    +0.000 OA
ATOM     13  C   UNL     1       7.073   4.913  14.447  0.00  0.00    +0.000 C 
BRANCH  13  14
ATOM     14  O   UNL     1       7.969   5.639  13.755  0.00  0.00    +0.000 OA
ATOM     15  H   UNL     1       7.600   6.534  13.558  0.00  0.00    +0.000 HD
ENDBRANCH  13  14
ENDBRANCH  10  13
ENDBRANCH   9  10
ENDBRANCH   7   9
ENDBRANCH   1   7
BRANCH   5  16
ATOM     16  C   UNL     1       2.025   6.525  20.321  0.00  0.00    +0.000 C 
BRANCH  16  17
ATOM     17  C   UNL     1       1.707   7.897  19.777  0.00  0.00    +0.000 A 
ATOM     18  C   UNL     1       1.039   8.839  20.575  0.00  0.00    +0.000 A 
ATOM     19  C   UNL     1       0.796  10.128  20.097  0.00  0.00    +0.000 A 
ATOM     20  C   UNL     1       1.226  10.479  18.823  0.00  0.00    +0.000 A 
ATOM     21  F   UNL     1       1.014  11.723  18.374  0.00  0.00    +0.000 F 
ATOM     22  C   UNL     1       1.879   9.560  18.011  0.00  0.00    +0.000 A 
ATOM     23  C   UNL     1       2.113   8.266  18.483  0.00  0.00    +0.000 A 
ENDBRANCH  16  17
ENDBRANCH   5  16
TORSDOF 7
ENDMDL
MODEL 7
REMARK VINA RESULT:      -7.8      3.158      5.291
REMARK  Name = 
REMARK  7 active torsions:
REMARK  status: ('A' for Active; 'I' for Inactive)
REMARK    1  A    between atoms: C_2  and  O_3
REMARK    2  A    between atoms: C_2  and  C_4
REMARK    3  A    between atoms: C_4  and  C_6
REMARK    4  A    between atoms: C_6  and  C_7
REMARK    5  A    between atoms: C_7  and  C_9
REMARK    6  A    between atoms: C_13  and  C_14
REMARK    7  A    between atoms: C_14  and  C_15
REMARK                            x       y       z     vdW  Elec       q    Type
REMARK                         _______ _______ _______ _____ _____    ______ ____
ROOT
ATOM      1  C   UNL     1       3.926   4.297  17.372  0.00  0.00    +0.000 A 
ATOM      2  C   UNL     1       2.871   3.413  17.126  0.00  0.00    +0.000 A 
ATOM      3  C   UNL     1       1.704   3.482  17.888  0.00  0.00    +0.000 A 
ATOM      4  C   UNL     1       1.582   4.432  18.902  0.00  0.00    +0.000 A 
ATOM      5  C   UNL     1       2.624   5.325  19.173  0.00  0.00    +0.000 A 
ATOM      6  C   UNL     1       3.808   5.233  18.417  0.00  0.00    +0.000 A 
ENDROOT
BRANCH   1   7
ATOM      7  C   UNL     1       5.159   4.322  16.527  0.00  0.00    +0.000 C 
ATOM      8  O   UNL     1       5.068   4.127  15.313  0.00  0.00    +0.000 OA
BRANCH   7   9
ATOM      9  C   UNL     1       6.510   4.539  17.159  0.00  0.00    +0.000 C 
BRANCH   9  10
ATOM     10  C   UNL     1       7.249   5.716  16.599  0.00  0.00    +0.000 C 
ATOM     11  O   UNL     1       7.607   5.857  15.430  0.00  0.00    +0.000 OA
BRANCH  10  13
ATOM     12  O   UNL     1       7.299   8.045  17.223  0.00  0.00    +0.000 OA
ATOM     13  C   UNL     1       7.473   6.890  17.550  0.00  0.00    +0.000 C 
BRANCH  13  14
ATOM     14  O   UNL     1       7.919   6.472  18.748  0.00  0.00    +0.000 OA
ATOM     15  H   UNL     1       8.608   7.092  19.088  0.00  0.00    +0.000 HD
ENDBRANCH  13  14
ENDBRANCH  10  13
ENDBRANCH   9  10
ENDBRANCH   7   9
ENDBRANCH   1   7
BRANCH   5  16
ATOM     16  C   UNL     1       2.450   6.409  20.213  0.00  0.00    +0.000 C 
BRANCH  16  17
ATOM     17  C   UNL     1       1.900   7.721  19.705  0.00  0.00    +0.000 A 
ATOM     18  C   UNL     1       1.193   8.574  20.567  0.00  0.00    +0.000 A 
ATOM     19  C   UNL     1       0.734   9.814  20.118  0.00  0.00    +0.000 A 
ATOM     20  C   UNL     1       0.986  10.204  18.809  0.00  0.00    +0.000 A 
ATOM     21  F   UNL     1       0.567  11.404  18.384  0.00  0.00    +0.000 F 
ATOM     22  C   UNL     1       1.673   9.372  17.934  0.00  0.00    +0.000 A 
ATOM     23  C   UNL     1       2.123   8.126  18.379  0.00  0.00    +0.000 A 
ENDBRANCH  16  17
ENDBRANCH   5  16
TORSDOF 7
ENDMDL
MODEL 8
REMARK VINA RESULT:      -7.8      3.162      5.221
REMARK  Name = 
REMARK  7 active torsions:
REMARK  status: ('A' for Active; 'I' for Inactive)
REMARK    1  A    between atoms: C_2  and  O_3
REMARK    2  A    between atoms: C_2  and  C_4
REMARK    3  A    between atoms: C_4  and  C_6
REMARK    4  A    between atoms: C_6  and  C_7
REMARK    5  A    between atoms: C_7  and  C_9
REMARK    6  A    between atoms: C_13  and  C_14
REMARK    7  A    between atoms: C_14  and  C_15
REMARK                            x       y       z     vdW  Elec       q    Type
REMARK                         _______ _______ _______ _____ _____    ______ ____
ROOT
ATOM      1  C   UNL     1       3.541   4.292  17.512  0.00  0.00    +0.000 A 
ATOM      2  C   UNL     1       2.531   3.334  17.379  0.00  0.00    +0.000 A 
ATOM      3  C   UNL     1       1.431   3.348  18.237  0.00  0.00    +0.000 A 
ATOM      4  C   UNL     1       1.330   4.318  19.235  0.00  0.00    +0.000 A 
ATOM      5  C   UNL     1       2.329   5.285  19.393  0.00  0.00    +0.000 A 
ATOM      6  C   UNL     1       3.448   5.249  18.540  0.00  0.00    +0.000 A 
ENDROOT
BRANCH   1   7
ATOM      7  C   UNL     1       4.693   4.372  16.563  0.00  0.00    +0.000 C 
ATOM      8  O   UNL     1       5.057   3.360  15.962  0.00  0.00    +0.000 OA
BRANCH   7   9
ATOM      9  C   UNL     1       5.432   5.672  16.373  0.00  0.00    +0.000 C 
BRANCH   9  10
ATOM     10  C   UNL     1       6.922   5.520  16.391  0.00  0.00    +0.000 C 
ATOM     11  O   UNL     1       7.692   5.822  15.480  0.00  0.00    +0.000 OA
BRANCH  10  13
ATOM     12  O   UNL     1       8.331   4.136  17.775  0.00  0.00    +0.000 OA
ATOM     13  C   UNL     1       7.540   5.052  17.708  0.00  0.00    +0.000 C 
BRANCH  13  14
ATOM     14  O   UNL     1       7.060   5.754  18.750  0.00  0.00    +0.000 OA
ATOM     15  H   UNL     1       7.634   5.618  19.542  0.00  0.00    +0.000 HD
ENDBRANCH  13  14
ENDBRANCH  10  13
ENDBRANCH   9  10
ENDBRANCH   7   9
ENDBRANCH   1   7
BRANCH   5  16
ATOM     16  C   UNL     1       2.170   6.386  20.418  0.00  0.00    +0.000 C 
BRANCH  16  17
ATOM     17  C   UNL     1       1.774   7.737  19.872  0.00  0.00    +0.000 A 
ATOM     18  C   UNL     1       1.082   8.653  20.680  0.00  0.00    +0.000 A 
ATOM     19  C   UNL     1       0.766   9.925  20.198  0.00  0.00    +0.000 A 
ATOM     20  C   UNL     1       1.147  10.284  18.911  0.00  0.00    +0.000 A 
ATOM     21  F   UNL     1       0.865  11.513  18.458  0.00  0.00    +0.000 F 
ATOM     22  C   UNL     1       1.822   9.391  18.090  0.00  0.00    +0.000 A 
ATOM     23  C   UNL     1       2.129   8.113  18.566  0.00  0.00    +0.000 A 
ENDBRANCH  16  17
ENDBRANCH   5  16
TORSDOF 7
ENDMDL
MODEL 9
REMARK VINA RESULT:      -7.7      3.514      5.531
REMARK  Name = 
REMARK  7 active torsions:
REMARK  status: ('A' for Active; 'I' for Inactive)
REMARK    1  A    between atoms: C_2  and  O_3
REMARK    2  A    between atoms: C_2  and  C_4
REMARK    3  A    between atoms: C_4  and  C_6
REMARK    4  A    between atoms: C_6  and  C_7
REMARK    5  A    between atoms: C_7  and  C_9
REMARK    6  A    between atoms: C_13  and  C_14
REMARK    7  A    between atoms: C_14  and  C_15
REMARK                            x       y       z     vdW  Elec       q    Type
REMARK                         _______ _______ _______ _____ _____    ______ ____
ROOT
ATOM      1  C   UNL     1       3.303   4.925  18.316  0.00  0.00    +0.000 A 
ATOM      2  C   UNL     1       2.442   3.840  18.508  0.00  0.00    +0.000 A 
ATOM      3  C   UNL     1       1.445   3.897  19.483  0.00  0.00    +0.000 A 
ATOM      4  C   UNL     1       1.302   5.036  20.275  0.00  0.00    +0.000 A 
ATOM      5  C   UNL     1       2.154   6.133  20.108  0.00  0.00    +0.000 A 
ATOM      6  C   UNL     1       3.172   6.058  19.140  0.00  0.00    +0.000 A 
ENDROOT
BRANCH   1   7
ATOM      7  C   UNL     1       4.326   4.946  17.227  0.00  0.00    +0.000 C 
ATOM      8  O   UNL     1       4.401   3.998  16.443  0.00  0.00    +0.000 OA
BRANCH   7   9
ATOM      9  C   UNL     1       5.290   6.099  17.113  0.00  0.00    +0.000 C 
BRANCH   9  10
ATOM     10  C   UNL     1       6.714   5.672  16.925  0.00  0.00    +0.000 C 
ATOM     11  O   UNL     1       7.428   5.938  15.959  0.00  0.00    +0.000 OA
BRANCH  10  13
ATOM     12  O   UNL     1       7.100   5.186  19.255  0.00  0.00    +0.000 OA
ATOM     13  C   UNL     1       7.361   4.937  18.098  0.00  0.00    +0.000 C 
BRANCH  13  14
ATOM     14  O   UNL     1       8.265   4.036  17.672  0.00  0.00    +0.000 OA
ATOM     15  H   UNL     1       8.970   3.917  18.353  0.00  0.00    +0.000 HD
ENDBRANCH  13  14
ENDBRANCH  10  13
ENDBRANCH   9  10
ENDBRANCH   7   9
ENDBRANCH   1   7
BRANCH   5  16
ATOM     16  C   UNL     1       1.936   7.397  20.909  0.00  0.00    +0.000 C 
BRANCH  16  17
ATOM     17  C   UNL     1       1.235   8.520  20.182  0.00  0.00    +0.000 A 
ATOM     18  C   UNL     1       1.616   8.865  18.876  0.00  0.00    +0.000 A 
ATOM     19  C   UNL     1       0.932   9.862  18.178  0.00  0.00    +0.000 A 
ATOM     20  C   UNL     1      -0.139  10.510  18.782  0.00  0.00    +0.000 A 
ATOM     21  F   UNL     1      -0.811  11.449  18.103  0.00  0.00    +0.000 F 
ATOM     22  C   UNL     1      -0.527  10.193  20.077  0.00  0.00    +0.000 A 
ATOM     23  C   UNL     1       0.164   9.204  20.782  0.00  0.00    +0.000 A 
ENDBRANCH  16  17
ENDBRANCH   5  16
TORSDOF 7
ENDMDL
