MODEL 1
REMARK VINA RESULT:      -8.9      0.000      0.000
REMARK  Name = 
REMARK  6 active torsions:
REMARK  status: ('A' for Active; 'I' for Inactive)
REMARK    1  A    between atoms: C_1  and  C_2
REMARK    2  A    between atoms: C_4  and  C_5
REMARK    3  A    between atoms: C_5  and  C_6
REMARK    4  A    between atoms: C_11  and  O_12
REMARK    5  A    between atoms: O_12  and  C_13
REMARK    6  A    between atoms: C_18  and  C_19
REMARK                            x       y       z     vdW  Elec       q    Type
REMARK                         _______ _______ _______ _____ _____    ______ ____
ROOT
ATOM      1  C   UNL     1       2.131   7.831  19.000  0.00  0.00    +0.000 A 
ATOM      2  C   UNL     1       1.897   7.313  20.279  0.00  0.00    +0.000 A 
ATOM      3  C   UNL     1       1.155   8.046  21.208  0.00  0.00    +0.000 A 
ATOM      4  C   UNL     1       0.604   9.282  20.853  0.00  0.00    +0.000 A 
ATOM      5 CL   UNL     1      -0.298  10.144  22.048  0.00  0.00    +0.000 Cl
ATOM      6  C   UNL     1       0.785   9.796  19.564  0.00  0.00    +0.000 A 
ATOM      7  C   UNL     1       1.595   9.081  18.670  0.00  0.00    +0.000 A 
ATOM      8  F   UNL     1       1.878   9.583  17.457  0.00  0.00    +0.000 F 
ENDROOT
BRANCH   1   9
ATOM      9  C   UNL     1       2.922   7.055  17.977  0.00  0.00    +0.000 C 
BRANCH   9  13
ATOM     10  C   UNL     1       0.906   2.872  19.251  0.00  0.00    +0.000 C 
ATOM     11  C   UNL     1       1.848   3.258  18.114  0.00  0.00    +0.000 C 
ATOM     12  C   UNL     1       1.783   4.746  17.814  0.00  0.00    +0.000 C 
ATOM     13  C   UNL     1       2.994   5.549  18.224  0.00  0.00    +0.000 C 
ATOM     14  N   UNL     1       4.099   5.025  18.648  0.00  0.00    +0.000 NA
ATOM     15  N   UNL     1       4.187   3.676  18.753  0.00  0.00    +0.000 N 
ATOM     16  C   UNL     1       3.233   2.752  18.438  0.00  0.00    +0.000 C 
ATOM     17  O   UNL     1       3.494   1.549  18.470  0.00  0.00    +0.000 OA
ATOM     18  H   UNL     1       5.098   3.306  19.008  0.00  0.00    +0.000 HD
ENDBRANCH   9  13
ENDBRANCH   1   9
BRANCH   6  19
ATOM     19  O   UNL     1       0.199  11.009  19.272  0.00  0.00    +0.000 OA
BRANCH  19  20
ATOM     20  C   UNL     1      -1.040  11.049  18.671  0.00  0.00    +0.000 A 
ATOM     21  C   UNL     1      -2.057  11.659  19.409  0.00  0.00    +0.000 A 
ATOM     22  C   UNL     1      -3.323  11.806  18.848  0.00  0.00    +0.000 A 
ATOM     23 CL   UNL     1      -4.572  12.573  19.748  0.00  0.00    +0.000 Cl
ATOM     24  C   UNL     1      -3.583  11.359  17.552  0.00  0.00    +0.000 A 
ATOM     25  C   UNL     1      -2.576  10.712  16.830  0.00  0.00    +0.000 A 
ATOM     26  C   UNL     1      -1.320  10.512  17.411  0.00  0.00    +0.000 A 
BRANCH  25  27
ATOM     27  C   UNL     1      -2.803  10.304  15.476  0.00  0.00    +0.000 C 
ATOM     28  N   UNL     1      -2.950   9.982  14.371  0.00  0.00    +0.000 NA
ENDBRANCH  25  27
ENDBRANCH  19  20
ENDBRANCH   6  19
TORSDOF 5
ENDMDL
MODEL 2
REMARK VINA RESULT:      -8.6      2.178      2.719
REMARK  Name = 
REMARK  6 active torsions:
REMARK  status: ('A' for Active; 'I' for Inactive)
REMARK    1  A    between atoms: C_1  and  C_2
REMARK    2  A    between atoms: C_4  and  C_5
REMARK    3  A    between atoms: C_5  and  C_6
REMARK    4  A    between atoms: C_11  and  O_12
REMARK    5  A    between atoms: O_12  and  C_13
REMARK    6  A    between atoms: C_18  and  C_19
REMARK                            x       y       z     vdW  Elec       q    Type
REMARK                         _______ _______ _______ _____ _____    ______ ____
ROOT
ATOM      1  C   UNL     1       2.314   6.277  18.757  0.00  0.00    +0.000 A 
ATOM      2  C   UNL     1       2.081   5.798  20.050  0.00  0.00    +0.000 A 
ATOM      3  C   UNL     1       1.678   6.675  21.061  0.00  0.00    +0.000 A 
ATOM      4  C   UNL     1       1.462   8.027  20.777  0.00  0.00    +0.000 A 
ATOM      5 CL   UNL     1       0.970   9.062  22.069  0.00  0.00    +0.000 Cl
ATOM      6  C   UNL     1       1.641   8.517  19.478  0.00  0.00    +0.000 A 
ATOM      7  C   UNL     1       2.118   7.638  18.495  0.00  0.00    +0.000 A 
ATOM      8  F   UNL     1       2.401   8.085  17.260  0.00  0.00    +0.000 F 
ENDROOT
BRANCH   1   9
ATOM      9  C   UNL     1       2.742   5.350  17.647  0.00  0.00    +0.000 C 
BRANCH   9  13
ATOM     10  C   UNL     1       6.929   4.939  15.306  0.00  0.00    +0.000 C 
ATOM     11  C   UNL     1       6.559   5.547  16.656  0.00  0.00    +0.000 C 
ATOM     12  C   UNL     1       5.084   5.908  16.722  0.00  0.00    +0.000 C 
ATOM     13  C   UNL     1       4.235   5.032  17.612  0.00  0.00    +0.000 C 
ATOM     14  N   UNL     1       4.715   4.134  18.411  0.00  0.00    +0.000 NA
ATOM     15  N   UNL     1       6.057   3.942  18.453  0.00  0.00    +0.000 N 
ATOM     16  C   UNL     1       7.016   4.613  17.750  0.00  0.00    +0.000 C 
ATOM     17  O   UNL     1       8.211   4.414  17.978  0.00  0.00    +0.000 OA
ATOM     18  H   UNL     1       6.394   3.289  19.155  0.00  0.00    +0.000 HD
ENDBRANCH   9  13
ENDBRANCH   1   9
BRANCH   6  19
ATOM     19  O   UNL     1       1.391   9.856  19.260  0.00  0.00    +0.000 OA
BRANCH  19  20
ATOM     20  C   UNL     1       0.123  10.273  18.924  0.00  0.00    +0.000 A 
ATOM     21  C   UNL     1      -0.460  11.206  19.784  0.00  0.00    +0.000 A 
ATOM     22  C   UNL     1      -1.712  11.736  19.480  0.00  0.00    +0.000 A 
ATOM     23 CL   UNL     1      -2.424  12.899  20.529  0.00  0.00    +0.000 Cl
ATOM     24  C   UNL     1      -2.384  11.353  18.320  0.00  0.00    +0.000 A 
ATOM     25  C   UNL     1      -1.818  10.389  17.481  0.00  0.00    +0.000 A 
ATOM     26  C   UNL     1      -0.587   9.812  17.812  0.00  0.00    +0.000 A 
BRANCH  25  27
ATOM     27  C   UNL     1      -2.461  10.029  16.253  0.00  0.00    +0.000 C 
ATOM     28  N   UNL     1      -2.972   9.771  15.243  0.00  0.00    +0.000 NA
ENDBRANCH  25  27
ENDBRANCH  19  20
ENDBRANCH   6  19
TORSDOF 5
ENDMDL
MODEL 3
REMARK VINA RESULT:      -8.5      1.727      2.156
REMARK  Name = 
REMARK  6 active torsions:
REMARK  status: ('A' for Active; 'I' for Inactive)
REMARK    1  A    between atoms: C_1  and  C_2
REMARK    2  A    between atoms: C_4  and  C_5
REMARK    3  A    between atoms: C_5  and  C_6
REMARK    4  A    between atoms: C_11  and  O_12
REMARK    5  A    between atoms: O_12  and  C_13
REMARK    6  A    between atoms: C_18  and  C_19
REMARK                            x       y       z     vdW  Elec       q    Type
REMARK                         _______ _______ _______ _____ _____    ______ ____
ROOT
ATOM      1  C   UNL     1       2.109   7.929  19.051  0.00  0.00    +0.000 A 
ATOM      2  C   UNL     1       1.848   7.434  20.334  0.00  0.00    +0.000 A 
ATOM      3  C   UNL     1       1.098   8.191  21.238  0.00  0.00    +0.000 A 
ATOM      4  C   UNL     1       0.568   9.427  20.854  0.00  0.00    +0.000 A 
ATOM      5 CL   UNL     1      -0.345  10.318  22.019  0.00  0.00    +0.000 Cl
ATOM      6  C   UNL     1       0.776   9.917  19.560  0.00  0.00    +0.000 A 
ATOM      7  C   UNL     1       1.592   9.179  18.692  0.00  0.00    +0.000 A 
ATOM      8  F   UNL     1       1.902   9.658  17.475  0.00  0.00    +0.000 F 
ENDROOT
BRANCH   1   9
ATOM      9  C   UNL     1       2.908   7.127  18.054  0.00  0.00    +0.000 C 
BRANCH   9  13
ATOM     10  C   UNL     1       0.875   2.919  19.211  0.00  0.00    +0.000 C 
ATOM     11  C   UNL     1       1.927   3.305  18.175  0.00  0.00    +0.000 C 
ATOM     12  C   UNL     1       1.857   4.783  17.829  0.00  0.00    +0.000 C 
ATOM     13  C   UNL     1       2.992   5.631  18.349  0.00  0.00    +0.000 C 
ATOM     14  N   UNL     1       4.057   5.150  18.907  0.00  0.00    +0.000 NA
ATOM     15  N   UNL     1       4.168   3.807  19.058  0.00  0.00    +0.000 N 
ATOM     16  C   UNL     1       3.281   2.848  18.664  0.00  0.00    +0.000 C 
ATOM     17  O   UNL     1       3.569   1.654  18.759  0.00  0.00    +0.000 OA
ATOM     18  H   UNL     1       5.056   3.471  19.422  0.00  0.00    +0.000 HD
ENDBRANCH   9  13
ENDBRANCH   1   9
BRANCH   6  19
ATOM     19  O   UNL     1       0.208  11.132  19.238  0.00  0.00    +0.000 OA
BRANCH  19  20
ATOM     20  C   UNL     1      -1.081  11.184  18.758  0.00  0.00    +0.000 A 
ATOM     21  C   UNL     1      -1.324  10.472  17.581  0.00  0.00    +0.000 A 
ATOM     22  C   UNL     1      -2.616  10.412  17.065  0.00  0.00    +0.000 A 
ATOM     23 CL   UNL     1      -2.919   9.521  15.625  0.00  0.00    +0.000 Cl
ATOM     24  C   UNL     1      -3.673  11.046  17.718  0.00  0.00    +0.000 A 
ATOM     25  C   UNL     1      -3.422  11.791  18.873  0.00  0.00    +0.000 A 
ATOM     26  C   UNL     1      -2.117  11.902  19.363  0.00  0.00    +0.000 A 
BRANCH  25  27
ATOM     27  C   UNL     1      -4.502  12.396  19.593  0.00  0.00    +0.000 C 
ATOM     28  N   UNL     1      -5.367  12.866  20.208  0.00  0.00    +0.000 NA
ENDBRANCH  25  27
ENDBRANCH  19  20
ENDBRANCH   6  19
TORSDOF 5
ENDMDL
MODEL 4
REMARK VINA RESULT:      -8.3      3.683      8.323
REMARK  Name = 
REMARK  6 active torsions:
REMARK  status: ('A' for Active; 'I' for Inactive)
REMARK    1  A    between atoms: C_1  and  C_2
REMARK    2  A    between atoms: C_4  and  C_5
REMARK    3  A    between atoms: C_5  and  C_6
REMARK    4  A    between atoms: C_11  and  O_12
REMARK    5  A    between atoms: O_12  and  C_13
REMARK    6  A    between atoms: C_18  and  C_19
REMARK                            x       y       z     vdW  Elec       q    Type
REMARK                         _______ _______ _______ _____ _____    ______ ____
ROOT
ATOM      1  C   UNL     1       1.917   8.287  18.981  0.00  0.00    +0.000 A 
ATOM      2  C   UNL     1       1.477   8.180  20.305  0.00  0.00    +0.000 A 
ATOM      3  C   UNL     1       1.559   6.957  20.975  0.00  0.00    +0.000 A 
ATOM      4  C   UNL     1       2.120   5.843  20.343  0.00  0.00    +0.000 A 
ATOM      5 CL   UNL     1       2.188   4.357  21.221  0.00  0.00    +0.000 Cl
ATOM      6  C   UNL     1       2.612   5.941  19.036  0.00  0.00    +0.000 A 
ATOM      7  C   UNL     1       2.453   7.156  18.355  0.00  0.00    +0.000 A 
ATOM      8  F   UNL     1       2.818   7.268  17.066  0.00  0.00    +0.000 F 
ENDROOT
BRANCH   1   9
ATOM      9  C   UNL     1       1.847   9.599  18.239  0.00  0.00    +0.000 C 
BRANCH   9  13
ATOM     10  C   UNL     1      -2.440  11.076  16.621  0.00  0.00    +0.000 C 
ATOM     11  C   UNL     1      -1.982  10.522  17.967  0.00  0.00    +0.000 C 
ATOM     12  C   UNL     1      -0.697   9.721  17.836  0.00  0.00    +0.000 C 
ATOM     13  C   UNL     1       0.539  10.368  18.411  0.00  0.00    +0.000 C 
ATOM     14  N   UNL     1       0.524  11.448  19.124  0.00  0.00    +0.000 NA
ATOM     15  N   UNL     1      -0.662  12.058  19.365  0.00  0.00    +0.000 N 
ATOM     16  C   UNL     1      -1.903  11.659  18.958  0.00  0.00    +0.000 C 
ATOM     17  O   UNL     1      -2.910  12.248  19.353  0.00  0.00    +0.000 OA
ATOM     18  H   UNL     1      -0.636  12.852  19.999  0.00  0.00    +0.000 HD
ENDBRANCH   9  13
ENDBRANCH   1   9
BRANCH   6  19
ATOM     19  O   UNL     1       3.172   4.811  18.478  0.00  0.00    +0.000 OA
BRANCH  19  20
ATOM     20  C   UNL     1       4.420   4.876  17.900  0.00  0.00    +0.000 A 
ATOM     21  C   UNL     1       5.468   5.242  18.749  0.00  0.00    +0.000 A 
ATOM     22  C   UNL     1       6.774   5.262  18.264  0.00  0.00    +0.000 A 
ATOM     23 CL   UNL     1       8.067   5.695  19.313  0.00  0.00    +0.000 Cl
ATOM     24  C   UNL     1       7.047   4.910  16.942  0.00  0.00    +0.000 A 
ATOM     25  C   UNL     1       5.994   4.584  16.083  0.00  0.00    +0.000 A 
ATOM     26  C   UNL     1       4.676   4.618  16.551  0.00  0.00    +0.000 A 
BRANCH  25  27
ATOM     27  C   UNL     1       6.259   4.158  14.742  0.00  0.00    +0.000 C 
ATOM     28  N   UNL     1       6.465   3.849  13.642  0.00  0.00    +0.000 NA
ENDBRANCH  25  27
ENDBRANCH  19  20
ENDBRANCH   6  19
TORSDOF 5
ENDMDL
MODEL 5
REMARK VINA RESULT:      -8.2      2.701      3.405
REMARK  Name = 
REMARK  6 active torsions:
REMARK  status: ('A' for Active; 'I' for Inactive)
REMARK    1  A    between atoms: C_1  and  C_2
REMARK    2  A    between atoms: C_4  and  C_5
REMARK    3  A    between atoms: C_5  and  C_6
REMARK    4  A    between atoms: C_11  and  O_12
REMARK    5  A    between atoms: O_12  and  C_13
REMARK    6  A    between atoms: C_18  and  C_19
REMARK                            x       y       z     vdW  Elec       q    Type
REMARK                         _______ _______ _______ _____ _____    ______ ____
ROOT
ATOM      1  C   UNL     1       2.258   6.504  18.780  0.00  0.00    +0.000 A 
ATOM      2  C   UNL     1       2.004   6.053  20.079  0.00  0.00    +0.000 A 
ATOM      3  C   UNL     1       1.605   6.953  21.070  0.00  0.00    +0.000 A 
ATOM      4  C   UNL     1       1.413   8.303  20.760  0.00  0.00    +0.000 A 
ATOM      5 CL   UNL     1       0.925   9.368  22.029  0.00  0.00    +0.000 Cl
ATOM      6  C   UNL     1       1.614   8.767  19.454  0.00  0.00    +0.000 A 
ATOM      7  C   UNL     1       2.087   7.864  18.492  0.00  0.00    +0.000 A 
ATOM      8  F   UNL     1       2.389   8.284  17.253  0.00  0.00    +0.000 F 
ENDROOT
BRANCH   1   9
ATOM      9  C   UNL     1       2.682   5.551  17.691  0.00  0.00    +0.000 C 
BRANCH   9  13
ATOM     10  C   UNL     1       6.920   5.019  15.469  0.00  0.00    +0.000 C 
ATOM     11  C   UNL     1       6.531   5.628  16.813  0.00  0.00    +0.000 C 
ATOM     12  C   UNL     1       5.067   6.037  16.840  0.00  0.00    +0.000 C 
ATOM     13  C   UNL     1       4.165   5.184  17.697  0.00  0.00    +0.000 C 
ATOM     14  N   UNL     1       4.591   4.264  18.502  0.00  0.00    +0.000 NA
ATOM     15  N   UNL     1       5.923   4.028  18.581  0.00  0.00    +0.000 N 
ATOM     16  C   UNL     1       6.925   4.671  17.913  0.00  0.00    +0.000 C 
ATOM     17  O   UNL     1       8.105   4.431  18.173  0.00  0.00    +0.000 OA
ATOM     18  H   UNL     1       6.218   3.358  19.287  0.00  0.00    +0.000 HD
ENDBRANCH   9  13
ENDBRANCH   1   9
BRANCH   6  19
ATOM     19  O   UNL     1       1.388  10.106  19.210  0.00  0.00    +0.000 OA
BRANCH  19  20
ATOM     20  C   UNL     1       0.111  10.552  18.954  0.00  0.00    +0.000 A 
ATOM     21  C   UNL     1      -0.512  10.009  17.829  0.00  0.00    +0.000 A 
ATOM     22  C   UNL     1      -1.831  10.351  17.537  0.00  0.00    +0.000 A 
ATOM     23 CL   UNL     1      -2.606   9.669  16.162  0.00  0.00    +0.000 Cl
ATOM     24  C   UNL     1      -2.538  11.224  18.364  0.00  0.00    +0.000 A 
ATOM     25  C   UNL     1      -1.901  11.799  19.467  0.00  0.00    +0.000 A 
ATOM     26  C   UNL     1      -0.560  11.502  19.731  0.00  0.00    +0.000 A 
BRANCH  25  27
ATOM     27  C   UNL     1      -2.628  12.646  20.364  0.00  0.00    +0.000 C 
ATOM     28  N   UNL     1      -3.237  13.301  21.104  0.00  0.00    +0.000 NA
ENDBRANCH  25  27
ENDBRANCH  19  20
ENDBRANCH   6  19
TORSDOF 5
ENDMDL
MODEL 6
REMARK VINA RESULT:      -8.2      1.263      1.435
REMARK  Name = 
REMARK  6 active torsions:
REMARK  status: ('A' for Active; 'I' for Inactive)
REMARK    1  A    between atoms: C_1  and  C_2
REMARK    2  A    between atoms: C_4  and  C_5
REMARK    3  A    between atoms: C_5  and  C_6
REMARK    4  A    between atoms: C_11  and  O_12
REMARK    5  A    between atoms: O_12  and  C_13
REMARK    6  A    between atoms: C_18  and  C_19
REMARK                            x       y       z     vdW  Elec       q    Type
REMARK                         _______ _______ _______ _____ _____    ______ ____
ROOT
ATOM      1  C   UNL     1       1.837   8.120  19.680  0.00  0.00    +0.000 A 
ATOM      2  C   UNL     1       1.579   7.920  21.041  0.00  0.00    +0.000 A 
ATOM      3  C   UNL     1       0.841   8.862  21.762  0.00  0.00    +0.000 A 
ATOM      4  C   UNL     1       0.319   9.990  21.120  0.00  0.00    +0.000 A 
ATOM      5 CL   UNL     1      -0.579  11.122  22.066  0.00  0.00    +0.000 Cl
ATOM      6  C   UNL     1       0.524  10.184  19.749  0.00  0.00    +0.000 A 
ATOM      7  C   UNL     1       1.329   9.267  19.059  0.00  0.00    +0.000 A 
ATOM      8  F   UNL     1       1.636   9.466  17.766  0.00  0.00    +0.000 F 
ENDROOT
BRANCH   1   9
ATOM      9  C   UNL     1       2.623   7.113  18.879  0.00  0.00    +0.000 C 
BRANCH   9  13
ATOM     10  C   UNL     1       2.116   2.914  21.179  0.00  0.00    +0.000 C 
ATOM     11  C   UNL     1       1.141   3.777  20.382  0.00  0.00    +0.000 C 
ATOM     12  C   UNL     1       1.605   5.222  20.306  0.00  0.00    +0.000 C 
ATOM     13  C   UNL     1       2.104   5.679  18.957  0.00  0.00    +0.000 C 
ATOM     14  N   UNL     1       2.005   4.977  17.874  0.00  0.00    +0.000 NA
ATOM     15  N   UNL     1       1.435   3.748  17.939  0.00  0.00    +0.000 N 
ATOM     16  C   UNL     1       0.910   3.131  19.037  0.00  0.00    +0.000 C 
ATOM     17  O   UNL     1       0.314   2.058  18.925  0.00  0.00    +0.000 OA
ATOM     18  H   UNL     1       1.301   3.271  17.052  0.00  0.00    +0.000 HD
ENDBRANCH   9  13
ENDBRANCH   1   9
BRANCH   6  19
ATOM     19  O   UNL     1      -0.035  11.305  19.172  0.00  0.00    +0.000 OA
BRANCH  19  20
ATOM     20  C   UNL     1      -1.252  11.217  18.535  0.00  0.00    +0.000 A 
ATOM     21  C   UNL     1      -2.346  11.731  19.234  0.00  0.00    +0.000 A 
ATOM     22  C   UNL     1      -3.604  11.748  18.634  0.00  0.00    +0.000 A 
ATOM     23 CL   UNL     1      -4.948  12.396  19.488  0.00  0.00    +0.000 Cl
ATOM     24  C   UNL     1      -3.778  11.267  17.337  0.00  0.00    +0.000 A 
ATOM     25  C   UNL     1      -2.691  10.716  16.653  0.00  0.00    +0.000 A 
ATOM     26  C   UNL     1      -1.440  10.645  17.273  0.00  0.00    +0.000 A 
BRANCH  25  27
ATOM     27  C   UNL     1      -2.836  10.275  15.298  0.00  0.00    +0.000 C 
ATOM     28  N   UNL     1      -2.991   9.914  14.206  0.00  0.00    +0.000 NA
ENDBRANCH  25  27
ENDBRANCH  19  20
ENDBRANCH   6  19
TORSDOF 5
ENDMDL
MODEL 7
REMARK VINA RESULT:      -8.2      1.905      2.501
REMARK  Name = 
REMARK  6 active torsions:
REMARK  status: ('A' for Active; 'I' for Inactive)
REMARK    1  A    between atoms: C_1  and  C_2
REMARK    2  A    between atoms: C_4  and  C_5
REMARK    3  A    between atoms: C_5  and  C_6
REMARK    4  A    between atoms: C_11  and  O_12
REMARK    5  A    between atoms: O_12  and  C_13
REMARK    6  A    between atoms: C_18  and  C_19
REMARK                            x       y       z     vdW  Elec       q    Type
REMARK                         _______ _______ _______ _____ _____    ______ ____
ROOT
ATOM      1  C   UNL     1       2.087   7.493  18.963  0.00  0.00    +0.000 A 
ATOM      2  C   UNL     1       1.949   7.107  20.301  0.00  0.00    +0.000 A 
ATOM      3  C   UNL     1       1.384   7.985  21.229  0.00  0.00    +0.000 A 
ATOM      4  C   UNL     1       0.913   9.237  20.820  0.00  0.00    +0.000 A 
ATOM      5 CL   UNL     1       0.231  10.279  22.016  0.00  0.00    +0.000 Cl
ATOM      6  C   UNL     1       0.997   9.623  19.478  0.00  0.00    +0.000 A 
ATOM      7  C   UNL     1       1.635   8.760  18.576  0.00  0.00    +0.000 A 
ATOM      8  F   UNL     1       1.828   9.130  17.299  0.00  0.00    +0.000 F 
ENDROOT
BRANCH   1   9
ATOM      9  C   UNL     1       2.687   6.560  17.940  0.00  0.00    +0.000 C 
BRANCH   9  13
ATOM     10  C   UNL     1       7.155   5.592  16.432  0.00  0.00    +0.000 C 
ATOM     11  C   UNL     1       6.618   6.402  17.609  0.00  0.00    +0.000 C 
ATOM     12  C   UNL     1       5.185   6.851  17.371  0.00  0.00    +0.000 C 
ATOM     13  C   UNL     1       4.135   6.158  18.205  0.00  0.00    +0.000 C 
ATOM     14  N   UNL     1       4.405   5.354  19.184  0.00  0.00    +0.000 NA
ATOM     15  N   UNL     1       5.702   5.095  19.482  0.00  0.00    +0.000 N 
ATOM     16  C   UNL     1       6.814   5.606  18.876  0.00  0.00    +0.000 C 
ATOM     17  O   UNL     1       7.935   5.374  19.331  0.00  0.00    +0.000 OA
ATOM     18  H   UNL     1       5.866   4.528  20.309  0.00  0.00    +0.000 HD
ENDBRANCH   9  13
ENDBRANCH   1   9
BRANCH   6  19
ATOM     19  O   UNL     1       0.495  10.861  19.136  0.00  0.00    +0.000 OA
BRANCH  19  20
ATOM     20  C   UNL     1      -0.779  10.971  18.628  0.00  0.00    +0.000 A 
ATOM     21  C   UNL     1      -1.707  11.624  19.442  0.00  0.00    +0.000 A 
ATOM     22  C   UNL     1      -3.002  11.843  18.975  0.00  0.00    +0.000 A 
ATOM     23 CL   UNL     1      -4.141  12.662  19.969  0.00  0.00    +0.000 Cl
ATOM     24  C   UNL     1      -3.377  11.426  17.698  0.00  0.00    +0.000 A 
ATOM     25  C   UNL     1      -2.459  10.737  16.900  0.00  0.00    +0.000 A 
ATOM     26  C   UNL     1      -1.177  10.465  17.387  0.00  0.00    +0.000 A 
BRANCH  25  27
ATOM     27  C   UNL     1      -2.804  10.358  15.562  0.00  0.00    +0.000 C 
ATOM     28  N   UNL     1      -3.048  10.033  14.475  0.00  0.00    +0.000 NA
ENDBRANCH  25  27
ENDBRANCH  19  20
ENDBRANCH   6  19
TORSDOF 5
ENDMDL
MODEL 8
REMARK VINA RESULT:      -8.1      4.308      8.423
REMARK  Name = 
REMARK  6 active torsions:
REMARK  status: ('A' for Active; 'I' for Inactive)
REMARK    1  A    between atoms: C_1  and  C_2
REMARK    2  A    between atoms: C_4  and  C_5
REMARK    3  A    between atoms: C_5  and  C_6
REMARK    4  A    between atoms: C_11  and  O_12
REMARK    5  A    between atoms: O_12  and  C_13
REMARK    6  A    between atoms: C_18  and  C_19
REMARK                            x       y       z     vdW  Elec       q    Type
REMARK                         _______ _______ _______ _____ _____    ______ ____
ROOT
ATOM      1  C   UNL     1       2.071   5.048  20.197  0.00  0.00    +0.000 A 
ATOM      2  C   UNL     1       1.216   3.963  19.972  0.00  0.00    +0.000 A 
ATOM      3  C   UNL     1       1.711   2.784  19.408  0.00  0.00    +0.000 A 
ATOM      4  C   UNL     1       3.072   2.665  19.105  0.00  0.00    +0.000 A 
ATOM      5 CL   UNL     1       3.622   1.186  18.404  0.00  0.00    +0.000 Cl
ATOM      6  C   UNL     1       3.953   3.721  19.368  0.00  0.00    +0.000 A 
ATOM      7  C   UNL     1       3.424   4.921  19.864  0.00  0.00    +0.000 A 
ATOM      8  F   UNL     1       4.215   5.993  20.037  0.00  0.00    +0.000 F 
ENDROOT
BRANCH   1   9
ATOM      9  C   UNL     1       1.562   6.327  20.812  0.00  0.00    +0.000 C 
BRANCH   9  13
ATOM     10  C   UNL     1      -0.402  10.395  19.146  0.00  0.00    +0.000 C 
ATOM     11  C   UNL     1       1.030  10.018  19.516  0.00  0.00    +0.000 C 
ATOM     12  C   UNL     1       1.069   8.835  20.469  0.00  0.00    +0.000 C 
ATOM     13  C   UNL     1       1.566   7.537  19.881  0.00  0.00    +0.000 C 
ATOM     14  N   UNL     1       2.091   7.432  18.702  0.00  0.00    +0.000 NA
ATOM     15  N   UNL     1       2.194   8.541  17.929  0.00  0.00    +0.000 N 
ATOM     16  C   UNL     1       1.821   9.816  18.246  0.00  0.00    +0.000 C 
ATOM     17  O   UNL     1       2.084  10.750  17.488  0.00  0.00    +0.000 OA
ATOM     18  H   UNL     1       2.689   8.428  17.048  0.00  0.00    +0.000 HD
ENDBRANCH   9  13
ENDBRANCH   1   9
BRANCH   6  19
ATOM     19  O   UNL     1       5.285   3.531  19.065  0.00  0.00    +0.000 OA
BRANCH  19  20
ATOM     20  C   UNL     1       5.888   4.308  18.102  0.00  0.00    +0.000 A 
ATOM     21  C   UNL     1       5.763   3.857  16.787  0.00  0.00    +0.000 A 
ATOM     22  C   UNL     1       6.282   4.620  15.743  0.00  0.00    +0.000 A 
ATOM     23 CL   UNL     1       6.113   4.075  14.120  0.00  0.00    +0.000 Cl
ATOM     24  C   UNL     1       6.916   5.836  15.998  0.00  0.00    +0.000 A 
ATOM     25  C   UNL     1       7.077   6.267  17.318  0.00  0.00    +0.000 A 
ATOM     26  C   UNL     1       6.608   5.476  18.372  0.00  0.00    +0.000 A 
BRANCH  25  27
ATOM     27  C   UNL     1       7.667   7.541  17.597  0.00  0.00    +0.000 C 
ATOM     28  N   UNL     1       8.122   8.590  17.796  0.00  0.00    +0.000 NA
ENDBRANCH  25  27
ENDBRANCH  19  20
ENDBRANCH   6  19
TORSDOF 5
ENDMDL
MODEL 9
REMARK VINA RESULT:      -8.1      4.206      8.295
REMARK  Name = 
REMARK  6 active torsions:
REMARK  status: ('A' for Active; 'I' for Inactive)
REMARK    1  A    between atoms: C_1  and  C_2
REMARK    2  A    between atoms: C_4  and  C_5
REMARK    3  A    between atoms: C_5  and  C_6
REMARK    4  A    between atoms: C_11  and  O_12
REMARK    5  A    between atoms: O_12  and  C_13
REMARK    6  A    between atoms: C_18  and  C_19
REMARK                            x       y       z     vdW  Elec       q    Type
REMARK                         _______ _______ _______ _____ _____    ______ ____
ROOT
ATOM      1  C   UNL     1       2.050   5.080  20.287  0.00  0.00    +0.000 A 
ATOM      2  C   UNL     1       1.161   4.034  20.015  0.00  0.00    +0.000 A 
ATOM      3  C   UNL     1       1.603   2.895  19.339  0.00  0.00    +0.000 A 
ATOM      4  C   UNL     1       2.947   2.772  18.968  0.00  0.00    +0.000 A 
ATOM      5 CL   UNL     1       3.431   1.343  18.129  0.00  0.00    +0.000 Cl
ATOM      6  C   UNL     1       3.863   3.785  19.274  0.00  0.00    +0.000 A 
ATOM      7  C   UNL     1       3.385   4.952  19.885  0.00  0.00    +0.000 A 
ATOM      8  F   UNL     1       4.207   5.991  20.108  0.00  0.00    +0.000 F 
ENDROOT
BRANCH   1   9
ATOM      9  C   UNL     1       1.598   6.317  21.023  0.00  0.00    +0.000 C 
BRANCH   9  13
ATOM     10  C   UNL     1      -0.660  10.326  19.605  0.00  0.00    +0.000 C 
ATOM     11  C   UNL     1       0.796  10.033  19.959  0.00  0.00    +0.000 C 
ATOM     12  C   UNL     1       0.922   8.798  20.836  0.00  0.00    +0.000 C 
ATOM     13  C   UNL     1       1.514   7.580  20.170  0.00  0.00    +0.000 C 
ATOM     14  N   UNL     1       2.047   7.589  18.990  0.00  0.00    +0.000 NA
ATOM     15  N   UNL     1       2.068   8.750  18.289  0.00  0.00    +0.000 N 
ATOM     16  C   UNL     1       1.602   9.971  18.684  0.00  0.00    +0.000 C 
ATOM     17  O   UNL     1       1.796  10.968  17.988  0.00  0.00    +0.000 OA
ATOM     18  H   UNL     1       2.571   8.730  17.406  0.00  0.00    +0.000 HD
ENDBRANCH   9  13
ENDBRANCH   1   9
BRANCH   6  19
ATOM     19  O   UNL     1       5.176   3.593  18.899  0.00  0.00    +0.000 OA
BRANCH  19  20
ATOM     20  C   UNL     1       5.691   4.278  17.822  0.00  0.00    +0.000 A 
ATOM     21  C   UNL     1       6.375   5.459  18.119  0.00  0.00    +0.000 A 
ATOM     22  C   UNL     1       6.990   6.177  17.095  0.00  0.00    +0.000 A 
ATOM     23 CL   UNL     1       7.848   7.622  17.462  0.00  0.00    +0.000 Cl
ATOM     24  C   UNL     1       6.938   5.723  15.777  0.00  0.00    +0.000 A 
ATOM     25  C   UNL     1       6.218   4.563  15.476  0.00  0.00    +0.000 A 
ATOM     26  C   UNL     1       5.552   3.871  16.491  0.00  0.00    +0.000 A 
BRANCH  25  27
ATOM     27  C   UNL     1       6.206   4.046  14.140  0.00  0.00    +0.000 C 
ATOM     28  N   UNL     1       6.235   3.626  13.058  0.00  0.00    +0.000 NA
ENDBRANCH  25  27
ENDBRANCH  19  20
ENDBRANCH   6  19
TORSDOF 5
ENDMDL
