MODEL 1
REMARK VINA RESULT:      -7.0      0.000      0.000
REMARK  Name = 
REMARK  5 active torsions:
REMARK  status: ('A' for Active; 'I' for Inactive)
REMARK    1  A    between atoms: C_2  and  C_3
REMARK    2  A    between atoms: C_3  and  O_4
REMARK    3  A    between atoms: O_4  and  C_5
REMARK    4  A    between atoms: N_14  and  C_15
REMARK    5  A    between atoms: C_15  and  C_16
REMARK                            x       y       z     vdW  Elec       q    Type
REMARK                         _______ _______ _______ _____ _____    ______ ____
ROOT
ATOM      1  C   UNL     1       3.754   5.317  19.515  0.00  0.00    +0.000 C 
ENDROOT
BRANCH   1   3
ATOM      2  O   UNL     1       5.639   3.815  19.404  0.00  0.00    +0.000 OA
ATOM      3  C   UNL     1       5.119   4.856  19.003  0.00  0.00    +0.000 C 
ATOM      4  N   UNL     1       5.709   5.651  18.064  0.00  0.00    +0.000 N 
ATOM      5  H   UNL     1       5.229   6.506  17.790  0.00  0.00    +0.000 HD
BRANCH   4   6
ATOM      6  C   UNL     1       7.001   5.377  17.447  0.00  0.00    +0.000 C 
BRANCH   6   7
ATOM      7  C   UNL     1       6.797   4.863  16.067  0.00  0.00    +0.000 A 
ATOM      8  C   UNL     1       6.000   3.878  15.518  0.00  0.00    +0.000 A 
ATOM      9  C   UNL     1       6.252   3.883  14.124  0.00  0.00    +0.000 A 
ATOM     10  C   UNL     1       7.187   4.867  13.907  0.00  0.00    +0.000 A 
ATOM     11  O   UNL     1       7.521   5.471  15.077  0.00  0.00    +0.000 OA
ENDBRANCH   6   7
ENDBRANCH   4   6
ENDBRANCH   1   3
BRANCH   1  12
ATOM     12  O   UNL     1       3.037   5.982  18.480  0.00  0.00    +0.000 OA
BRANCH  12  13
ATOM     13  C   UNL     1       2.421   7.155  18.835  0.00  0.00    +0.000 A 
ATOM     14  C   UNL     1       2.158   8.221  17.953  0.00  0.00    +0.000 A 
ATOM     15  C   UNL     1       1.511   9.378  18.396  0.00  0.00    +0.000 A 
ATOM     16  C   UNL     1       1.147   9.439  19.721  0.00  0.00    +0.000 A 
ATOM     17  C   UNL     1       1.400   8.404  20.590  0.00  0.00    +0.000 A 
ATOM     18  C   UNL     1       2.033   7.249  20.177  0.00  0.00    +0.000 A 
ATOM     19  O   UNL     1       0.949   8.665  21.847  0.00  0.00    +0.000 OA
ATOM     20  C   UNL     1       0.442  10.005  21.681  0.00  0.00    +0.000 C 
ATOM     21  O   UNL     1       0.510  10.480  20.321  0.00  0.00    +0.000 OA
ENDBRANCH  12  13
ENDBRANCH   1  12
TORSDOF 5
ENDMDL
MODEL 2
REMARK VINA RESULT:      -7.0      4.044      4.806
REMARK  Name = 
REMARK  5 active torsions:
REMARK  status: ('A' for Active; 'I' for Inactive)
REMARK    1  A    between atoms: C_2  and  C_3
REMARK    2  A    between atoms: C_3  and  O_4
REMARK    3  A    between atoms: O_4  and  C_5
REMARK    4  A    between atoms: N_14  and  C_15
REMARK    5  A    between atoms: C_15  and  C_16
REMARK                            x       y       z     vdW  Elec       q    Type
REMARK                         _______ _______ _______ _____ _____    ______ ____
ROOT
ATOM      1  C   UNL     1       5.546   5.234  17.135  0.00  0.00    +0.000 C 
ENDROOT
BRANCH   1   3
ATOM      2  O   UNL     1       7.369   6.167  15.861  0.00  0.00    +0.000 OA
ATOM      3  C   UNL     1       6.437   5.365  15.900  0.00  0.00    +0.000 C 
ATOM      4  N   UNL     1       6.153   4.527  14.861  0.00  0.00    +0.000 N 
ATOM      5  H   UNL     1       5.357   3.899  14.956  0.00  0.00    +0.000 HD
BRANCH   4   6
ATOM      6  C   UNL     1       6.893   4.491  13.605  0.00  0.00    +0.000 C 
BRANCH   6   7
ATOM      7  C   UNL     1       6.198   3.598  12.642  0.00  0.00    +0.000 A 
ATOM      8  C   UNL     1       6.588   2.504  11.895  0.00  0.00    +0.000 A 
ATOM      9  C   UNL     1       5.445   2.077  11.173  0.00  0.00    +0.000 A 
ATOM     10  C   UNL     1       4.431   2.937  11.521  0.00  0.00    +0.000 A 
ATOM     11  O   UNL     1       4.874   3.860  12.414  0.00  0.00    +0.000 OA
ENDBRANCH   6   7
ENDBRANCH   4   6
ENDBRANCH   1   3
BRANCH   1  12
ATOM     12  O   UNL     1       5.117   3.885  17.295  0.00  0.00    +0.000 OA
BRANCH  12  13
ATOM     13  C   UNL     1       3.953   3.705  17.996  0.00  0.00    +0.000 A 
ATOM     14  C   UNL     1       2.661   3.893  17.467  0.00  0.00    +0.000 A 
ATOM     15  C   UNL     1       1.524   3.672  18.250  0.00  0.00    +0.000 A 
ATOM     16  C   UNL     1       1.714   3.270  19.552  0.00  0.00    +0.000 A 
ATOM     17  C   UNL     1       2.970   3.083  20.077  0.00  0.00    +0.000 A 
ATOM     18  C   UNL     1       4.109   3.290  19.325  0.00  0.00    +0.000 A 
ATOM     19  O   UNL     1       2.931   2.675  21.375  0.00  0.00    +0.000 OA
ATOM     20  C   UNL     1       1.509   2.688  21.621  0.00  0.00    +0.000 C 
ATOM     21  O   UNL     1       0.728   3.006  20.451  0.00  0.00    +0.000 OA
ENDBRANCH  12  13
ENDBRANCH   1  12
TORSDOF 5
ENDMDL
MODEL 3
REMARK VINA RESULT:      -6.9      4.021      6.199
REMARK  Name = 
REMARK  5 active torsions:
REMARK  status: ('A' for Active; 'I' for Inactive)
REMARK    1  A    between atoms: C_2  and  C_3
REMARK    2  A    between atoms: C_3  and  O_4
REMARK    3  A    between atoms: O_4  and  C_5
REMARK    4  A    between atoms: N_14  and  C_15
REMARK    5  A    between atoms: C_15  and  C_16
REMARK                            x       y       z     vdW  Elec       q    Type
REMARK                         _______ _______ _______ _____ _____    ______ ____
ROOT
ATOM      1  C   UNL     1       7.586   5.635  18.696  0.00  0.00    +0.000 C 
ENDROOT
BRANCH   1   3
ATOM      2  O   UNL     1       7.261   6.855  16.641  0.00  0.00    +0.000 OA
ATOM      3  C   UNL     1       7.629   6.883  17.816  0.00  0.00    +0.000 C 
ATOM      4  N   UNL     1       8.072   8.027  18.413  0.00  0.00    +0.000 N 
ATOM      5  H   UNL     1       8.374   7.973  19.384  0.00  0.00    +0.000 HD
BRANCH   4   6
ATOM      6  C   UNL     1       8.174   9.319  17.747  0.00  0.00    +0.000 C 
BRANCH   6   7
ATOM      7  C   UNL     1       9.080  10.209  18.518  0.00  0.00    +0.000 A 
ATOM      8  C   UNL     1       9.314  10.405  19.865  0.00  0.00    +0.000 A 
ATOM      9  C   UNL     1      10.323  11.396  19.961  0.00  0.00    +0.000 A 
ATOM     10  C   UNL     1      10.641  11.745  18.670  0.00  0.00    +0.000 A 
ATOM     11  O   UNL     1       9.897  11.029  17.787  0.00  0.00    +0.000 OA
ENDBRANCH   6   7
ENDBRANCH   4   6
ENDBRANCH   1   3
BRANCH   1  12
ATOM     12  O   UNL     1       6.447   5.670  19.550  0.00  0.00    +0.000 OA
BRANCH  12  13
ATOM     13  C   UNL     1       5.271   5.226  19.001  0.00  0.00    +0.000 A 
ATOM     14  C   UNL     1       4.294   6.057  18.421  0.00  0.00    +0.000 A 
ATOM     15  C   UNL     1       3.127   5.519  17.869  0.00  0.00    +0.000 A 
ATOM     16  C   UNL     1       2.969   4.153  17.918  0.00  0.00    +0.000 A 
ATOM     17  C   UNL     1       3.918   3.334  18.483  0.00  0.00    +0.000 A 
ATOM     18  C   UNL     1       5.079   3.839  19.030  0.00  0.00    +0.000 A 
ATOM     19  O   UNL     1       3.569   2.020  18.416  0.00  0.00    +0.000 OA
ATOM     20  C   UNL     1       2.266   2.116  17.803  0.00  0.00    +0.000 C 
ATOM     21  O   UNL     1       1.906   3.461  17.429  0.00  0.00    +0.000 OA
ENDBRANCH  12  13
ENDBRANCH   1  12
TORSDOF 5
ENDMDL
MODEL 4
REMARK VINA RESULT:      -6.9      3.326      4.249
REMARK  Name = 
REMARK  5 active torsions:
REMARK  status: ('A' for Active; 'I' for Inactive)
REMARK    1  A    between atoms: C_2  and  C_3
REMARK    2  A    between atoms: C_3  and  O_4
REMARK    3  A    between atoms: O_4  and  C_5
REMARK    4  A    between atoms: N_14  and  C_15
REMARK    5  A    between atoms: C_15  and  C_16
REMARK                            x       y       z     vdW  Elec       q    Type
REMARK                         _______ _______ _______ _____ _____    ______ ____
ROOT
ATOM      1  C   UNL     1       6.820   6.044  18.203  0.00  0.00    +0.000 C 
ENDROOT
BRANCH   1   3
ATOM      2  O   UNL     1       8.087   4.164  17.379  0.00  0.00    +0.000 OA
ATOM      3  C   UNL     1       7.099   4.886  17.245  0.00  0.00    +0.000 C 
ATOM      4  N   UNL     1       6.181   4.687  16.256  0.00  0.00    +0.000 N 
ATOM      5  H   UNL     1       5.395   5.333  16.195  0.00  0.00    +0.000 HD
BRANCH   4   6
ATOM      6  C   UNL     1       6.263   3.631  15.254  0.00  0.00    +0.000 C 
BRANCH   6   7
ATOM      7  C   UNL     1       6.793   4.188  13.983  0.00  0.00    +0.000 A 
ATOM      8  C   UNL     1       6.583   3.902  12.648  0.00  0.00    +0.000 A 
ATOM      9  C   UNL     1       7.382   4.809  11.908  0.00  0.00    +0.000 A 
ATOM     10  C   UNL     1       8.031   5.590  12.834  0.00  0.00    +0.000 A 
ATOM     11  O   UNL     1       7.679   5.226  14.095  0.00  0.00    +0.000 OA
ENDBRANCH   6   7
ENDBRANCH   4   6
ENDBRANCH   1   3
BRANCH   1  12
ATOM     12  O   UNL     1       6.009   5.604  19.288  0.00  0.00    +0.000 OA
BRANCH  12  13
ATOM     13  C   UNL     1       4.736   5.210  18.965  0.00  0.00    +0.000 A 
ATOM     14  C   UNL     1       3.765   6.041  18.373  0.00  0.00    +0.000 A 
ATOM     15  C   UNL     1       2.493   5.553  18.062  0.00  0.00    +0.000 A 
ATOM     16  C   UNL     1       2.224   4.236  18.358  0.00  0.00    +0.000 A 
ATOM     17  C   UNL     1       3.165   3.418  18.935  0.00  0.00    +0.000 A 
ATOM     18  C   UNL     1       4.429   3.873  19.248  0.00  0.00    +0.000 A 
ATOM     19  O   UNL     1       2.697   2.155  19.132  0.00  0.00    +0.000 OA
ATOM     20  C   UNL     1       1.337   2.294  18.671  0.00  0.00    +0.000 C 
ATOM     21  O   UNL     1       1.048   3.596  18.122  0.00  0.00    +0.000 OA
ENDBRANCH  12  13
ENDBRANCH   1  12
TORSDOF 5
ENDMDL
MODEL 5
REMARK VINA RESULT:      -6.9      3.558      4.521
REMARK  Name = 
REMARK  5 active torsions:
REMARK  status: ('A' for Active; 'I' for Inactive)
REMARK    1  A    between atoms: C_2  and  C_3
REMARK    2  A    between atoms: C_3  and  O_4
REMARK    3  A    between atoms: O_4  and  C_5
REMARK    4  A    between atoms: N_14  and  C_15
REMARK    5  A    between atoms: C_15  and  C_16
REMARK                            x       y       z     vdW  Elec       q    Type
REMARK                         _______ _______ _______ _____ _____    ______ ____
ROOT
ATOM      1  C   UNL     1       6.485   4.458  17.410  0.00  0.00    +0.000 C 
ENDROOT
BRANCH   1   3
ATOM      2  O   UNL     1       7.451   6.064  15.892  0.00  0.00    +0.000 OA
ATOM      3  C   UNL     1       6.892   4.977  16.032  0.00  0.00    +0.000 C 
ATOM      4  N   UNL     1       6.621   4.156  14.975  0.00  0.00    +0.000 N 
ATOM      5  H   UNL     1       6.143   3.277  15.163  0.00  0.00    +0.000 HD
BRANCH   4   6
ATOM      6  C   UNL     1       6.942   4.466  13.588  0.00  0.00    +0.000 C 
BRANCH   6   7
ATOM      7  C   UNL     1       6.082   3.659  12.684  0.00  0.00    +0.000 A 
ATOM      8  C   UNL     1       4.766   3.750  12.277  0.00  0.00    +0.000 A 
ATOM      9  C   UNL     1       4.542   2.673  11.383  0.00  0.00    +0.000 A 
ATOM     10  C   UNL     1       5.733   1.992  11.299  0.00  0.00    +0.000 A 
ATOM     11  O   UNL     1       6.675   2.583  12.080  0.00  0.00    +0.000 OA
ENDBRANCH   6   7
ENDBRANCH   4   6
ENDBRANCH   1   3
BRANCH   1  12
ATOM     12  O   UNL     1       5.640   5.400  18.064  0.00  0.00    +0.000 OA
BRANCH  12  13
ATOM     13  C   UNL     1       4.385   4.954  18.393  0.00  0.00    +0.000 A 
ATOM     14  C   UNL     1       3.219   5.226  17.652  0.00  0.00    +0.000 A 
ATOM     15  C   UNL     1       1.979   4.719  18.051  0.00  0.00    +0.000 A 
ATOM     16  C   UNL     1       1.941   3.950  19.192  0.00  0.00    +0.000 A 
ATOM     17  C   UNL     1       3.074   3.680  19.921  0.00  0.00    +0.000 A 
ATOM     18  C   UNL     1       4.311   4.164  19.547  0.00  0.00    +0.000 A 
ATOM     19  O   UNL     1       2.815   2.895  21.003  0.00  0.00    +0.000 OA
ATOM     20  C   UNL     1       1.382   2.758  20.902  0.00  0.00    +0.000 C 
ATOM     21  O   UNL     1       0.829   3.375  19.722  0.00  0.00    +0.000 OA
ENDBRANCH  12  13
ENDBRANCH   1  12
TORSDOF 5
ENDMDL
MODEL 6
REMARK VINA RESULT:      -6.9      3.525      4.609
REMARK  Name = 
REMARK  5 active torsions:
REMARK  status: ('A' for Active; 'I' for Inactive)
REMARK    1  A    between atoms: C_2  and  C_3
REMARK    2  A    between atoms: C_3  and  O_4
REMARK    3  A    between atoms: O_4  and  C_5
REMARK    4  A    between atoms: N_14  and  C_15
REMARK    5  A    between atoms: C_15  and  C_16
REMARK                            x       y       z     vdW  Elec       q    Type
REMARK                         _______ _______ _______ _____ _____    ______ ____
ROOT
ATOM      1  C   UNL     1       7.065   4.795  18.023  0.00  0.00    +0.000 C 
ENDROOT
BRANCH   1   3
ATOM      2  O   UNL     1       7.198   6.719  16.574  0.00  0.00    +0.000 OA
ATOM      3  C   UNL     1       7.184   5.492  16.668  0.00  0.00    +0.000 C 
ATOM      4  N   UNL     1       7.298   4.677  15.580  0.00  0.00    +0.000 N 
ATOM      5  H   UNL     1       7.264   3.671  15.730  0.00  0.00    +0.000 HD
BRANCH   4   6
ATOM      6  C   UNL     1       7.434   5.149  14.207  0.00  0.00    +0.000 C 
BRANCH   6   7
ATOM      7  C   UNL     1       6.624   4.293  13.302  0.00  0.00    +0.000 A 
ATOM      8  C   UNL     1       6.909   3.555  12.170  0.00  0.00    +0.000 A 
ATOM      9  C   UNL     1       5.697   2.938  11.772  0.00  0.00    +0.000 A 
ATOM     10  C   UNL     1       4.748   3.338  12.682  0.00  0.00    +0.000 A 
ATOM     11  O   UNL     1       5.299   4.155  13.617  0.00  0.00    +0.000 OA
ENDBRANCH   6   7
ENDBRANCH   4   6
ENDBRANCH   1   3
BRANCH   1  12
ATOM     12  O   UNL     1       6.081   5.440  18.826  0.00  0.00    +0.000 OA
BRANCH  12  13
ATOM     13  C   UNL     1       4.785   5.040  18.625  0.00  0.00    +0.000 A 
ATOM     14  C   UNL     1       3.752   5.876  18.161  0.00  0.00    +0.000 A 
ATOM     15  C   UNL     1       2.458   5.382  17.968  0.00  0.00    +0.000 A 
ATOM     16  C   UNL     1       2.233   4.055  18.252  0.00  0.00    +0.000 A 
ATOM     17  C   UNL     1       3.236   3.231  18.706  0.00  0.00    +0.000 A 
ATOM     18  C   UNL     1       4.522   3.693  18.900  0.00  0.00    +0.000 A 
ATOM     19  O   UNL     1       2.802   1.958  18.914  0.00  0.00    +0.000 OA
ATOM     20  C   UNL     1       1.400   2.094  18.599  0.00  0.00    +0.000 C 
ATOM     21  O   UNL     1       1.044   3.407  18.121  0.00  0.00    +0.000 OA
ENDBRANCH  12  13
ENDBRANCH   1  12
TORSDOF 5
ENDMDL
MODEL 7
REMARK VINA RESULT:      -6.9      4.209      6.362
REMARK  Name = 
REMARK  5 active torsions:
REMARK  status: ('A' for Active; 'I' for Inactive)
REMARK    1  A    between atoms: C_2  and  C_3
REMARK    2  A    between atoms: C_3  and  O_4
REMARK    3  A    between atoms: O_4  and  C_5
REMARK    4  A    between atoms: N_14  and  C_15
REMARK    5  A    between atoms: C_15  and  C_16
REMARK                            x       y       z     vdW  Elec       q    Type
REMARK                         _______ _______ _______ _____ _____    ______ ____
ROOT
ATOM      1  C   UNL     1       7.884   6.053  18.614  0.00  0.00    +0.000 C 
ENDROOT
BRANCH   1   3
ATOM      2  O   UNL     1       7.247   7.626  16.899  0.00  0.00    +0.000 OA
ATOM      3  C   UNL     1       7.839   7.435  17.962  0.00  0.00    +0.000 C 
ATOM      4  N   UNL     1       8.470   8.440  18.635  0.00  0.00    +0.000 N 
ATOM      5  H   UNL     1       8.953   8.206  19.501  0.00  0.00    +0.000 HD
BRANCH   4   6
ATOM      6  C   UNL     1       8.529   9.824  18.184  0.00  0.00    +0.000 C 
BRANCH   6   7
ATOM      7  C   UNL     1       9.439  10.600  19.067  0.00  0.00    +0.000 A 
ATOM      8  C   UNL     1       9.408  10.956  20.401  0.00  0.00    +0.000 A 
ATOM      9  C   UNL     1      10.592  11.693  20.651  0.00  0.00    +0.000 A 
ATOM     10  C   UNL     1      11.271  11.743  19.457  0.00  0.00    +0.000 A 
ATOM     11  O   UNL     1      10.583  11.080  18.491  0.00  0.00    +0.000 OA
ENDBRANCH   6   7
ENDBRANCH   4   6
ENDBRANCH   1   3
BRANCH   1  12
ATOM     12  O   UNL     1       6.700   5.826  19.372  0.00  0.00    +0.000 OA
BRANCH  12  13
ATOM     13  C   UNL     1       5.676   5.195  18.713  0.00  0.00    +0.000 A 
ATOM     14  C   UNL     1       5.828   4.442  17.532  0.00  0.00    +0.000 A 
ATOM     15  C   UNL     1       4.731   3.817  16.932  0.00  0.00    +0.000 A 
ATOM     16  C   UNL     1       3.502   3.967  17.533  0.00  0.00    +0.000 A 
ATOM     17  C   UNL     1       3.345   4.700  18.685  0.00  0.00    +0.000 A 
ATOM     18  C   UNL     1       4.411   5.323  19.300  0.00  0.00    +0.000 A 
ATOM     19  O   UNL     1       2.054   4.712  19.116  0.00  0.00    +0.000 OA
ATOM     20  C   UNL     1       1.411   3.956  18.068  0.00  0.00    +0.000 C 
ATOM     21  O   UNL     1       2.334   3.429  17.092  0.00  0.00    +0.000 OA
ENDBRANCH  12  13
ENDBRANCH   1  12
TORSDOF 5
ENDMDL
MODEL 8
REMARK VINA RESULT:      -6.9      2.915      3.861
REMARK  Name = 
REMARK  5 active torsions:
REMARK  status: ('A' for Active; 'I' for Inactive)
REMARK    1  A    between atoms: C_2  and  C_3
REMARK    2  A    between atoms: C_3  and  O_4
REMARK    3  A    between atoms: O_4  and  C_5
REMARK    4  A    between atoms: N_14  and  C_15
REMARK    5  A    between atoms: C_15  and  C_16
REMARK                            x       y       z     vdW  Elec       q    Type
REMARK                         _______ _______ _______ _____ _____    ______ ____
ROOT
ATOM      1  C   UNL     1       4.327   6.973  18.248  0.00  0.00    +0.000 C 
ENDROOT
BRANCH   1   3
ATOM      2  O   UNL     1       6.004   7.238  16.534  0.00  0.00    +0.000 OA
ATOM      3  C   UNL     1       5.535   6.529  17.424  0.00  0.00    +0.000 C 
ATOM      4  N   UNL     1       6.074   5.318  17.750  0.00  0.00    +0.000 N 
ATOM      5  H   UNL     1       5.625   4.777  18.487  0.00  0.00    +0.000 HD
BRANCH   4   6
ATOM      6  C   UNL     1       7.231   4.727  17.090  0.00  0.00    +0.000 C 
BRANCH   6   7
ATOM      7  C   UNL     1       6.926   4.498  15.654  0.00  0.00    +0.000 A 
ATOM      8  C   UNL     1       5.990   3.737  14.981  0.00  0.00    +0.000 A 
ATOM      9  C   UNL     1       6.207   3.959  13.598  0.00  0.00    +0.000 A 
ATOM     10  C   UNL     1       7.259   4.837  13.512  0.00  0.00    +0.000 A 
ATOM     11  O   UNL     1       7.701   5.175  14.751  0.00  0.00    +0.000 OA
ENDBRANCH   6   7
ENDBRANCH   4   6
ENDBRANCH   1   3
BRANCH   1  12
ATOM     12  O   UNL     1       3.124   6.473  17.672  0.00  0.00    +0.000 OA
BRANCH  12  13
ATOM     13  C   UNL     1       2.581   5.371  18.281  0.00  0.00    +0.000 A 
ATOM     14  C   UNL     1       1.902   4.337  17.608  0.00  0.00    +0.000 A 
ATOM     15  C   UNL     1       1.390   3.238  18.305  0.00  0.00    +0.000 A 
ATOM     16  C   UNL     1       1.571   3.208  19.669  0.00  0.00    +0.000 A 
ATOM     17  C   UNL     1       2.232   4.213  20.334  0.00  0.00    +0.000 A 
ATOM     18  C   UNL     1       2.750   5.305  19.669  0.00  0.00    +0.000 A 
ATOM     19  O   UNL     1       2.308   3.980  21.673  0.00  0.00    +0.000 OA
ATOM     20  C   UNL     1       1.565   2.748  21.778  0.00  0.00    +0.000 C 
ATOM     21  O   UNL     1       1.146   2.221  20.502  0.00  0.00    +0.000 OA
ENDBRANCH  12  13
ENDBRANCH   1  12
TORSDOF 5
ENDMDL
MODEL 9
REMARK VINA RESULT:      -6.8      2.990      3.998
REMARK  Name = 
REMARK  5 active torsions:
REMARK  status: ('A' for Active; 'I' for Inactive)
REMARK    1  A    between atoms: C_2  and  C_3
REMARK    2  A    between atoms: C_3  and  O_4
REMARK    3  A    between atoms: O_4  and  C_5
REMARK    4  A    between atoms: N_14  and  C_15
REMARK    5  A    between atoms: C_15  and  C_16
REMARK                            x       y       z     vdW  Elec       q    Type
REMARK                         _______ _______ _______ _____ _____    ______ ____
ROOT
ATOM      1  C   UNL     1       4.058   7.017  17.015  0.00  0.00    +0.000 C 
ENDROOT
BRANCH   1   3
ATOM      2  O   UNL     1       6.452   7.302  16.922  0.00  0.00    +0.000 OA
ATOM      3  C   UNL     1       5.483   6.587  16.665  0.00  0.00    +0.000 C 
ATOM      4  N   UNL     1       5.615   5.363  16.079  0.00  0.00    +0.000 N 
ATOM      5  H   UNL     1       4.769   4.832  15.882  0.00  0.00    +0.000 HD
BRANCH   4   6
ATOM      6  C   UNL     1       6.888   4.772  15.683  0.00  0.00    +0.000 C 
BRANCH   6   7
ATOM      7  C   UNL     1       6.880   4.502  14.222  0.00  0.00    +0.000 A 
ATOM      8  C   UNL     1       7.589   5.006  13.149  0.00  0.00    +0.000 A 
ATOM      9  C   UNL     1       7.126   4.321  11.999  0.00  0.00    +0.000 A 
ATOM     10  C   UNL     1       6.164   3.443  12.438  0.00  0.00    +0.000 A 
ATOM     11  O   UNL     1       6.010   3.541  13.784  0.00  0.00    +0.000 OA
ENDBRANCH   6   7
ENDBRANCH   4   6
ENDBRANCH   1   3
BRANCH   1  12
ATOM     12  O   UNL     1       3.815   6.838  18.406  0.00  0.00    +0.000 OA
BRANCH  12  13
ATOM     13  C   UNL     1       3.041   5.758  18.746  0.00  0.00    +0.000 A 
ATOM     14  C   UNL     1       2.222   5.046  17.850  0.00  0.00    +0.000 A 
ATOM     15  C   UNL     1       1.475   3.944  18.278  0.00  0.00    +0.000 A 
ATOM     16  C   UNL     1       1.568   3.586  19.604  0.00  0.00    +0.000 A 
ATOM     17  C   UNL     1       2.365   4.276  20.486  0.00  0.00    +0.000 A 
ATOM     18  C   UNL     1       3.115   5.364  20.088  0.00  0.00    +0.000 A 
ATOM     19  O   UNL     1       2.319   3.750  21.740  0.00  0.00    +0.000 OA
ATOM     20  C   UNL     1       1.354   2.693  21.557  0.00  0.00    +0.000 C 
ATOM     21  O   UNL     1       0.919   2.545  20.190  0.00  0.00    +0.000 OA
ENDBRANCH  12  13
ENDBRANCH   1  12
TORSDOF 5
ENDMDL
