MODEL 1
REMARK VINA RESULT:      -7.6      0.000      0.000
REMARK  Name = 
REMARK  3 active torsions:
REMARK  status: ('A' for Active; 'I' for Inactive)
REMARK    1  A    between atoms: C_2  and  C_3
REMARK    2  A    between atoms: C_9  and  C_10
REMARK    3  A    between atoms: C_20  and  O_21
REMARK                            x       y       z     vdW  Elec       q    Type
REMARK                         _______ _______ _______ _____ _____    ______ ____
ROOT
ATOM      1  O   UNL     1       2.114   4.773  21.262  0.00  0.00    +0.000 OA
ATOM      2  C   UNL     1       2.264   5.514  20.295  0.00  0.00    +0.000 C 
ATOM      3  N   UNL     1       1.913   6.873  20.335  0.00  0.00    +0.000 N 
ATOM      4  C   UNL     1       1.445   7.457  21.614  0.00  0.00    +0.000 C 
ATOM      5  C   UNL     1       0.483   8.679  21.455  0.00  0.00    +0.000 C 
ATOM      6  N   UNL     1       0.925   9.600  20.400  0.00  0.00    +0.000 NA
ATOM      7  C   UNL     1       0.008  10.675  20.035  0.00  0.00    +0.000 C 
ATOM      8  C   UNL     1       0.608  11.161  18.699  0.00  0.00    +0.000 C 
ATOM      9  C   UNL     1       1.342   9.948  18.120  0.00  0.00    +0.000 C 
ATOM     10  C   UNL     1       1.095   8.858  19.148  0.00  0.00    +0.000 C 
ATOM     11  C   UNL     1       2.219   7.853  19.287  0.00  0.00    +0.000 C 
ENDROOT
BRANCH   2  12
ATOM     12  C   UNL     1       2.813   4.942  19.034  0.00  0.00    +0.000 A 
ATOM     13  C   UNL     1       1.975   4.394  18.039  0.00  0.00    +0.000 A 
ATOM     14  C   UNL     1       2.500   3.689  16.956  0.00  0.00    +0.000 A 
ATOM     15  C   UNL     1       3.875   3.604  16.754  0.00  0.00    +0.000 A 
ATOM     16  C   UNL     1       4.694   4.272  17.669  0.00  0.00    +0.000 A 
ATOM     17  N   UNL     1       6.053   4.449  17.719  0.00  0.00    +0.000 N 
ATOM     18  C   UNL     1       6.349   5.194  18.833  0.00  0.00    +0.000 A 
ATOM     19  N   UNL     1       5.260   5.444  19.532  0.00  0.00    +0.000 NA
ATOM     20  C   UNL     1       4.207   4.927  18.804  0.00  0.00    +0.000 A 
ATOM     21  H   UNL     1       6.724   4.130  17.040  0.00  0.00    +0.000 HD
BRANCH  18  22
ATOM     22  C   UNL     1       7.740   5.623  19.110  0.00  0.00    +0.000 C 
ATOM     23  F   UNL     1       7.920   6.924  18.740  0.00  0.00    +0.000 F 
ATOM     24  F   UNL     1       8.000   5.593  20.449  0.00  0.00    +0.000 F 
ENDBRANCH  18  22
ENDBRANCH   2  12
BRANCH   8  25
ATOM     25  O   UNL     1      -0.380  11.631  17.793  0.00  0.00    +0.000 OA
ATOM     26  H   UNL     1      -0.101  11.400  16.891  0.00  0.00    +0.000 HD
ENDBRANCH   8  25
TORSDOF 3
ENDMDL
MODEL 2
REMARK VINA RESULT:      -7.2      3.701      7.021
REMARK  Name = 
REMARK  3 active torsions:
REMARK  status: ('A' for Active; 'I' for Inactive)
REMARK    1  A    between atoms: C_2  and  C_3
REMARK    2  A    between atoms: C_9  and  C_10
REMARK    3  A    between atoms: C_20  and  O_21
REMARK                            x       y       z     vdW  Elec       q    Type
REMARK                         _______ _______ _______ _____ _____    ______ ____
ROOT
ATOM      1  O   UNL     1       2.191   5.992  20.826  0.00  0.00    +0.000 OA
ATOM      2  C   UNL     1       2.510   6.433  19.725  0.00  0.00    +0.000 C 
ATOM      3  N   UNL     1       3.366   5.732  18.860  0.00  0.00    +0.000 N 
ATOM      4  C   UNL     1       3.814   4.373  19.239  0.00  0.00    +0.000 C 
ATOM      5  C   UNL     1       5.198   3.957  18.641  0.00  0.00    +0.000 C 
ATOM      6  N   UNL     1       5.340   4.362  17.236  0.00  0.00    +0.000 NA
ATOM      7  C   UNL     1       6.657   4.194  16.631  0.00  0.00    +0.000 C 
ATOM      8  C   UNL     1       6.527   5.049  15.352  0.00  0.00    +0.000 C 
ATOM      9  C   UNL     1       5.472   6.110  15.681  0.00  0.00    +0.000 C 
ATOM     10  C   UNL     1       5.091   5.800  17.118  0.00  0.00    +0.000 C 
ATOM     11  C   UNL     1       3.652   6.111  17.472  0.00  0.00    +0.000 C 
ENDROOT
BRANCH   2  12
ATOM     12  C   UNL     1       1.989   7.766  19.312  0.00  0.00    +0.000 A 
ATOM     13  C   UNL     1       2.183   8.268  18.007  0.00  0.00    +0.000 A 
ATOM     14  C   UNL     1       1.867   9.587  17.682  0.00  0.00    +0.000 A 
ATOM     15  C   UNL     1       1.237  10.421  18.602  0.00  0.00    +0.000 A 
ATOM     16  C   UNL     1       0.921   9.869  19.847  0.00  0.00    +0.000 A 
ATOM     17  N   UNL     1       0.250  10.379  20.929  0.00  0.00    +0.000 N 
ATOM     18  C   UNL     1       0.209   9.415  21.904  0.00  0.00    +0.000 A 
ATOM     19  N   UNL     1       0.876   8.341  21.529  0.00  0.00    +0.000 NA
ATOM     20  C   UNL     1       1.286   8.575  20.232  0.00  0.00    +0.000 A 
ATOM     21  H   UNL     1      -0.182  11.287  20.993  0.00  0.00    +0.000 HD
BRANCH  18  22
ATOM     22  C   UNL     1      -0.531   9.645  23.167  0.00  0.00    +0.000 C 
ATOM     23  F   UNL     1       0.261   9.358  24.241  0.00  0.00    +0.000 F 
ATOM     24  F   UNL     1      -0.858  10.963  23.305  0.00  0.00    +0.000 F 
ENDBRANCH  18  22
ENDBRANCH   2  12
BRANCH   8  25
ATOM     25  O   UNL     1       7.753   5.659  14.973  0.00  0.00    +0.000 OA
ATOM     26  H   UNL     1       8.375   5.577  15.715  0.00  0.00    +0.000 HD
ENDBRANCH   8  25
TORSDOF 3
ENDMDL
MODEL 3
REMARK VINA RESULT:      -7.1      2.085      2.761
REMARK  Name = 
REMARK  3 active torsions:
REMARK  status: ('A' for Active; 'I' for Inactive)
REMARK    1  A    between atoms: C_2  and  C_3
REMARK    2  A    between atoms: C_9  and  C_10
REMARK    3  A    between atoms: C_20  and  O_21
REMARK                            x       y       z     vdW  Elec       q    Type
REMARK                         _______ _______ _______ _____ _____    ______ ____
ROOT
ATOM      1  O   UNL     1       3.394   7.857  16.696  0.00  0.00    +0.000 OA
ATOM      2  C   UNL     1       2.795   7.462  17.694  0.00  0.00    +0.000 C 
ATOM      3  N   UNL     1       1.988   8.313  18.465  0.00  0.00    +0.000 N 
ATOM      4  C   UNL     1       1.767   9.704  18.006  0.00  0.00    +0.000 C 
ATOM      5  C   UNL     1       1.472  10.726  19.153  0.00  0.00    +0.000 C 
ATOM      6  N   UNL     1       0.555  10.180  20.161  0.00  0.00    +0.000 NA
ATOM      7  C   UNL     1       0.356  10.971  21.370  0.00  0.00    +0.000 C 
ATOM      8  C   UNL     1      -0.317   9.948  22.309  0.00  0.00    +0.000 C 
ATOM      9  C   UNL     1       0.166   8.576  21.826  0.00  0.00    +0.000 C 
ATOM     10  C   UNL     1       1.087   8.912  20.667  0.00  0.00    +0.000 C 
ATOM     11  C   UNL     1       1.113   7.879  19.560  0.00  0.00    +0.000 C 
ENDROOT
BRANCH   2  12
ATOM     12  C   UNL     1       2.954   6.039  18.106  0.00  0.00    +0.000 A 
ATOM     13  C   UNL     1       1.857   5.152  18.154  0.00  0.00    +0.000 A 
ATOM     14  C   UNL     1       1.974   3.884  18.723  0.00  0.00    +0.000 A 
ATOM     15  C   UNL     1       3.207   3.403  19.154  0.00  0.00    +0.000 A 
ATOM     16  C   UNL     1       4.314   4.236  18.970  0.00  0.00    +0.000 A 
ATOM     17  N   UNL     1       5.651   4.045  19.208  0.00  0.00    +0.000 N 
ATOM     18  C   UNL     1       6.321   5.187  18.846  0.00  0.00    +0.000 A 
ATOM     19  N   UNL     1       5.476   6.120  18.454  0.00  0.00    +0.000 NA
ATOM     20  C   UNL     1       4.224   5.539  18.471  0.00  0.00    +0.000 A 
ATOM     21  H   UNL     1       6.086   3.203  19.548  0.00  0.00    +0.000 HD
BRANCH  18  22
ATOM     22  C   UNL     1       7.800   5.251  18.909  0.00  0.00    +0.000 C 
ATOM     23  F   UNL     1       8.352   4.421  17.977  0.00  0.00    +0.000 F 
ATOM     24  F   UNL     1       8.246   6.500  18.585  0.00  0.00    +0.000 F 
ENDBRANCH  18  22
ENDBRANCH   2  12
BRANCH   8  25
ATOM     25  O   UNL     1       0.024  10.148  23.674  0.00  0.00    +0.000 OA
ATOM     26  H   UNL     1       0.081  11.104  23.836  0.00  0.00    +0.000 HD
ENDBRANCH   8  25
TORSDOF 3
ENDMDL
MODEL 4
REMARK VINA RESULT:      -7.0      1.858      2.386
REMARK  Name = 
REMARK  3 active torsions:
REMARK  status: ('A' for Active; 'I' for Inactive)
REMARK    1  A    between atoms: C_2  and  C_3
REMARK    2  A    between atoms: C_9  and  C_10
REMARK    3  A    between atoms: C_20  and  O_21
REMARK                            x       y       z     vdW  Elec       q    Type
REMARK                         _______ _______ _______ _____ _____    ______ ____
ROOT
ATOM      1  O   UNL     1       3.988   3.638  19.415  0.00  0.00    +0.000 OA
ATOM      2  C   UNL     1       4.007   4.668  18.747  0.00  0.00    +0.000 C 
ATOM      3  N   UNL     1       3.334   5.832  19.152  0.00  0.00    +0.000 N 
ATOM      4  C   UNL     1       2.668   5.853  20.475  0.00  0.00    +0.000 C 
ATOM      5  C   UNL     1       1.447   6.826  20.571  0.00  0.00    +0.000 C 
ATOM      6  N   UNL     1       1.709   8.112  19.912  0.00  0.00    +0.000 NA
ATOM      7  C   UNL     1       0.580   9.026  19.775  0.00  0.00    +0.000 C 
ATOM      8  C   UNL     1       1.118  10.037  18.740  0.00  0.00    +0.000 C 
ATOM      9  C   UNL     1       2.156   9.264  17.920  0.00  0.00    +0.000 C 
ATOM     10  C   UNL     1       2.125   7.873  18.528  0.00  0.00    +0.000 C 
ATOM     11  C   UNL     1       3.450   7.141  18.500  0.00  0.00    +0.000 C 
ENDROOT
BRANCH   2  12
ATOM     12  C   UNL     1       4.749   4.669  17.455  0.00  0.00    +0.000 A 
ATOM     13  C   UNL     1       4.389   3.815  16.391  0.00  0.00    +0.000 A 
ATOM     14  C   UNL     1       5.199   3.680  15.263  0.00  0.00    +0.000 A 
ATOM     15  C   UNL     1       6.330   4.474  15.094  0.00  0.00    +0.000 A 
ATOM     16  C   UNL     1       6.598   5.418  16.089  0.00  0.00    +0.000 A 
ATOM     17  N   UNL     1       7.564   6.386  16.194  0.00  0.00    +0.000 N 
ATOM     18  C   UNL     1       7.380   7.052  17.379  0.00  0.00    +0.000 A 
ATOM     19  N   UNL     1       6.390   6.518  18.067  0.00  0.00    +0.000 NA
ATOM     20  C   UNL     1       5.851   5.532  17.265  0.00  0.00    +0.000 A 
ATOM     21  H   UNL     1       8.267   6.608  15.508  0.00  0.00    +0.000 HD
BRANCH  18  22
ATOM     22  C   UNL     1       8.225   8.217  17.734  0.00  0.00    +0.000 C 
ATOM     23  F   UNL     1       7.460   9.341  17.852  0.00  0.00    +0.000 F 
ATOM     24  F   UNL     1       8.799   8.044  18.960  0.00  0.00    +0.000 F 
ENDBRANCH  18  22
ENDBRANCH   2  12
BRANCH   8  25
ATOM     25  O   UNL     1       0.097  10.555  17.898  0.00  0.00    +0.000 OA
ATOM     26  H   UNL     1      -0.662   9.950  17.932  0.00  0.00    +0.000 HD
ENDBRANCH   8  25
TORSDOF 3
ENDMDL
MODEL 5
REMARK VINA RESULT:      -6.8      4.083      7.841
REMARK  Name = 
REMARK  3 active torsions:
REMARK  status: ('A' for Active; 'I' for Inactive)
REMARK    1  A    between atoms: C_2  and  C_3
REMARK    2  A    between atoms: C_9  and  C_10
REMARK    3  A    between atoms: C_20  and  O_21
REMARK                            x       y       z     vdW  Elec       q    Type
REMARK                         _______ _______ _______ _____ _____    ______ ____
ROOT
ATOM      1  O   UNL     1       2.469   9.514  17.125  0.00  0.00    +0.000 OA
ATOM      2  C   UNL     1       2.063   8.989  18.159  0.00  0.00    +0.000 C 
ATOM      3  N   UNL     1       2.507   7.724  18.577  0.00  0.00    +0.000 N 
ATOM      4  C   UNL     1       3.574   7.046  17.806  0.00  0.00    +0.000 C 
ATOM      5  C   UNL     1       3.539   5.484  17.885  0.00  0.00    +0.000 C 
ATOM      6  N   UNL     1       3.262   5.004  19.244  0.00  0.00    +0.000 NA
ATOM      7  C   UNL     1       3.020   3.574  19.402  0.00  0.00    +0.000 C 
ATOM      8  C   UNL     1       2.406   3.513  20.817  0.00  0.00    +0.000 C 
ATOM      9  C   UNL     1       1.754   4.882  21.035  0.00  0.00    +0.000 C 
ATOM     10  C   UNL     1       2.023   5.615  19.732  0.00  0.00    +0.000 C 
ATOM     11  C   UNL     1       2.202   7.112  19.875  0.00  0.00    +0.000 C 
ENDROOT
BRANCH   2  12
ATOM     12  C   UNL     1       1.051   9.712  18.978  0.00  0.00    +0.000 A 
ATOM     13  C   UNL     1       1.337  10.168  20.282  0.00  0.00    +0.000 A 
ATOM     14  C   UNL     1       0.334  10.668  21.113  0.00  0.00    +0.000 A 
ATOM     15  C   UNL     1      -0.964  10.846  20.642  0.00  0.00    +0.000 A 
ATOM     16  C   UNL     1      -1.204  10.523  19.304  0.00  0.00    +0.000 A 
ATOM     17  N   UNL     1      -2.323  10.647  18.521  0.00  0.00    +0.000 N 
ATOM     18  C   UNL     1      -2.024  10.183  17.265  0.00  0.00    +0.000 A 
ATOM     19  N   UNL     1      -0.795   9.707  17.222  0.00  0.00    +0.000 NA
ATOM     20  C   UNL     1      -0.243   9.954  18.463  0.00  0.00    +0.000 A 
ATOM     21  H   UNL     1      -3.206  11.048  18.795  0.00  0.00    +0.000 HD
BRANCH  18  22
ATOM     22  C   UNL     1      -3.017  10.268  16.168  0.00  0.00    +0.000 C 
ATOM     23  F   UNL     1      -2.836  11.414  15.450  0.00  0.00    +0.000 F 
ATOM     24  F   UNL     1      -2.840   9.253  15.273  0.00  0.00    +0.000 F 
ENDBRANCH  18  22
ENDBRANCH   2  12
BRANCH   8  25
ATOM     25  O   UNL     1       1.448   2.472  20.956  0.00  0.00    +0.000 OA
ATOM     26  H   UNL     1       0.761   2.599  20.280  0.00  0.00    +0.000 HD
ENDBRANCH   8  25
TORSDOF 3
ENDMDL
MODEL 6
REMARK VINA RESULT:      -6.7      3.296      4.326
REMARK  Name = 
REMARK  3 active torsions:
REMARK  status: ('A' for Active; 'I' for Inactive)
REMARK    1  A    between atoms: C_2  and  C_3
REMARK    2  A    between atoms: C_9  and  C_10
REMARK    3  A    between atoms: C_20  and  O_21
REMARK                            x       y       z     vdW  Elec       q    Type
REMARK                         _______ _______ _______ _____ _____    ______ ____
ROOT
ATOM      1  O   UNL     1       3.655   7.816  16.453  0.00  0.00    +0.000 OA
ATOM      2  C   UNL     1       3.370   7.443  17.588  0.00  0.00    +0.000 C 
ATOM      3  N   UNL     1       2.368   8.067  18.348  0.00  0.00    +0.000 N 
ATOM      4  C   UNL     1       1.557   9.139  17.727  0.00  0.00    +0.000 C 
ATOM      5  C   UNL     1       0.988  10.190  18.736  0.00  0.00    +0.000 C 
ATOM      6  N   UNL     1       0.476   9.562  19.960  0.00  0.00    +0.000 NA
ATOM      7  C   UNL     1       0.093  10.455  21.050  0.00  0.00    +0.000 C 
ATOM      8  C   UNL     1      -0.010   9.475  22.238  0.00  0.00    +0.000 C 
ATOM      9  C   UNL     1       0.937   8.321  21.895  0.00  0.00    +0.000 C 
ATOM     10  C   UNL     1       1.524   8.729  20.554  0.00  0.00    +0.000 C 
ATOM     11  C   UNL     1       1.857   7.575  19.632  0.00  0.00    +0.000 C 
ENDROOT
BRANCH   2  12
ATOM     12  C   UNL     1       4.132   6.308  18.180  0.00  0.00    +0.000 A 
ATOM     13  C   UNL     1       5.487   6.436  18.551  0.00  0.00    +0.000 A 
ATOM     14  C   UNL     1       6.247   5.326  18.921  0.00  0.00    +0.000 A 
ATOM     15  C   UNL     1       5.662   4.069  19.053  0.00  0.00    +0.000 A 
ATOM     16  C   UNL     1       4.286   3.982  18.821  0.00  0.00    +0.000 A 
ATOM     17  N   UNL     1       3.405   2.936  18.934  0.00  0.00    +0.000 N 
ATOM     18  C   UNL     1       2.156   3.387  18.589  0.00  0.00    +0.000 A 
ATOM     19  N   UNL     1       2.204   4.644  18.196  0.00  0.00    +0.000 NA
ATOM     20  C   UNL     1       3.508   5.057  18.380  0.00  0.00    +0.000 A 
ATOM     21  H   UNL     1       3.617   2.006  19.256  0.00  0.00    +0.000 HD
BRANCH  18  22
ATOM     22  C   UNL     1       0.974   2.500  18.697  0.00  0.00    +0.000 C 
ATOM     23  F   UNL     1       1.357   1.234  19.034  0.00  0.00    +0.000 F 
ATOM     24  F   UNL     1       0.153   2.906  19.709  0.00  0.00    +0.000 F 
ENDBRANCH  18  22
ENDBRANCH   2  12
BRANCH   8  25
ATOM     25  O   UNL     1       0.353  10.072  23.475  0.00  0.00    +0.000 OA
ATOM     26  H   UNL     1       0.637  10.985  23.300  0.00  0.00    +0.000 HD
ENDBRANCH   8  25
TORSDOF 3
ENDMDL
MODEL 7
REMARK VINA RESULT:      -6.5      2.300      3.036
REMARK  Name = 
REMARK  3 active torsions:
REMARK  status: ('A' for Active; 'I' for Inactive)
REMARK    1  A    between atoms: C_2  and  C_3
REMARK    2  A    between atoms: C_9  and  C_10
REMARK    3  A    between atoms: C_20  and  O_21
REMARK                            x       y       z     vdW  Elec       q    Type
REMARK                         _______ _______ _______ _____ _____    ______ ____
ROOT
ATOM      1  O   UNL     1       3.420   7.891  17.070  0.00  0.00    +0.000 OA
ATOM      2  C   UNL     1       2.822   7.589  18.100  0.00  0.00    +0.000 C 
ATOM      3  N   UNL     1       1.922   8.467  18.724  0.00  0.00    +0.000 N 
ATOM      4  C   UNL     1       1.601   9.755  18.066  0.00  0.00    +0.000 C 
ATOM      5  C   UNL     1       1.183  10.898  19.048  0.00  0.00    +0.000 C 
ATOM      6  N   UNL     1       0.280  10.421  20.103  0.00  0.00    +0.000 NA
ATOM      7  C   UNL     1      -0.025  11.354  21.183  0.00  0.00    +0.000 C 
ATOM      8  C   UNL     1      -0.643  10.418  22.243  0.00  0.00    +0.000 C 
ATOM      9  C   UNL     1      -0.031   9.040  21.972  0.00  0.00    +0.000 C 
ATOM     10  C   UNL     1       0.899   9.288  20.797  0.00  0.00    +0.000 C 
ATOM     11  C   UNL     1       1.049   8.116  19.850  0.00  0.00    +0.000 C 
ENDROOT
BRANCH   2  12
ATOM     12  C   UNL     1       3.085   6.258  18.715  0.00  0.00    +0.000 A 
ATOM     13  C   UNL     1       2.131   5.616  19.533  0.00  0.00    +0.000 A 
ATOM     14  C   UNL     1       2.452   4.469  20.259  0.00  0.00    +0.000 A 
ATOM     15  C   UNL     1       3.690   3.849  20.109  0.00  0.00    +0.000 A 
ATOM     16  C   UNL     1       4.576   4.414  19.188  0.00  0.00    +0.000 A 
ATOM     17  N   UNL     1       5.816   4.021  18.753  0.00  0.00    +0.000 N 
ATOM     18  C   UNL     1       6.258   4.934  17.830  0.00  0.00    +0.000 A 
ATOM     19  N   UNL     1       5.398   5.925  17.702  0.00  0.00    +0.000 NA
ATOM     20  C   UNL     1       4.316   5.601  18.496  0.00  0.00    +0.000 A 
ATOM     21  H   UNL     1       6.309   3.185  19.023  0.00  0.00    +0.000 HD
BRANCH  18  22
ATOM     22  C   UNL     1       7.540   4.729  17.115  0.00  0.00    +0.000 C 
ATOM     23  F   UNL     1       8.407   4.012  17.887  0.00  0.00    +0.000 F 
ATOM     24  F   UNL     1       7.355   3.977  15.991  0.00  0.00    +0.000 F 
ENDBRANCH  18  22
ENDBRANCH   2  12
BRANCH   8  25
ATOM     25  O   UNL     1      -0.366  10.837  23.573  0.00  0.00    +0.000 OA
ATOM     26  H   UNL     1      -0.535  11.792  23.632  0.00  0.00    +0.000 HD
ENDBRANCH   8  25
TORSDOF 3
ENDMDL
MODEL 8
REMARK VINA RESULT:      -6.5      4.232      7.871
REMARK  Name = 
REMARK  3 active torsions:
REMARK  status: ('A' for Active; 'I' for Inactive)
REMARK    1  A    between atoms: C_2  and  C_3
REMARK    2  A    between atoms: C_9  and  C_10
REMARK    3  A    between atoms: C_20  and  O_21
REMARK                            x       y       z     vdW  Elec       q    Type
REMARK                         _______ _______ _______ _____ _____    ______ ____
ROOT
ATOM      1  O   UNL     1      -0.167   9.999  21.928  0.00  0.00    +0.000 OA
ATOM      2  C   UNL     1       0.364   9.980  20.820  0.00  0.00    +0.000 C 
ATOM      3  N   UNL     1       0.964   8.821  20.301  0.00  0.00    +0.000 N 
ATOM      4  C   UNL     1       0.864   7.556  21.065  0.00  0.00    +0.000 C 
ATOM      5  C   UNL     1       2.041   6.556  20.819  0.00  0.00    +0.000 C 
ATOM      6  N   UNL     1       2.414   6.476  19.401  0.00  0.00    +0.000 NA
ATOM      7  C   UNL     1       3.619   5.719  19.077  0.00  0.00    +0.000 C 
ATOM      8  C   UNL     1       3.894   6.170  17.627  0.00  0.00    +0.000 C 
ATOM      9  C   UNL     1       3.275   7.566  17.513  0.00  0.00    +0.000 C 
ATOM     10  C   UNL     1       2.711   7.820  18.900  0.00  0.00    +0.000 C 
ATOM     11  C   UNL     1       1.461   8.675  18.929  0.00  0.00    +0.000 C 
ENDROOT
BRANCH   2  12
ATOM     12  C   UNL     1       0.389  11.234  20.018  0.00  0.00    +0.000 A 
ATOM     13  C   UNL     1       1.314  12.267  20.282  0.00  0.00    +0.000 A 
ATOM     14  C   UNL     1       1.209  13.512  19.661  0.00  0.00    +0.000 A 
ATOM     15  C   UNL     1       0.260  13.740  18.668  0.00  0.00    +0.000 A 
ATOM     16  C   UNL     1      -0.559  12.664  18.313  0.00  0.00    +0.000 A 
ATOM     17  N   UNL     1      -1.522  12.529  17.346  0.00  0.00    +0.000 N 
ATOM     18  C   UNL     1      -2.027  11.255  17.416  0.00  0.00    +0.000 A 
ATOM     19  N   UNL     1      -1.485  10.591  18.419  0.00  0.00    +0.000 NA
ATOM     20  C   UNL     1      -0.530  11.426  18.963  0.00  0.00    +0.000 A 
ATOM     21  H   UNL     1      -1.792  13.223  16.668  0.00  0.00    +0.000 HD
BRANCH  18  22
ATOM     22  C   UNL     1      -3.031  10.782  16.434  0.00  0.00    +0.000 C 
ATOM     23  F   UNL     1      -2.598  11.017  15.161  0.00  0.00    +0.000 F 
ATOM     24  F   UNL     1      -3.189   9.429  16.514  0.00  0.00    +0.000 F 
ENDBRANCH  18  22
ENDBRANCH   2  12
BRANCH   8  25
ATOM     25  O   UNL     1       5.280   6.208  17.317  0.00  0.00    +0.000 OA
ATOM     26  H   UNL     1       5.454   7.009  16.796  0.00  0.00    +0.000 HD
ENDBRANCH   8  25
TORSDOF 3
ENDMDL
MODEL 9
REMARK VINA RESULT:      -6.5      7.291      9.251
REMARK  Name = 
REMARK  3 active torsions:
REMARK  status: ('A' for Active; 'I' for Inactive)
REMARK    1  A    between atoms: C_2  and  C_3
REMARK    2  A    between atoms: C_9  and  C_10
REMARK    3  A    between atoms: C_20  and  O_21
REMARK                            x       y       z     vdW  Elec       q    Type
REMARK                         _______ _______ _______ _____ _____    ______ ____
ROOT
ATOM      1  O   UNL     1      -0.220  10.350  18.934  0.00  0.00    +0.000 OA
ATOM      2  C   UNL     1      -0.621  11.498  18.761  0.00  0.00    +0.000 C 
ATOM      3  N   UNL     1       0.257  12.591  18.681  0.00  0.00    +0.000 N 
ATOM      4  C   UNL     1       1.717  12.343  18.701  0.00  0.00    +0.000 C 
ATOM      5  C   UNL     1       2.568  13.524  19.271  0.00  0.00    +0.000 C 
ATOM      6  N   UNL     1       2.099  14.829  18.789  0.00  0.00    +0.000 NA
ATOM      7  C   UNL     1       2.696  16.012  19.400  0.00  0.00    +0.000 C 
ATOM      8  C   UNL     1       1.723  17.123  18.951  0.00  0.00    +0.000 C 
ATOM      9  C   UNL     1       0.379  16.421  18.734  0.00  0.00    +0.000 C 
ATOM     10  C   UNL     1       0.672  14.974  19.089  0.00  0.00    +0.000 C 
ATOM     11  C   UNL     1      -0.130  13.955  18.306  0.00  0.00    +0.000 C 
ENDROOT
BRANCH   2  12
ATOM     12  C   UNL     1      -2.088  11.734  18.658  0.00  0.00    +0.000 A 
ATOM     13  C   UNL     1      -2.822  12.322  19.709  0.00  0.00    +0.000 A 
ATOM     14  C   UNL     1      -4.216  12.364  19.687  0.00  0.00    +0.000 A 
ATOM     15  C   UNL     1      -4.928  11.933  18.571  0.00  0.00    +0.000 A 
ATOM     16  C   UNL     1      -4.183  11.484  17.477  0.00  0.00    +0.000 A 
ATOM     17  N   UNL     1      -4.558  11.070  16.224  0.00  0.00    +0.000 N 
ATOM     18  C   UNL     1      -3.427  10.735  15.525  0.00  0.00    +0.000 A 
ATOM     19  N   UNL     1      -2.356  10.847  16.285  0.00  0.00    +0.000 NA
ATOM     20  C   UNL     1      -2.791  11.361  17.490  0.00  0.00    +0.000 A 
ATOM     21  H   UNL     1      -5.495  11.053  15.854  0.00  0.00    +0.000 HD
BRANCH  18  22
ATOM     22  C   UNL     1      -3.507  10.330  14.101  0.00  0.00    +0.000 C 
ATOM     23  F   UNL     1      -2.411   9.595  13.752  0.00  0.00    +0.000 F 
ATOM     24  F   UNL     1      -4.573   9.504  13.891  0.00  0.00    +0.000 F 
ENDBRANCH  18  22
ENDBRANCH   2  12
BRANCH   8  25
ATOM     25  O   UNL     1       1.597  18.163  19.911  0.00  0.00    +0.000 OA
ATOM     26  H   UNL     1       0.875  17.931  20.519  0.00  0.00    +0.000 HD
ENDBRANCH   8  25
TORSDOF 3
ENDMDL
