MODEL 1
REMARK VINA RESULT:      -8.0      0.000      0.000
REMARK  Name = 
REMARK  4 active torsions:
REMARK  status: ('A' for Active; 'I' for Inactive)
REMARK    1  A    between atoms: N_3  and  C_4
REMARK    2  A    between atoms: C_4  and  C_5
REMARK    3  A    between atoms: C_8  and  N_9
REMARK    4  A    between atoms: N_15  and  C_16
REMARK                            x       y       z     vdW  Elec       q    Type
REMARK                         _______ _______ _______ _____ _____    ______ ____
ROOT
ATOM      1  O   UNL     1       8.510   7.526  18.762  0.00  0.00    +0.000 OA
ATOM      2  C   UNL     1       8.002   8.213  17.881  0.00  0.00    +0.000 C 
ATOM      3  N   UNL     1       7.104   7.688  16.979  0.00  0.00    +0.000 N 
ATOM      4  N   UNL     1       8.216   9.561  17.681  0.00  0.00    +0.000 N 
ATOM      5  H   UNL     1       6.982   8.183  16.109  0.00  0.00    +0.000 HD
ATOM      6  H   UNL     1       7.536  10.038  17.107  0.00  0.00    +0.000 HD
ENDROOT
BRANCH   4   7
ATOM      7  C   UNL     1       9.089  10.375  18.444  0.00  0.00    +0.000 A 
ATOM      8  C   UNL     1       9.019  10.455  19.841  0.00  0.00    +0.000 A 
ATOM      9  C   UNL     1       9.838  11.320  20.580  0.00  0.00    +0.000 A 
ATOM     10  C   UNL     1      10.734  12.107  19.859  0.00  0.00    +0.000 A 
ATOM     11  N   UNL     1      11.624  13.068  20.259  0.00  0.00    +0.000 N 
ATOM     12  N   UNL     1      12.333  13.611  19.252  0.00  0.00    +0.000 NA
ATOM     13  C   UNL     1      11.870  12.972  18.172  0.00  0.00    +0.000 A 
ATOM     14  C   UNL     1      10.869  12.026  18.479  0.00  0.00    +0.000 A 
ATOM     15  C   UNL     1      10.055  11.129  17.757  0.00  0.00    +0.000 A 
ATOM     16  H   UNL     1      11.788  13.408  21.200  0.00  0.00    +0.000 HD
ENDBRANCH   4   7
BRANCH   3  17
ATOM     17  C   UNL     1       6.814   6.265  16.967  0.00  0.00    +0.000 C 
BRANCH  17  18
ATOM     18  C   UNL     1       5.559   5.929  17.732  0.00  0.00    +0.000 A 
ATOM     19  C   UNL     1       5.610   5.098  18.862  0.00  0.00    +0.000 A 
ATOM     20  C   UNL     1       4.452   4.817  19.595  0.00  0.00    +0.000 A 
ATOM     21  C   UNL     1       3.230   5.371  19.194  0.00  0.00    +0.000 A 
ATOM     22  C   UNL     1       3.158   6.191  18.064  0.00  0.00    +0.000 A 
ATOM     23  C   UNL     1       4.322   6.462  17.351  0.00  0.00    +0.000 A 
ATOM     24  F   UNL     1       4.244   7.256  16.274  0.00  0.00    +0.000 F 
BRANCH  21  25
ATOM     25  N   UNL     1       2.016   5.099  19.972  0.00  0.00    +0.000 N 
ATOM     26  O   UNL     1       1.547   6.021  20.654  0.00  0.00    +0.000 OA
ATOM     27  O   UNL     1       1.528   3.961  19.897  0.00  0.00    +0.000 OA
ENDBRANCH  21  25
ENDBRANCH  17  18
ENDBRANCH   3  17
TORSDOF 4
ENDMDL
MODEL 2
REMARK VINA RESULT:      -8.0      3.668      9.577
REMARK  Name = 
REMARK  4 active torsions:
REMARK  status: ('A' for Active; 'I' for Inactive)
REMARK    1  A    between atoms: N_3  and  C_4
REMARK    2  A    between atoms: C_4  and  C_5
REMARK    3  A    between atoms: C_8  and  N_9
REMARK    4  A    between atoms: N_15  and  C_16
REMARK                            x       y       z     vdW  Elec       q    Type
REMARK                         _______ _______ _______ _____ _____    ______ ____
ROOT
ATOM      1  O   UNL     1       8.585   7.739  18.941  0.00  0.00    +0.000 OA
ATOM      2  C   UNL     1       8.091   8.423  18.050  0.00  0.00    +0.000 C 
ATOM      3  N   UNL     1       8.452   9.739  17.861  0.00  0.00    +0.000 N 
ATOM      4  N   UNL     1       7.163   7.998  17.122  0.00  0.00    +0.000 N 
ATOM      5  H   UNL     1       7.803  10.328  17.361  0.00  0.00    +0.000 HD
ATOM      6  H   UNL     1       7.059   8.577  16.302  0.00  0.00    +0.000 HD
ENDROOT
BRANCH   4   7
ATOM      7  C   UNL     1       6.598   6.701  17.064  0.00  0.00    +0.000 A 
ATOM      8  C   UNL     1       7.272   5.608  16.504  0.00  0.00    +0.000 A 
ATOM      9  C   UNL     1       6.674   4.345  16.384  0.00  0.00    +0.000 A 
ATOM     10  C   UNL     1       5.366   4.222  16.848  0.00  0.00    +0.000 A 
ATOM     11  N   UNL     1       4.495   3.165  16.838  0.00  0.00    +0.000 N 
ATOM     12  N   UNL     1       3.300   3.435  17.395  0.00  0.00    +0.000 NA
ATOM     13  C   UNL     1       3.417   4.714  17.767  0.00  0.00    +0.000 A 
ATOM     14  C   UNL     1       4.678   5.266  17.451  0.00  0.00    +0.000 A 
ATOM     15  C   UNL     1       5.307   6.521  17.588  0.00  0.00    +0.000 A 
ATOM     16  H   UNL     1       4.649   2.238  16.457  0.00  0.00    +0.000 HD
ENDBRANCH   4   7
BRANCH   3  17
ATOM     17  C   UNL     1       9.350  10.400  18.791  0.00  0.00    +0.000 C 
BRANCH  17  18
ATOM     18  C   UNL     1       9.772  11.765  18.310  0.00  0.00    +0.000 A 
ATOM     19  C   UNL     1       8.859  12.831  18.289  0.00  0.00    +0.000 A 
ATOM     20  C   UNL     1       9.260  14.107  17.881  0.00  0.00    +0.000 A 
ATOM     21  C   UNL     1      10.587  14.321  17.487  0.00  0.00    +0.000 A 
ATOM     22  C   UNL     1      11.507  13.269  17.489  0.00  0.00    +0.000 A 
ATOM     23  C   UNL     1      11.089  12.007  17.903  0.00  0.00    +0.000 A 
ATOM     24  F   UNL     1      11.982  11.007  17.910  0.00  0.00    +0.000 F 
BRANCH  21  25
ATOM     25  N   UNL     1      11.019  15.662  17.078  0.00  0.00    +0.000 N 
ATOM     26  O   UNL     1      10.143  16.513  16.867  0.00  0.00    +0.000 OA
ATOM     27  O   UNL     1      12.237  15.866  16.971  0.00  0.00    +0.000 OA
ENDBRANCH  21  25
ENDBRANCH  17  18
ENDBRANCH   3  17
TORSDOF 4
ENDMDL
MODEL 3
REMARK VINA RESULT:      -8.0      5.889      8.521
REMARK  Name = 
REMARK  4 active torsions:
REMARK  status: ('A' for Active; 'I' for Inactive)
REMARK    1  A    between atoms: N_3  and  C_4
REMARK    2  A    between atoms: C_4  and  C_5
REMARK    3  A    between atoms: C_8  and  N_9
REMARK    4  A    between atoms: N_15  and  C_16
REMARK                            x       y       z     vdW  Elec       q    Type
REMARK                         _______ _______ _______ _____ _____    ______ ____
ROOT
ATOM      1  O   UNL     1       1.529   6.500  20.829  0.00  0.00    +0.000 OA
ATOM      2  C   UNL     1       1.933   7.303  19.993  0.00  0.00    +0.000 C 
ATOM      3  N   UNL     1       2.734   6.914  18.942  0.00  0.00    +0.000 N 
ATOM      4  N   UNL     1       1.643   8.651  19.957  0.00  0.00    +0.000 N 
ATOM      5  H   UNL     1       3.293   7.627  18.499  0.00  0.00    +0.000 HD
ATOM      6  H   UNL     1       1.815   9.119  19.080  0.00  0.00    +0.000 HD
ENDROOT
BRANCH   4   7
ATOM      7  C   UNL     1       0.850   9.344  20.905  0.00  0.00    +0.000 A 
ATOM      8  C   UNL     1       0.810   8.990  22.259  0.00  0.00    +0.000 A 
ATOM      9  C   UNL     1      -0.035   9.635  23.174  0.00  0.00    +0.000 A 
ATOM     10  C   UNL     1      -0.843  10.653  22.673  0.00  0.00    +0.000 A 
ATOM     11  N   UNL     1      -1.794  11.436  23.273  0.00  0.00    +0.000 N 
ATOM     12  N   UNL     1      -2.367  12.331  22.447  0.00  0.00    +0.000 NA
ATOM     13  C   UNL     1      -1.759  12.103  21.278  0.00  0.00    +0.000 A 
ATOM     14  C   UNL     1      -0.802  11.067  21.348  0.00  0.00    +0.000 A 
ATOM     15  C   UNL     1       0.074  10.424  20.450  0.00  0.00    +0.000 A 
ATOM     16  H   UNL     1      -2.107  11.402  24.236  0.00  0.00    +0.000 HD
ENDBRANCH   4   7
BRANCH   3  17
ATOM     17  C   UNL     1       3.225   5.551  18.852  0.00  0.00    +0.000 C 
BRANCH  17  18
ATOM     18  C   UNL     1       4.106   5.336  17.648  0.00  0.00    +0.000 A 
ATOM     19  C   UNL     1       4.570   6.428  16.896  0.00  0.00    +0.000 A 
ATOM     20  C   UNL     1       5.420   6.233  15.803  0.00  0.00    +0.000 A 
ATOM     21  C   UNL     1       5.810   4.933  15.455  0.00  0.00    +0.000 A 
ATOM     22  C   UNL     1       5.348   3.833  16.183  0.00  0.00    +0.000 A 
ATOM     23  C   UNL     1       4.506   4.049  17.271  0.00  0.00    +0.000 A 
ATOM     24  F   UNL     1       4.076   2.989  17.969  0.00  0.00    +0.000 F 
BRANCH  21  25
ATOM     25  N   UNL     1       6.719   4.723  14.322  0.00  0.00    +0.000 N 
ATOM     26  O   UNL     1       7.707   5.464  14.229  0.00  0.00    +0.000 OA
ATOM     27  O   UNL     1       6.446   3.812  13.526  0.00  0.00    +0.000 OA
ENDBRANCH  21  25
ENDBRANCH  17  18
ENDBRANCH   3  17
TORSDOF 4
ENDMDL
MODEL 4
REMARK VINA RESULT:      -7.9      1.180      1.503
REMARK  Name = 
REMARK  4 active torsions:
REMARK  status: ('A' for Active; 'I' for Inactive)
REMARK    1  A    between atoms: N_3  and  C_4
REMARK    2  A    between atoms: C_4  and  C_5
REMARK    3  A    between atoms: C_8  and  N_9
REMARK    4  A    between atoms: N_15  and  C_16
REMARK                            x       y       z     vdW  Elec       q    Type
REMARK                         _______ _______ _______ _____ _____    ______ ____
ROOT
ATOM      1  O   UNL     1       8.658   7.670  18.812  0.00  0.00    +0.000 OA
ATOM      2  C   UNL     1       8.093   8.301  17.923  0.00  0.00    +0.000 C 
ATOM      3  N   UNL     1       7.237   7.691  17.032  0.00  0.00    +0.000 N 
ATOM      4  N   UNL     1       8.198   9.658  17.701  0.00  0.00    +0.000 N 
ATOM      5  H   UNL     1       7.073   8.161  16.155  0.00  0.00    +0.000 HD
ATOM      6  H   UNL     1       7.480  10.069  17.123  0.00  0.00    +0.000 HD
ENDROOT
BRANCH   4   7
ATOM      7  C   UNL     1       9.005  10.551  18.448  0.00  0.00    +0.000 A 
ATOM      8  C   UNL     1       9.219  10.404  19.825  0.00  0.00    +0.000 A 
ATOM      9  C   UNL     1       9.958  11.335  20.568  0.00  0.00    +0.000 A 
ATOM     10  C   UNL     1      10.476  12.426  19.872  0.00  0.00    +0.000 A 
ATOM     11  N   UNL     1      11.188  13.517  20.295  0.00  0.00    +0.000 N 
ATOM     12  N   UNL     1      11.523  14.368  19.307  0.00  0.00    +0.000 NA
ATOM     13  C   UNL     1      10.998  13.796  18.219  0.00  0.00    +0.000 A 
ATOM     14  C   UNL     1      10.327  12.586  18.501  0.00  0.00    +0.000 A 
ATOM     15  C   UNL     1       9.604  11.624  17.767  0.00  0.00    +0.000 A 
ATOM     16  H   UNL     1      11.468  13.746  21.242  0.00  0.00    +0.000 HD
ENDBRANCH   4   7
BRANCH   3  17
ATOM     17  C   UNL     1       7.063   6.250  17.044  0.00  0.00    +0.000 C 
BRANCH  17  18
ATOM     18  C   UNL     1       5.778   5.833  17.712  0.00  0.00    +0.000 A 
ATOM     19  C   UNL     1       4.572   5.809  16.993  0.00  0.00    +0.000 A 
ATOM     20  C   UNL     1       3.386   5.384  17.601  0.00  0.00    +0.000 A 
ATOM     21  C   UNL     1       3.404   4.980  18.942  0.00  0.00    +0.000 A 
ATOM     22  C   UNL     1       4.592   5.009  19.677  0.00  0.00    +0.000 A 
ATOM     23  C   UNL     1       5.763   5.431  19.053  0.00  0.00    +0.000 A 
ATOM     24  F   UNL     1       6.899   5.447  19.763  0.00  0.00    +0.000 F 
BRANCH  21  25
ATOM     25  N   UNL     1       2.168   4.513  19.580  0.00  0.00    +0.000 N 
ATOM     26  O   UNL     1       2.110   4.538  20.817  0.00  0.00    +0.000 OA
ATOM     27  O   UNL     1       1.252   4.122  18.841  0.00  0.00    +0.000 OA
ENDBRANCH  21  25
ENDBRANCH  17  18
ENDBRANCH   3  17
TORSDOF 4
ENDMDL
MODEL 5
REMARK VINA RESULT:      -7.9      1.602      1.781
REMARK  Name = 
REMARK  4 active torsions:
REMARK  status: ('A' for Active; 'I' for Inactive)
REMARK    1  A    between atoms: N_3  and  C_4
REMARK    2  A    between atoms: C_4  and  C_5
REMARK    3  A    between atoms: C_8  and  N_9
REMARK    4  A    between atoms: N_15  and  C_16
REMARK                            x       y       z     vdW  Elec       q    Type
REMARK                         _______ _______ _______ _____ _____    ______ ____
ROOT
ATOM      1  O   UNL     1       8.568   7.587  18.768  0.00  0.00    +0.000 OA
ATOM      2  C   UNL     1       7.971   8.172  17.868  0.00  0.00    +0.000 C 
ATOM      3  N   UNL     1       7.168   7.499  16.974  0.00  0.00    +0.000 N 
ATOM      4  N   UNL     1       7.986   9.531  17.635  0.00  0.00    +0.000 N 
ATOM      5  H   UNL     1       6.982   7.949  16.091  0.00  0.00    +0.000 HD
ATOM      6  H   UNL     1       7.249   9.889  17.046  0.00  0.00    +0.000 HD
ENDROOT
BRANCH   4   7
ATOM      7  C   UNL     1       8.723  10.482  18.382  0.00  0.00    +0.000 A 
ATOM      8  C   UNL     1       9.283  10.191  19.633  0.00  0.00    +0.000 A 
ATOM      9  C   UNL     1       9.946  11.162  20.397  0.00  0.00    +0.000 A 
ATOM     10  C   UNL     1      10.026  12.443  19.855  0.00  0.00    +0.000 A 
ATOM     11  N   UNL     1      10.552  13.607  20.350  0.00  0.00    +0.000 N 
ATOM     12  N   UNL     1      10.444  14.655  19.512  0.00  0.00    +0.000 NA
ATOM     13  C   UNL     1       9.820  14.136  18.450  0.00  0.00    +0.000 A 
ATOM     14  C   UNL     1       9.526  12.763  18.600  0.00  0.00    +0.000 A 
ATOM     15  C   UNL     1       8.887  11.766  17.835  0.00  0.00    +0.000 A 
ATOM     16  H   UNL     1      10.987  13.756  21.253  0.00  0.00    +0.000 HD
ENDBRANCH   4   7
BRANCH   3  17
ATOM     17  C   UNL     1       7.091   6.049  16.996  0.00  0.00    +0.000 C 
BRANCH  17  18
ATOM     18  C   UNL     1       5.702   5.553  17.309  0.00  0.00    +0.000 A 
ATOM     19  C   UNL     1       4.810   6.343  18.052  0.00  0.00    +0.000 A 
ATOM     20  C   UNL     1       3.509   5.900  18.309  0.00  0.00    +0.000 A 
ATOM     21  C   UNL     1       3.093   4.655  17.822  0.00  0.00    +0.000 A 
ATOM     22  C   UNL     1       3.972   3.849  17.091  0.00  0.00    +0.000 A 
ATOM     23  C   UNL     1       5.262   4.309  16.842  0.00  0.00    +0.000 A 
ATOM     24  F   UNL     1       6.093   3.533  16.133  0.00  0.00    +0.000 F 
BRANCH  21  25
ATOM     25  N   UNL     1       1.722   4.194  18.069  0.00  0.00    +0.000 N 
ATOM     26  O   UNL     1       1.425   3.858  19.224  0.00  0.00    +0.000 OA
ATOM     27  O   UNL     1       0.940   4.173  17.108  0.00  0.00    +0.000 OA
ENDBRANCH  21  25
ENDBRANCH  17  18
ENDBRANCH   3  17
TORSDOF 4
ENDMDL
MODEL 6
REMARK VINA RESULT:      -7.8      1.134      1.295
REMARK  Name = 
REMARK  4 active torsions:
REMARK  status: ('A' for Active; 'I' for Inactive)
REMARK    1  A    between atoms: N_3  and  C_4
REMARK    2  A    between atoms: C_4  and  C_5
REMARK    3  A    between atoms: C_8  and  N_9
REMARK    4  A    between atoms: N_15  and  C_16
REMARK                            x       y       z     vdW  Elec       q    Type
REMARK                         _______ _______ _______ _____ _____    ______ ____
ROOT
ATOM      1  O   UNL     1       7.690   9.067  17.208  0.00  0.00    +0.000 OA
ATOM      2  C   UNL     1       8.177   8.407  18.121  0.00  0.00    +0.000 C 
ATOM      3  N   UNL     1       8.002   7.043  18.203  0.00  0.00    +0.000 N 
ATOM      4  N   UNL     1       8.961   8.894  19.146  0.00  0.00    +0.000 N 
ATOM      5  H   UNL     1       8.125   6.615  19.108  0.00  0.00    +0.000 HD
ATOM      6  H   UNL     1       9.503   8.211  19.654  0.00  0.00    +0.000 HD
ENDROOT
BRANCH   4   7
ATOM      7  C   UNL     1       9.311  10.254  19.334  0.00  0.00    +0.000 A 
ATOM      8  C   UNL     1       9.230  10.889  20.580  0.00  0.00    +0.000 A 
ATOM      9  C   UNL     1       9.508  12.254  20.740  0.00  0.00    +0.000 A 
ATOM     10  C   UNL     1       9.870  12.962  19.595  0.00  0.00    +0.000 A 
ATOM     11  N   UNL     1      10.154  14.287  19.399  0.00  0.00    +0.000 N 
ATOM     12  N   UNL     1      10.474  14.595  18.128  0.00  0.00    +0.000 NA
ATOM     13  C   UNL     1      10.384  13.421  17.496  0.00  0.00    +0.000 A 
ATOM     14  C   UNL     1      10.006  12.362  18.350  0.00  0.00    +0.000 A 
ATOM     15  C   UNL     1       9.750  10.982  18.215  0.00  0.00    +0.000 A 
ATOM     16  H   UNL     1      10.136  15.033  20.085  0.00  0.00    +0.000 HD
ENDBRANCH   4   7
BRANCH   3  17
ATOM     17  C   UNL     1       7.133   6.352  17.267  0.00  0.00    +0.000 C 
BRANCH  17  18
ATOM     18  C   UNL     1       5.804   5.988  17.878  0.00  0.00    +0.000 A 
ATOM     19  C   UNL     1       5.743   5.296  19.099  0.00  0.00    +0.000 A 
ATOM     20  C   UNL     1       4.511   4.994  19.687  0.00  0.00    +0.000 A 
ATOM     21  C   UNL     1       3.327   5.384  19.049  0.00  0.00    +0.000 A 
ATOM     22  C   UNL     1       3.368   6.062  17.828  0.00  0.00    +0.000 A 
ATOM     23  C   UNL     1       4.604   6.358  17.261  0.00  0.00    +0.000 A 
ATOM     24  F   UNL     1       4.633   7.017  16.094  0.00  0.00    +0.000 F 
BRANCH  21  25
ATOM     25  N   UNL     1       2.031   5.089  19.672  0.00  0.00    +0.000 N 
ATOM     26  O   UNL     1       1.337   4.196  19.166  0.00  0.00    +0.000 OA
ATOM     27  O   UNL     1       1.710   5.749  20.671  0.00  0.00    +0.000 OA
ENDBRANCH  21  25
ENDBRANCH  17  18
ENDBRANCH   3  17
TORSDOF 4
ENDMDL
MODEL 7
REMARK VINA RESULT:      -7.8      1.693      1.968
REMARK  Name = 
REMARK  4 active torsions:
REMARK  status: ('A' for Active; 'I' for Inactive)
REMARK    1  A    between atoms: N_3  and  C_4
REMARK    2  A    between atoms: C_4  and  C_5
REMARK    3  A    between atoms: C_8  and  N_9
REMARK    4  A    between atoms: N_15  and  C_16
REMARK                            x       y       z     vdW  Elec       q    Type
REMARK                         _______ _______ _______ _____ _____    ______ ____
ROOT
ATOM      1  O   UNL     1       8.498   7.262  18.711  0.00  0.00    +0.000 OA
ATOM      2  C   UNL     1       7.853   7.786  17.808  0.00  0.00    +0.000 C 
ATOM      3  N   UNL     1       7.061   7.046  16.957  0.00  0.00    +0.000 N 
ATOM      4  N   UNL     1       7.796   9.136  17.531  0.00  0.00    +0.000 N 
ATOM      5  H   UNL     1       6.832   7.457  16.066  0.00  0.00    +0.000 HD
ATOM      6  H   UNL     1       7.028   9.438  16.950  0.00  0.00    +0.000 HD
ENDROOT
BRANCH   4   7
ATOM      7  C   UNL     1       8.504  10.146  18.228  0.00  0.00    +0.000 A 
ATOM      8  C   UNL     1       9.129   9.918  19.460  0.00  0.00    +0.000 A 
ATOM      9  C   UNL     1       9.762  10.943  20.176  0.00  0.00    +0.000 A 
ATOM     10  C   UNL     1       9.744  12.214  19.605  0.00  0.00    +0.000 A 
ATOM     11  N   UNL     1      10.218  13.418  20.054  0.00  0.00    +0.000 N 
ATOM     12  N   UNL     1      10.013  14.439  19.201  0.00  0.00    +0.000 NA
ATOM     13  C   UNL     1       9.380  13.859  18.175  0.00  0.00    +0.000 A 
ATOM     14  C   UNL     1       9.176  12.475  18.365  0.00  0.00    +0.000 A 
ATOM     15  C   UNL     1       8.568  11.425  17.648  0.00  0.00    +0.000 A 
ATOM     16  H   UNL     1      10.679  13.613  20.935  0.00  0.00    +0.000 HD
ENDBRANCH   4   7
BRANCH   3  17
ATOM     17  C   UNL     1       7.056   5.595  17.029  0.00  0.00    +0.000 C 
BRANCH  17  18
ATOM     18  C   UNL     1       5.727   5.049  17.486  0.00  0.00    +0.000 A 
ATOM     19  C   UNL     1       4.811   4.526  16.560  0.00  0.00    +0.000 A 
ATOM     20  C   UNL     1       3.595   3.982  16.987  0.00  0.00    +0.000 A 
ATOM     21  C   UNL     1       3.290   3.962  18.354  0.00  0.00    +0.000 A 
ATOM     22  C   UNL     1       4.185   4.489  19.289  0.00  0.00    +0.000 A 
ATOM     23  C   UNL     1       5.392   5.022  18.844  0.00  0.00    +0.000 A 
ATOM     24  F   UNL     1       6.247   5.517  19.750  0.00  0.00    +0.000 F 
BRANCH  21  25
ATOM     25  N   UNL     1       2.026   3.373  18.811  0.00  0.00    +0.000 N 
ATOM     26  O   UNL     1       1.120   3.230  17.977  0.00  0.00    +0.000 OA
ATOM     27  O   UNL     1       1.941   3.049  20.004  0.00  0.00    +0.000 OA
ENDBRANCH  21  25
ENDBRANCH  17  18
ENDBRANCH   3  17
TORSDOF 4
ENDMDL
MODEL 8
REMARK VINA RESULT:      -7.8      6.274      9.359
REMARK  Name = 
REMARK  4 active torsions:
REMARK  status: ('A' for Active; 'I' for Inactive)
REMARK    1  A    between atoms: N_3  and  C_4
REMARK    2  A    between atoms: C_4  and  C_5
REMARK    3  A    between atoms: C_8  and  N_9
REMARK    4  A    between atoms: N_15  and  C_16
REMARK                            x       y       z     vdW  Elec       q    Type
REMARK                         _______ _______ _______ _____ _____    ______ ____
ROOT
ATOM      1  O   UNL     1       1.847   8.023  19.975  0.00  0.00    +0.000 OA
ATOM      2  C   UNL     1       1.963   8.376  18.805  0.00  0.00    +0.000 C 
ATOM      3  N   UNL     1       1.515   9.604  18.370  0.00  0.00    +0.000 N 
ATOM      4  N   UNL     1       2.558   7.651  17.794  0.00  0.00    +0.000 N 
ATOM      5  H   UNL     1       1.333   9.706  17.383  0.00  0.00    +0.000 HD
ATOM      6  H   UNL     1       2.821   8.170  16.970  0.00  0.00    +0.000 HD
ENDROOT
BRANCH   4   7
ATOM      7  C   UNL     1       3.109   6.352  17.932  0.00  0.00    +0.000 A 
ATOM      8  C   UNL     1       4.488   6.122  18.019  0.00  0.00    +0.000 A 
ATOM      9  C   UNL     1       5.026   4.829  18.081  0.00  0.00    +0.000 A 
ATOM     10  C   UNL     1       4.121   3.769  18.050  0.00  0.00    +0.000 A 
ATOM     11  N   UNL     1       4.311   2.413  18.045  0.00  0.00    +0.000 N 
ATOM     12  N   UNL     1       3.169   1.701  18.017  0.00  0.00    +0.000 NA
ATOM     13  C   UNL     1       2.221   2.643  17.997  0.00  0.00    +0.000 A 
ATOM     14  C   UNL     1       2.745   3.953  18.010  0.00  0.00    +0.000 A 
ATOM     15  C   UNL     1       2.223   5.262  17.978  0.00  0.00    +0.000 A 
ATOM     16  H   UNL     1       5.191   1.911  18.049  0.00  0.00    +0.000 HD
ENDBRANCH   4   7
BRANCH   3  17
ATOM     17  C   UNL     1       0.778  10.480  19.263  0.00  0.00    +0.000 C 
BRANCH  17  18
ATOM     18  C   UNL     1      -0.638  10.711  18.802  0.00  0.00    +0.000 A 
ATOM     19  C   UNL     1      -1.170   9.980  17.728  0.00  0.00    +0.000 A 
ATOM     20  C   UNL     1      -2.496  10.165  17.325  0.00  0.00    +0.000 A 
ATOM     21  C   UNL     1      -3.301  11.091  18.001  0.00  0.00    +0.000 A 
ATOM     22  C   UNL     1      -2.785  11.837  19.064  0.00  0.00    +0.000 A 
ATOM     23  C   UNL     1      -1.464  11.635  19.453  0.00  0.00    +0.000 A 
ATOM     24  F   UNL     1      -0.982  12.348  20.480  0.00  0.00    +0.000 F 
BRANCH  21  25
ATOM     25  N   UNL     1      -4.700  11.274  17.597  0.00  0.00    +0.000 N 
ATOM     26  O   UNL     1      -4.927  11.977  16.603  0.00  0.00    +0.000 OA
ATOM     27  O   UNL     1      -5.572  10.709  18.273  0.00  0.00    +0.000 OA
ENDBRANCH  21  25
ENDBRANCH  17  18
ENDBRANCH   3  17
TORSDOF 4
ENDMDL
MODEL 9
REMARK VINA RESULT:      -7.8      5.790      8.038
REMARK  Name = 
REMARK  4 active torsions:
REMARK  status: ('A' for Active; 'I' for Inactive)
REMARK    1  A    between atoms: N_3  and  C_4
REMARK    2  A    between atoms: C_4  and  C_5
REMARK    3  A    between atoms: C_8  and  N_9
REMARK    4  A    between atoms: N_15  and  C_16
REMARK                            x       y       z     vdW  Elec       q    Type
REMARK                         _______ _______ _______ _____ _____    ______ ____
ROOT
ATOM      1  O   UNL     1       2.170   5.980  18.476  0.00  0.00    +0.000 OA
ATOM      2  C   UNL     1       2.741   6.166  19.547  0.00  0.00    +0.000 C 
ATOM      3  N   UNL     1       3.692   5.291  20.024  0.00  0.00    +0.000 N 
ATOM      4  N   UNL     1       2.551   7.241  20.390  0.00  0.00    +0.000 N 
ATOM      5  H   UNL     1       3.875   5.304  21.016  0.00  0.00    +0.000 HD
ATOM      6  H   UNL     1       3.271   7.396  21.080  0.00  0.00    +0.000 HD
ENDROOT
BRANCH   4   7
ATOM      7  C   UNL     1       1.637   8.301  20.173  0.00  0.00    +0.000 A 
ATOM      8  C   UNL     1       1.449   8.892  18.917  0.00  0.00    +0.000 A 
ATOM      9  C   UNL     1       0.597   9.989  18.729  0.00  0.00    +0.000 A 
ATOM     10  C   UNL     1      -0.063  10.474  19.856  0.00  0.00    +0.000 A 
ATOM     11  N   UNL     1      -0.910  11.537  20.026  0.00  0.00    +0.000 N 
ATOM     12  N   UNL     1      -1.357  11.684  21.287  0.00  0.00    +0.000 NA
ATOM     13  C   UNL     1      -0.766  10.680  21.941  0.00  0.00    +0.000 A 
ATOM     14  C   UNL     1       0.059   9.890  21.110  0.00  0.00    +0.000 A 
ATOM     15  C   UNL     1       0.899   8.770  21.273  0.00  0.00    +0.000 A 
ATOM     16  H   UNL     1      -1.213  12.205  19.327  0.00  0.00    +0.000 HD
ENDBRANCH   4   7
BRANCH   3  17
ATOM     17  C   UNL     1       3.970   4.049  19.325  0.00  0.00    +0.000 C 
BRANCH  17  18
ATOM     18  C   UNL     1       4.762   4.267  18.061  0.00  0.00    +0.000 A 
ATOM     19  C   UNL     1       6.070   4.773  18.114  0.00  0.00    +0.000 A 
ATOM     20  C   UNL     1       6.820   4.938  16.944  0.00  0.00    +0.000 A 
ATOM     21  C   UNL     1       6.256   4.596  15.709  0.00  0.00    +0.000 A 
ATOM     22  C   UNL     1       4.951   4.102  15.636  0.00  0.00    +0.000 A 
ATOM     23  C   UNL     1       4.222   3.941  16.811  0.00  0.00    +0.000 A 
ATOM     24  F   UNL     1       2.975   3.458  16.731  0.00  0.00    +0.000 F 
BRANCH  21  25
ATOM     25  N   UNL     1       7.045   4.746  14.481  0.00  0.00    +0.000 N 
ATOM     26  O   UNL     1       6.740   4.042  13.507  0.00  0.00    +0.000 OA
ATOM     27  O   UNL     1       7.969   5.572  14.488  0.00  0.00    +0.000 OA
ENDBRANCH  21  25
ENDBRANCH  17  18
ENDBRANCH   3  17
TORSDOF 4
ENDMDL
