MODEL 1
REMARK VINA RESULT:      -8.9      0.000      0.000
REMARK  Name = 
REMARK  3 active torsions:
REMARK  status: ('A' for Active; 'I' for Inactive)
REMARK    1  A    between atoms: C_2  and  C_10
REMARK    2  A    between atoms: N_3  and  C_4
REMARK    3  A    between atoms: C_11  and  C_12
REMARK                            x       y       z     vdW  Elec       q    Type
REMARK                         _______ _______ _______ _____ _____    ______ ____
ROOT
ATOM      1  C   UNL     1       3.834   6.788  18.509  0.00  0.00    +0.000 A 
ATOM      2  C   UNL     1       4.233   5.584  19.088  0.00  0.00    +0.000 A 
ATOM      3  N   UNL     1       5.578   5.396  18.916  0.00  0.00    +0.000 N 
ATOM      4  O   UNL     1       6.327   5.060  19.877  0.00  0.00    +0.000 OA
ATOM      5  C   UNL     1       6.018   5.413  17.596  0.00  0.00    +0.000 A 
ATOM      6  C   UNL     1       7.148   4.684  17.196  0.00  0.00    +0.000 A 
ATOM      7  C   UNL     1       7.266   4.313  15.862  0.00  0.00    +0.000 A 
ATOM      8  C   UNL     1       6.307   4.734  14.940  0.00  0.00    +0.000 A 
ATOM      9  C   UNL     1       5.311   5.651  15.312  0.00  0.00    +0.000 A 
ATOM     10  C   UNL     1       5.164   6.034  16.659  0.00  0.00    +0.000 A 
ATOM     11  N   UNL     1       4.149   6.917  17.172  0.00  0.00    +0.000 N 
ATOM     12  O   UNL     1       3.494   7.682  16.389  0.00  0.00    +0.000 OA
ENDROOT
BRANCH   2  13
ATOM     13  C   UNL     1       3.396   4.377  18.610  0.00  0.00    +0.000 A 
ATOM     14  C   UNL     1       3.908   3.049  18.663  0.00  0.00    +0.000 A 
ATOM     15  C   UNL     1       3.100   1.923  18.512  0.00  0.00    +0.000 A 
ATOM     16  C   UNL     1       1.753   2.082  18.246  0.00  0.00    +0.000 A 
ATOM     17  C   UNL     1       1.222   3.363  18.124  0.00  0.00    +0.000 A 
ATOM     18  C   UNL     1       2.031   4.502  18.307  0.00  0.00    +0.000 A 
ENDBRANCH   2  13
BRANCH   1  20
ATOM     19  O   UNL     1       2.136   6.839  20.046  0.00  0.00    +0.000 OA
ATOM     20  C   UNL     1       2.689   7.474  19.156  0.00  0.00    +0.000 C 
ATOM     21  N   UNL     1       2.313   8.696  18.666  0.00  0.00    +0.000 N 
ATOM     22  H   UNL     1       2.945   9.126  17.981  0.00  0.00    +0.000 HD
BRANCH  21  23
ATOM     23  C   UNL     1       1.112   9.384  18.962  0.00  0.00    +0.000 A 
ATOM     24  C   UNL     1       0.754   9.816  20.246  0.00  0.00    +0.000 A 
ATOM     25  C   UNL     1      -0.463  10.461  20.471  0.00  0.00    +0.000 A 
ATOM     26  C   UNL     1      -1.337  10.694  19.410  0.00  0.00    +0.000 A 
ATOM     27  C   UNL     1      -0.985  10.280  18.123  0.00  0.00    +0.000 A 
ATOM     28  C   UNL     1       0.235   9.625  17.904  0.00  0.00    +0.000 A 
ENDBRANCH  21  23
ENDBRANCH   1  20
TORSDOF 3
ENDMDL
MODEL 2
REMARK VINA RESULT:      -8.6      0.313      1.331
REMARK  Name = 
REMARK  3 active torsions:
REMARK  status: ('A' for Active; 'I' for Inactive)
REMARK    1  A    between atoms: C_2  and  C_10
REMARK    2  A    between atoms: N_3  and  C_4
REMARK    3  A    between atoms: C_11  and  C_12
REMARK                            x       y       z     vdW  Elec       q    Type
REMARK                         _______ _______ _______ _____ _____    ______ ____
ROOT
ATOM      1  C   UNL     1       3.873   6.806  18.546  0.00  0.00    +0.000 A 
ATOM      2  C   UNL     1       4.343   5.661  19.190  0.00  0.00    +0.000 A 
ATOM      3  N   UNL     1       5.692   5.527  18.998  0.00  0.00    +0.000 N 
ATOM      4  O   UNL     1       6.476   5.289  19.960  0.00  0.00    +0.000 OA
ATOM      5  C   UNL     1       6.103   5.480  17.669  0.00  0.00    +0.000 A 
ATOM      6  C   UNL     1       7.259   4.781  17.289  0.00  0.00    +0.000 A 
ATOM      7  C   UNL     1       7.366   4.331  15.979  0.00  0.00    +0.000 A 
ATOM      8  C   UNL     1       6.369   4.647  15.055  0.00  0.00    +0.000 A 
ATOM      9  C   UNL     1       5.337   5.537  15.393  0.00  0.00    +0.000 A 
ATOM     10  C   UNL     1       5.200   5.999  16.716  0.00  0.00    +0.000 A 
ATOM     11  N   UNL     1       4.154   6.863  17.197  0.00  0.00    +0.000 N 
ATOM     12  O   UNL     1       3.446   7.544  16.382  0.00  0.00    +0.000 OA
ENDROOT
BRANCH   2  13
ATOM     13  C   UNL     1       3.556   4.388  18.809  0.00  0.00    +0.000 A 
ATOM     14  C   UNL     1       2.370   4.454  18.023  0.00  0.00    +0.000 A 
ATOM     15  C   UNL     1       1.797   3.331  17.428  0.00  0.00    +0.000 A 
ATOM     16  C   UNL     1       2.357   2.086  17.644  0.00  0.00    +0.000 A 
ATOM     17  C   UNL     1       3.480   1.967  18.456  0.00  0.00    +0.000 A 
ATOM     18  C   UNL     1       4.079   3.105  19.033  0.00  0.00    +0.000 A 
ENDBRANCH   2  13
BRANCH   1  20
ATOM     19  O   UNL     1       2.157   6.837  20.063  0.00  0.00    +0.000 OA
ATOM     20  C   UNL     1       2.710   7.476  19.176  0.00  0.00    +0.000 C 
ATOM     21  N   UNL     1       2.320   8.689  18.675  0.00  0.00    +0.000 N 
ATOM     22  H   UNL     1       2.953   9.126  17.995  0.00  0.00    +0.000 HD
BRANCH  21  23
ATOM     23  C   UNL     1       1.105   9.359  18.953  0.00  0.00    +0.000 A 
ATOM     24  C   UNL     1       0.159   9.702  17.978  0.00  0.00    +0.000 A 
ATOM     25  C   UNL     1      -1.004  10.394  18.321  0.00  0.00    +0.000 A 
ATOM     26  C   UNL     1      -1.243  10.742  19.649  0.00  0.00    +0.000 A 
ATOM     27  C   UNL     1      -0.315  10.393  20.632  0.00  0.00    +0.000 A 
ATOM     28  C   UNL     1       0.856   9.706  20.281  0.00  0.00    +0.000 A 
ENDBRANCH  21  23
ENDBRANCH   1  20
TORSDOF 3
ENDMDL
MODEL 3
REMARK VINA RESULT:      -8.5      2.297      8.087
REMARK  Name = 
REMARK  3 active torsions:
REMARK  status: ('A' for Active; 'I' for Inactive)
REMARK    1  A    between atoms: C_2  and  C_10
REMARK    2  A    between atoms: N_3  and  C_4
REMARK    3  A    between atoms: C_11  and  C_12
REMARK                            x       y       z     vdW  Elec       q    Type
REMARK                         _______ _______ _______ _____ _____    ______ ____
ROOT
ATOM      1  C   UNL     1       1.347   9.678  19.552  0.00  0.00    +0.000 A 
ATOM      2  C   UNL     1       0.782  10.811  18.967  0.00  0.00    +0.000 A 
ATOM      3  N   UNL     1       0.927  11.894  19.791  0.00  0.00    +0.000 N 
ATOM      4  O   UNL     1       1.361  13.000  19.359  0.00  0.00    +0.000 OA
ATOM      5  C   UNL     1       0.389  11.748  21.066  0.00  0.00    +0.000 A 
ATOM      6  C   UNL     1      -0.084  12.855  21.788  0.00  0.00    +0.000 A 
ATOM      7  C   UNL     1      -1.035  12.649  22.779  0.00  0.00    +0.000 A 
ATOM      8  C   UNL     1      -1.441  11.350  23.089  0.00  0.00    +0.000 A 
ATOM      9  C   UNL     1      -0.792  10.243  22.519  0.00  0.00    +0.000 A 
ATOM     10  C   UNL     1       0.168  10.425  21.505  0.00  0.00    +0.000 A 
ATOM     11  N   UNL     1       0.855   9.371  20.804  0.00  0.00    +0.000 N 
ATOM     12  O   UNL     1       0.885   8.187  21.277  0.00  0.00    +0.000 OA
ENDROOT
BRANCH   2  13
ATOM     13  C   UNL     1      -0.678  10.594  18.515  0.00  0.00    +0.000 A 
ATOM     14  C   UNL     1      -1.729  11.444  18.965  0.00  0.00    +0.000 A 
ATOM     15  C   UNL     1      -2.991  11.461  18.372  0.00  0.00    +0.000 A 
ATOM     16  C   UNL     1      -3.269  10.584  17.339  0.00  0.00    +0.000 A 
ATOM     17  C   UNL     1      -2.291   9.693  16.909  0.00  0.00    +0.000 A 
ATOM     18  C   UNL     1      -1.006   9.697  17.487  0.00  0.00    +0.000 A 
ENDBRANCH   2  13
BRANCH   1  20
ATOM     19  O   UNL     1       1.849   8.973  17.431  0.00  0.00    +0.000 OA
ATOM     20  C   UNL     1       1.906   8.672  18.617  0.00  0.00    +0.000 C 
ATOM     21  N   UNL     1       2.362   7.492  19.142  0.00  0.00    +0.000 N 
ATOM     22  H   UNL     1       2.426   7.443  20.165  0.00  0.00    +0.000 HD
BRANCH  21  23
ATOM     23  C   UNL     1       2.686   6.322  18.416  0.00  0.00    +0.000 A 
ATOM     24  C   UNL     1       1.840   5.211  18.303  0.00  0.00    +0.000 A 
ATOM     25  C   UNL     1       2.239   4.075  17.597  0.00  0.00    +0.000 A 
ATOM     26  C   UNL     1       3.490   4.039  16.982  0.00  0.00    +0.000 A 
ATOM     27  C   UNL     1       4.337   5.146  17.075  0.00  0.00    +0.000 A 
ATOM     28  C   UNL     1       3.934   6.280  17.792  0.00  0.00    +0.000 A 
ENDBRANCH  21  23
ENDBRANCH   1  20
TORSDOF 3
ENDMDL
MODEL 4
REMARK VINA RESULT:      -8.3      1.549      1.830
REMARK  Name = 
REMARK  3 active torsions:
REMARK  status: ('A' for Active; 'I' for Inactive)
REMARK    1  A    between atoms: C_2  and  C_10
REMARK    2  A    between atoms: N_3  and  C_4
REMARK    3  A    between atoms: C_11  and  C_12
REMARK                            x       y       z     vdW  Elec       q    Type
REMARK                         _______ _______ _______ _____ _____    ______ ____
ROOT
ATOM      1  C   UNL     1       3.742   6.807  18.469  0.00  0.00    +0.000 A 
ATOM      2  C   UNL     1       4.142   5.615  19.071  0.00  0.00    +0.000 A 
ATOM      3  N   UNL     1       5.499   5.461  18.965  0.00  0.00    +0.000 N 
ATOM      4  O   UNL     1       6.208   5.146  19.963  0.00  0.00    +0.000 OA
ATOM      5  C   UNL     1       6.001   5.484  17.668  0.00  0.00    +0.000 A 
ATOM      6  C   UNL     1       7.168   4.783  17.326  0.00  0.00    +0.000 A 
ATOM      7  C   UNL     1       7.358   4.411  16.001  0.00  0.00    +0.000 A 
ATOM      8  C   UNL     1       6.435   4.805  15.032  0.00  0.00    +0.000 A 
ATOM      9  C   UNL     1       5.399   5.698  15.352  0.00  0.00    +0.000 A 
ATOM     10  C   UNL     1       5.179   6.082  16.688  0.00  0.00    +0.000 A 
ATOM     11  N   UNL     1       4.117   6.940  17.148  0.00  0.00    +0.000 N 
ATOM     12  O   UNL     1       3.483   7.685  16.331  0.00  0.00    +0.000 OA
ENDROOT
BRANCH   2  13
ATOM     13  C   UNL     1       3.360   4.386  18.559  0.00  0.00    +0.000 A 
ATOM     14  C   UNL     1       3.970   3.103  18.463  0.00  0.00    +0.000 A 
ATOM     15  C   UNL     1       3.237   1.931  18.281  0.00  0.00    +0.000 A 
ATOM     16  C   UNL     1       1.865   2.004  18.128  0.00  0.00    +0.000 A 
ATOM     17  C   UNL     1       1.233   3.243  18.152  0.00  0.00    +0.000 A 
ATOM     18  C   UNL     1       1.970   4.426  18.368  0.00  0.00    +0.000 A 
ENDBRANCH   2  13
BRANCH   1  20
ATOM     19  O   UNL     1       1.938   8.210  18.300  0.00  0.00    +0.000 OA
ATOM     20  C   UNL     1       2.550   7.465  19.057  0.00  0.00    +0.000 C 
ATOM     21  N   UNL     1       2.284   7.246  20.382  0.00  0.00    +0.000 N 
ATOM     22  H   UNL     1       2.842   6.519  20.844  0.00  0.00    +0.000 HD
BRANCH  21  23
ATOM     23  C   UNL     1       1.369   7.968  21.183  0.00  0.00    +0.000 A 
ATOM     24  C   UNL     1      -0.023   7.815  21.114  0.00  0.00    +0.000 A 
ATOM     25  C   UNL     1      -0.869   8.586  21.913  0.00  0.00    +0.000 A 
ATOM     26  C   UNL     1      -0.333   9.515  22.804  0.00  0.00    +0.000 A 
ATOM     27  C   UNL     1       1.052   9.666  22.893  0.00  0.00    +0.000 A 
ATOM     28  C   UNL     1       1.897   8.896  22.082  0.00  0.00    +0.000 A 
ENDBRANCH  21  23
ENDBRANCH   1  20
TORSDOF 3
ENDMDL
MODEL 5
REMARK VINA RESULT:      -8.2      2.442      6.821
REMARK  Name = 
REMARK  3 active torsions:
REMARK  status: ('A' for Active; 'I' for Inactive)
REMARK    1  A    between atoms: C_2  and  C_10
REMARK    2  A    between atoms: N_3  and  C_4
REMARK    3  A    between atoms: C_11  and  C_12
REMARK                            x       y       z     vdW  Elec       q    Type
REMARK                         _______ _______ _______ _____ _____    ______ ____
ROOT
ATOM      1  C   UNL     1       4.339   4.146  17.360  0.00  0.00    +0.000 A 
ATOM      2  C   UNL     1       4.634   4.769  18.572  0.00  0.00    +0.000 A 
ATOM      3  N   UNL     1       4.525   3.877  19.605  0.00  0.00    +0.000 N 
ATOM      4  O   UNL     1       5.430   3.766  20.481  0.00  0.00    +0.000 OA
ATOM      5  C   UNL     1       3.287   3.254  19.725  0.00  0.00    +0.000 A 
ATOM      6  C   UNL     1       2.809   2.819  20.971  0.00  0.00    +0.000 A 
ATOM      7  C   UNL     1       1.438   2.679  21.147  0.00  0.00    +0.000 A 
ATOM      8  C   UNL     1       0.576   2.896  20.071  0.00  0.00    +0.000 A 
ATOM      9  C   UNL     1       1.084   3.104  18.779  0.00  0.00    +0.000 A 
ATOM     10  C   UNL     1       2.468   3.260  18.575  0.00  0.00    +0.000 A 
ATOM     11  N   UNL     1       3.102   3.537  17.312  0.00  0.00    +0.000 N 
ATOM     12  O   UNL     1       2.482   3.340  16.215  0.00  0.00    +0.000 OA
ENDROOT
BRANCH   2  13
ATOM     13  C   UNL     1       3.813   6.056  18.806  0.00  0.00    +0.000 A 
ATOM     14  C   UNL     1       3.690   7.053  17.796  0.00  0.00    +0.000 A 
ATOM     15  C   UNL     1       2.746   8.077  17.858  0.00  0.00    +0.000 A 
ATOM     16  C   UNL     1       1.922   8.177  18.964  0.00  0.00    +0.000 A 
ATOM     17  C   UNL     1       2.050   7.260  20.004  0.00  0.00    +0.000 A 
ATOM     18  C   UNL     1       2.984   6.207  19.928  0.00  0.00    +0.000 A 
ENDBRANCH   2  13
BRANCH   1  20
ATOM     19  O   UNL     1       4.798   5.842  15.890  0.00  0.00    +0.000 OA
ATOM     20  C   UNL     1       5.044   4.675  16.167  0.00  0.00    +0.000 C 
ATOM     21  N   UNL     1       5.834   3.813  15.455  0.00  0.00    +0.000 N 
ATOM     22  H   UNL     1       6.007   2.895  15.881  0.00  0.00    +0.000 HD
BRANCH  21  23
ATOM     23  C   UNL     1       6.375   4.042  14.167  0.00  0.00    +0.000 A 
ATOM     24  C   UNL     1       7.371   4.988  13.893  0.00  0.00    +0.000 A 
ATOM     25  C   UNL     1       7.835   5.183  12.591  0.00  0.00    +0.000 A 
ATOM     26  C   UNL     1       7.315   4.425  11.544  0.00  0.00    +0.000 A 
ATOM     27  C   UNL     1       6.331   3.469  11.806  0.00  0.00    +0.000 A 
ATOM     28  C   UNL     1       5.863   3.283  13.114  0.00  0.00    +0.000 A 
ENDBRANCH  21  23
ENDBRANCH   1  20
TORSDOF 3
ENDMDL
MODEL 6
REMARK VINA RESULT:      -8.1      0.967      1.545
REMARK  Name = 
REMARK  3 active torsions:
REMARK  status: ('A' for Active; 'I' for Inactive)
REMARK    1  A    between atoms: C_2  and  C_10
REMARK    2  A    between atoms: N_3  and  C_4
REMARK    3  A    between atoms: C_11  and  C_12
REMARK                            x       y       z     vdW  Elec       q    Type
REMARK                         _______ _______ _______ _____ _____    ______ ____
ROOT
ATOM      1  C   UNL     1       3.663   6.539  19.139  0.00  0.00    +0.000 A 
ATOM      2  C   UNL     1       4.224   5.304  19.462  0.00  0.00    +0.000 A 
ATOM      3  N   UNL     1       5.555   5.289  19.142  0.00  0.00    +0.000 N 
ATOM      4  O   UNL     1       6.427   4.878  19.961  0.00  0.00    +0.000 OA
ATOM      5  C   UNL     1       5.852   5.568  17.812  0.00  0.00    +0.000 A 
ATOM      6  C   UNL     1       6.994   5.037  17.194  0.00  0.00    +0.000 A 
ATOM      7  C   UNL     1       7.004   4.905  15.811  0.00  0.00    +0.000 A 
ATOM      8  C   UNL     1       5.921   5.370  15.063  0.00  0.00    +0.000 A 
ATOM      9  C   UNL     1       4.892   6.104  15.676  0.00  0.00    +0.000 A 
ATOM     10  C   UNL     1       4.854   6.243  17.076  0.00  0.00    +0.000 A 
ATOM     11  N   UNL     1       3.824   6.918  17.823  0.00  0.00    +0.000 N 
ATOM     12  O   UNL     1       3.027   7.730  17.245  0.00  0.00    +0.000 OA
ENDROOT
BRANCH   2  13
ATOM     13  C   UNL     1       3.451   4.112  18.857  0.00  0.00    +0.000 A 
ATOM     14  C   UNL     1       3.947   2.780  18.948  0.00  0.00    +0.000 A 
ATOM     15  C   UNL     1       3.162   1.662  18.673  0.00  0.00    +0.000 A 
ATOM     16  C   UNL     1       1.861   1.835  18.238  0.00  0.00    +0.000 A 
ATOM     17  C   UNL     1       1.354   3.121  18.075  0.00  0.00    +0.000 A 
ATOM     18  C   UNL     1       2.137   4.251  18.383  0.00  0.00    +0.000 A 
ENDBRANCH   2  13
BRANCH   1  20
ATOM     19  O   UNL     1       1.765   6.100  20.345  0.00  0.00    +0.000 OA
ATOM     20  C   UNL     1       2.535   6.986  19.993  0.00  0.00    +0.000 C 
ATOM     21  N   UNL     1       2.415   8.325  20.249  0.00  0.00    +0.000 N 
ATOM     22  H   UNL     1       3.202   8.917  19.957  0.00  0.00    +0.000 HD
BRANCH  21  23
ATOM     23  C   UNL     1       1.291   8.973  20.811  0.00  0.00    +0.000 A 
ATOM     24  C   UNL     1       0.337   9.677  20.063  0.00  0.00    +0.000 A 
ATOM     25  C   UNL     1      -0.731  10.321  20.689  0.00  0.00    +0.000 A 
ATOM     26  C   UNL     1      -0.868  10.261  22.075  0.00  0.00    +0.000 A 
ATOM     27  C   UNL     1       0.068   9.551  22.830  0.00  0.00    +0.000 A 
ATOM     28  C   UNL     1       1.144   8.913  22.197  0.00  0.00    +0.000 A 
ENDBRANCH  21  23
ENDBRANCH   1  20
TORSDOF 3
ENDMDL
MODEL 7
REMARK VINA RESULT:      -8.0      2.368      8.106
REMARK  Name = 
REMARK  3 active torsions:
REMARK  status: ('A' for Active; 'I' for Inactive)
REMARK    1  A    between atoms: C_2  and  C_10
REMARK    2  A    between atoms: N_3  and  C_4
REMARK    3  A    between atoms: C_11  and  C_12
REMARK                            x       y       z     vdW  Elec       q    Type
REMARK                         _______ _______ _______ _____ _____    ______ ____
ROOT
ATOM      1  C   UNL     1       1.361   9.871  19.534  0.00  0.00    +0.000 A 
ATOM      2  C   UNL     1       0.951  11.066  18.944  0.00  0.00    +0.000 A 
ATOM      3  N   UNL     1       1.137  12.111  19.808  0.00  0.00    +0.000 N 
ATOM      4  O   UNL     1       1.704  13.179  19.441  0.00  0.00    +0.000 OA
ATOM      5  C   UNL     1       0.496  11.989  21.037  0.00  0.00    +0.000 A 
ATOM      6  C   UNL     1       0.079  13.120  21.757  0.00  0.00    +0.000 A 
ATOM      7  C   UNL     1      -0.957  12.983  22.672  0.00  0.00    +0.000 A 
ATOM      8  C   UNL     1      -1.506  11.723  22.914  0.00  0.00    +0.000 A 
ATOM      9  C   UNL     1      -0.925  10.572  22.358  0.00  0.00    +0.000 A 
ATOM     10  C   UNL     1       0.119  10.683  21.420  0.00  0.00    +0.000 A 
ATOM     11  N   UNL     1       0.753   9.585  20.738  0.00  0.00    +0.000 N 
ATOM     12  O   UNL     1       0.636   8.392  21.177  0.00  0.00    +0.000 OA
ENDROOT
BRANCH   2  13
ATOM     13  C   UNL     1      -0.487  11.001  18.385  0.00  0.00    +0.000 A 
ATOM     14  C   UNL     1      -1.026   9.794  17.855  0.00  0.00    +0.000 A 
ATOM     15  C   UNL     1      -2.387   9.621  17.607  0.00  0.00    +0.000 A 
ATOM     16  C   UNL     1      -3.257  10.672  17.825  0.00  0.00    +0.000 A 
ATOM     17  C   UNL     1      -2.765  11.891  18.283  0.00  0.00    +0.000 A 
ATOM     18  C   UNL     1      -1.394  12.057  18.564  0.00  0.00    +0.000 A 
ENDBRANCH   2  13
BRANCH   1  20
ATOM     19  O   UNL     1       1.737   9.074  17.419  0.00  0.00    +0.000 OA
ATOM     20  C   UNL     1       1.890   8.837  18.611  0.00  0.00    +0.000 C 
ATOM     21  N   UNL     1       2.423   7.701  19.158  0.00  0.00    +0.000 N 
ATOM     22  H   UNL     1       2.561   7.707  20.176  0.00  0.00    +0.000 HD
BRANCH  21  23
ATOM     23  C   UNL     1       2.738   6.506  18.469  0.00  0.00    +0.000 A 
ATOM     24  C   UNL     1       3.939   6.293  17.780  0.00  0.00    +0.000 A 
ATOM     25  C   UNL     1       4.168   5.099  17.093  0.00  0.00    +0.000 A 
ATOM     26  C   UNL     1       3.201   4.096  17.094  0.00  0.00    +0.000 A 
ATOM     27  C   UNL     1       2.005   4.291  17.789  0.00  0.00    +0.000 A 
ATOM     28  C   UNL     1       1.777   5.495  18.470  0.00  0.00    +0.000 A 
ENDBRANCH  21  23
ENDBRANCH   1  20
TORSDOF 3
ENDMDL
MODEL 8
REMARK VINA RESULT:      -7.8      2.946      8.332
REMARK  Name = 
REMARK  3 active torsions:
REMARK  status: ('A' for Active; 'I' for Inactive)
REMARK    1  A    between atoms: C_2  and  C_10
REMARK    2  A    between atoms: N_3  and  C_4
REMARK    3  A    between atoms: C_11  and  C_12
REMARK                            x       y       z     vdW  Elec       q    Type
REMARK                         _______ _______ _______ _____ _____    ______ ____
ROOT
ATOM      1  C   UNL     1       1.114   9.643  20.526  0.00  0.00    +0.000 A 
ATOM      2  C   UNL     1       0.866  10.713  19.666  0.00  0.00    +0.000 A 
ATOM      3  N   UNL     1       1.062  11.902  20.317  0.00  0.00    +0.000 N 
ATOM      4  O   UNL     1       1.753  12.829  19.805  0.00  0.00    +0.000 OA
ATOM      5  C   UNL     1       0.303  12.082  21.468  0.00  0.00    +0.000 A 
ATOM      6  C   UNL     1      -0.078  13.364  21.896  0.00  0.00    +0.000 A 
ATOM      7  C   UNL     1      -1.202  13.492  22.702  0.00  0.00    +0.000 A 
ATOM      8  C   UNL     1      -1.879  12.350  23.133  0.00  0.00    +0.000 A 
ATOM      9  C   UNL     1      -1.352  11.072  22.887  0.00  0.00    +0.000 A 
ATOM     10  C   UNL     1      -0.221  10.914  22.064  0.00  0.00    +0.000 A 
ATOM     11  N   UNL     1       0.374   9.657  21.690  0.00  0.00    +0.000 N 
ATOM     12  O   UNL     1       0.114   8.594  22.345  0.00  0.00    +0.000 OA
ENDROOT
BRANCH   2  13
ATOM     13  C   UNL     1      -0.515  10.629  18.979  0.00  0.00    +0.000 A 
ATOM     14  C   UNL     1      -1.560  11.542  19.297  0.00  0.00    +0.000 A 
ATOM     15  C   UNL     1      -2.705  11.680  18.514  0.00  0.00    +0.000 A 
ATOM     16  C   UNL     1      -2.876  10.867  17.409  0.00  0.00    +0.000 A 
ATOM     17  C   UNL     1      -1.908   9.917  17.097  0.00  0.00    +0.000 A 
ATOM     18  C   UNL     1      -0.736   9.798  17.871  0.00  0.00    +0.000 A 
ENDBRANCH   2  13
BRANCH   1  20
ATOM     19  O   UNL     1       1.739   8.449  18.674  0.00  0.00    +0.000 OA
ATOM     20  C   UNL     1       1.632   8.406  19.893  0.00  0.00    +0.000 C 
ATOM     21  N   UNL     1       1.873   7.326  20.699  0.00  0.00    +0.000 N 
ATOM     22  H   UNL     1       1.823   7.492  21.711  0.00  0.00    +0.000 HD
BRANCH  21  23
ATOM     23  C   UNL     1       2.116   5.999  20.272  0.00  0.00    +0.000 A 
ATOM     24  C   UNL     1       3.289   5.587  19.626  0.00  0.00    +0.000 A 
ATOM     25  C   UNL     1       3.447   4.267  19.202  0.00  0.00    +0.000 A 
ATOM     26  C   UNL     1       2.436   3.334  19.429  0.00  0.00    +0.000 A 
ATOM     27  C   UNL     1       1.268   3.730  20.085  0.00  0.00    +0.000 A 
ATOM     28  C   UNL     1       1.111   5.059  20.501  0.00  0.00    +0.000 A 
ENDBRANCH  21  23
ENDBRANCH   1  20
TORSDOF 3
ENDMDL
MODEL 9
REMARK VINA RESULT:      -7.8      4.466     10.201
REMARK  Name = 
REMARK  3 active torsions:
REMARK  status: ('A' for Active; 'I' for Inactive)
REMARK    1  A    between atoms: C_2  and  C_10
REMARK    2  A    between atoms: N_3  and  C_4
REMARK    3  A    between atoms: C_11  and  C_12
REMARK                            x       y       z     vdW  Elec       q    Type
REMARK                         _______ _______ _______ _____ _____    ______ ____
ROOT
ATOM      1  C   UNL     1      -0.562  12.282  21.605  0.00  0.00    +0.000 A 
ATOM      2  C   UNL     1      -1.285  13.154  20.793  0.00  0.00    +0.000 A 
ATOM      3  N   UNL     1      -1.699  14.243  21.513  0.00  0.00    +0.000 N 
ATOM      4  O   UNL     1      -1.538  15.420  21.083  0.00  0.00    +0.000 OA
ATOM      5  C   UNL     1      -2.468  13.955  22.636  0.00  0.00    +0.000 A 
ATOM      6  C   UNL     1      -3.429  14.862  23.112  0.00  0.00    +0.000 A 
ATOM      7  C   UNL     1      -4.486  14.376  23.872  0.00  0.00    +0.000 A 
ATOM      8  C   UNL     1      -4.530  13.022  24.210  0.00  0.00    +0.000 A 
ATOM      9  C   UNL     1      -3.447  12.178  23.922  0.00  0.00    +0.000 A 
ATOM     10  C   UNL     1      -2.369  12.643  23.145  0.00  0.00    +0.000 A 
ATOM     11  N   UNL     1      -1.233  11.858  22.734  0.00  0.00    +0.000 N 
ATOM     12  O   UNL     1      -0.955  10.759  23.319  0.00  0.00    +0.000 OA
ENDROOT
BRANCH   2  13
ATOM     13  C   UNL     1      -2.442  12.461  20.040  0.00  0.00    +0.000 A 
ATOM     14  C   UNL     1      -3.801  12.819  20.273  0.00  0.00    +0.000 A 
ATOM     15  C   UNL     1      -4.838  12.428  19.427  0.00  0.00    +0.000 A 
ATOM     16  C   UNL     1      -4.564  11.614  18.344  0.00  0.00    +0.000 A 
ATOM     17  C   UNL     1      -3.259  11.189  18.114  0.00  0.00    +0.000 A 
ATOM     18  C   UNL     1      -2.205  11.609  18.950  0.00  0.00    +0.000 A 
ENDBRANCH   2  13
BRANCH   1  20
ATOM     19  O   UNL     1       1.478  12.139  20.573  0.00  0.00    +0.000 OA
ATOM     20  C   UNL     1       0.500  11.495  20.934  0.00  0.00    +0.000 C 
ATOM     21  N   UNL     1       0.271  10.163  20.715  0.00  0.00    +0.000 N 
ATOM     22  H   UNL     1      -0.560   9.763  21.168  0.00  0.00    +0.000 HD
BRANCH  21  23
ATOM     23  C   UNL     1       1.027   9.309  19.878  0.00  0.00    +0.000 A 
ATOM     24  C   UNL     1       1.245   9.543  18.514  0.00  0.00    +0.000 A 
ATOM     25  C   UNL     1       1.974   8.638  17.740  0.00  0.00    +0.000 A 
ATOM     26  C   UNL     1       2.507   7.491  18.324  0.00  0.00    +0.000 A 
ATOM     27  C   UNL     1       2.309   7.254  19.686  0.00  0.00    +0.000 A 
ATOM     28  C   UNL     1       1.568   8.161  20.456  0.00  0.00    +0.000 A 
ENDBRANCH  21  23
ENDBRANCH   1  20
TORSDOF 3
ENDMDL
