MODEL 1
REMARK VINA RESULT:      -7.4      0.000      0.000
REMARK  Name = 
REMARK  4 active torsions:
REMARK  status: ('A' for Active; 'I' for Inactive)
REMARK    1  A    between atoms: C_2  and  C_3
REMARK    2  A    between atoms: C_5  and  N_6
REMARK    3  A    between atoms: C_11  and  O_12
REMARK    4  A    between atoms: O_12  and  C_13
REMARK                            x       y       z     vdW  Elec       q    Type
REMARK                         _______ _______ _______ _____ _____    ______ ____
ROOT
ATOM      1  C   UNL     1       6.850   4.614  16.548  0.00  0.00    +0.000 A 
ATOM      2  C   UNL     1       7.582   5.028  15.417  0.00  0.00    +0.000 A 
ATOM      3  C   UNL     1       7.088   4.801  14.128  0.00  0.00    +0.000 A 
ATOM      4  C   UNL     1       5.861   4.155  13.945  0.00  0.00    +0.000 A 
ATOM      5  C   UNL     1       5.110   3.786  15.065  0.00  0.00    +0.000 A 
ATOM      6  C   UNL     1       5.573   4.045  16.366  0.00  0.00    +0.000 A 
ENDROOT
BRANCH   3   7
ATOM      7  N   UNL     1       7.869   5.228  12.958  0.00  0.00    +0.000 N 
ATOM      8  O   UNL     1       8.809   6.010  13.161  0.00  0.00    +0.000 OA
ATOM      9  O   UNL     1       7.538   4.791  11.852  0.00  0.00    +0.000 OA
ENDBRANCH   3   7
BRANCH   1  11
ATOM     10  N   UNL     1       7.932   4.938  18.885  0.00  0.00    +0.000 NA
ATOM     11  C   UNL     1       7.482   4.794  17.828  0.00  0.00    +0.000 C 
ENDBRANCH   1  11
BRANCH   6  12
ATOM     12  O   UNL     1       4.704   3.612  17.347  0.00  0.00    +0.000 OA
BRANCH  12  13
ATOM     13  C   UNL     1       3.891   4.498  18.010  0.00  0.00    +0.000 A 
ATOM     14  C   UNL     1       3.589   5.783  17.557  0.00  0.00    +0.000 A 
ATOM     15  C   UNL     1       2.909   6.668  18.397  0.00  0.00    +0.000 A 
ATOM     16  C   UNL     1       2.451   6.242  19.648  0.00  0.00    +0.000 A 
ATOM     17 BR   UNL     1       1.631   7.537  20.769  0.00  0.00    +0.000 Br
ATOM     18  C   UNL     1       2.629   4.911  20.036  0.00  0.00    +0.000 A 
ATOM     19 CL   UNL     1       2.006   4.277  21.517  0.00  0.00    +0.000 Cl
ATOM     20  C   UNL     1       3.349   4.040  19.214  0.00  0.00    +0.000 A 
ENDBRANCH  12  13
ENDBRANCH   6  12
TORSDOF 4
ENDMDL
MODEL 2
REMARK VINA RESULT:      -7.4      2.836      3.653
REMARK  Name = 
REMARK  4 active torsions:
REMARK  status: ('A' for Active; 'I' for Inactive)
REMARK    1  A    between atoms: C_2  and  C_3
REMARK    2  A    between atoms: C_5  and  N_6
REMARK    3  A    between atoms: C_11  and  O_12
REMARK    4  A    between atoms: O_12  and  C_13
REMARK                            x       y       z     vdW  Elec       q    Type
REMARK                         _______ _______ _______ _____ _____    ______ ____
ROOT
ATOM      1  C   UNL     1       3.838   4.552  17.286  0.00  0.00    +0.000 A 
ATOM      2  C   UNL     1       4.699   4.227  16.218  0.00  0.00    +0.000 A 
ATOM      3  C   UNL     1       5.786   5.051  15.905  0.00  0.00    +0.000 A 
ATOM      4  C   UNL     1       6.029   6.212  16.646  0.00  0.00    +0.000 A 
ATOM      5  C   UNL     1       5.205   6.512  17.735  0.00  0.00    +0.000 A 
ATOM      6  C   UNL     1       4.135   5.671  18.089  0.00  0.00    +0.000 A 
ENDROOT
BRANCH   3   7
ATOM      7  N   UNL     1       6.667   4.705  14.781  0.00  0.00    +0.000 N 
ATOM      8  O   UNL     1       7.719   5.350  14.668  0.00  0.00    +0.000 OA
ATOM      9  O   UNL     1       6.303   3.806  14.018  0.00  0.00    +0.000 OA
ENDBRANCH   3   7
BRANCH   1  11
ATOM     10  N   UNL     1       1.792   2.981  17.580  0.00  0.00    +0.000 NA
ATOM     11  C   UNL     1       2.689   3.706  17.469  0.00  0.00    +0.000 C 
ENDBRANCH   1  11
BRANCH   6  12
ATOM     12  O   UNL     1       3.432   6.123  19.187  0.00  0.00    +0.000 OA
BRANCH  12  13
ATOM     13  C   UNL     1       2.577   7.194  19.085  0.00  0.00    +0.000 A 
ATOM     14  C   UNL     1       2.330   7.895  17.905  0.00  0.00    +0.000 A 
ATOM     15  C   UNL     1       1.593   9.081  17.949  0.00  0.00    +0.000 A 
ATOM     16  C   UNL     1       1.028   9.515  19.153  0.00  0.00    +0.000 A 
ATOM     17 BR   UNL     1       0.133  11.190  19.147  0.00  0.00    +0.000 Br
ATOM     18  C   UNL     1       1.157   8.732  20.304  0.00  0.00    +0.000 A 
ATOM     19 CL   UNL     1       0.407   9.142  21.804  0.00  0.00    +0.000 Cl
ATOM     20  C   UNL     1       1.932   7.570  20.266  0.00  0.00    +0.000 A 
ENDBRANCH  12  13
ENDBRANCH   6  12
TORSDOF 4
ENDMDL
MODEL 3
REMARK VINA RESULT:      -7.3      1.298      1.684
REMARK  Name = 
REMARK  4 active torsions:
REMARK  status: ('A' for Active; 'I' for Inactive)
REMARK    1  A    between atoms: C_2  and  C_3
REMARK    2  A    between atoms: C_5  and  N_6
REMARK    3  A    between atoms: C_11  and  O_12
REMARK    4  A    between atoms: O_12  and  C_13
REMARK                            x       y       z     vdW  Elec       q    Type
REMARK                         _______ _______ _______ _____ _____    ______ ____
ROOT
ATOM      1  C   UNL     1       6.716   4.643  16.584  0.00  0.00    +0.000 A 
ATOM      2  C   UNL     1       7.485   5.022  15.466  0.00  0.00    +0.000 A 
ATOM      3  C   UNL     1       7.003   4.816  14.168  0.00  0.00    +0.000 A 
ATOM      4  C   UNL     1       5.751   4.225  13.965  0.00  0.00    +0.000 A 
ATOM      5  C   UNL     1       4.966   3.893  15.073  0.00  0.00    +0.000 A 
ATOM      6  C   UNL     1       5.417   4.133  16.382  0.00  0.00    +0.000 A 
ENDROOT
BRANCH   3   7
ATOM      7  N   UNL     1       7.822   5.205  13.012  0.00  0.00    +0.000 N 
ATOM      8  O   UNL     1       8.779   5.963  13.226  0.00  0.00    +0.000 OA
ATOM      9  O   UNL     1       7.504   4.762  11.904  0.00  0.00    +0.000 OA
ENDBRANCH   3   7
BRANCH   1  11
ATOM     10  N   UNL     1       7.772   4.916  18.940  0.00  0.00    +0.000 NA
ATOM     11  C   UNL     1       7.333   4.796  17.875  0.00  0.00    +0.000 C 
ENDBRANCH   1  11
BRANCH   6  12
ATOM     12  O   UNL     1       4.513   3.741  17.347  0.00  0.00    +0.000 OA
BRANCH  12  13
ATOM     13  C   UNL     1       3.942   4.661  18.194  0.00  0.00    +0.000 A 
ATOM     14  C   UNL     1       3.658   4.424  19.539  0.00  0.00    +0.000 A 
ATOM     15  C   UNL     1       2.907   5.356  20.259  0.00  0.00    +0.000 A 
ATOM     16  C   UNL     1       2.522   6.562  19.664  0.00  0.00    +0.000 A 
ATOM     17 BR   UNL     1       1.414   7.724  20.678  0.00  0.00    +0.000 Br
ATOM     18  C   UNL     1       2.935   6.857  18.362  0.00  0.00    +0.000 A 
ATOM     19 CL   UNL     1       2.590   8.363  17.589  0.00  0.00    +0.000 Cl
ATOM     20  C   UNL     1       3.647   5.904  17.629  0.00  0.00    +0.000 A 
ENDBRANCH  12  13
ENDBRANCH   6  12
TORSDOF 4
ENDMDL
MODEL 4
REMARK VINA RESULT:      -7.1      3.316      4.608
REMARK  Name = 
REMARK  4 active torsions:
REMARK  status: ('A' for Active; 'I' for Inactive)
REMARK    1  A    between atoms: C_2  and  C_3
REMARK    2  A    between atoms: C_5  and  N_6
REMARK    3  A    between atoms: C_11  and  O_12
REMARK    4  A    between atoms: O_12  and  C_13
REMARK                            x       y       z     vdW  Elec       q    Type
REMARK                         _______ _______ _______ _____ _____    ______ ____
ROOT
ATOM      1  C   UNL     1       3.767   4.982  17.644  0.00  0.00    +0.000 A 
ATOM      2  C   UNL     1       5.056   4.415  17.711  0.00  0.00    +0.000 A 
ATOM      3  C   UNL     1       6.194   5.226  17.624  0.00  0.00    +0.000 A 
ATOM      4  C   UNL     1       6.066   6.609  17.463  0.00  0.00    +0.000 A 
ATOM      5  C   UNL     1       4.789   7.179  17.445  0.00  0.00    +0.000 A 
ATOM      6  C   UNL     1       3.638   6.384  17.575  0.00  0.00    +0.000 A 
ENDROOT
BRANCH   3   7
ATOM      7  N   UNL     1       7.531   4.618  17.683  0.00  0.00    +0.000 N 
ATOM      8  O   UNL     1       8.095   4.598  18.786  0.00  0.00    +0.000 OA
ATOM      9  O   UNL     1       8.011   4.176  16.635  0.00  0.00    +0.000 OA
ENDBRANCH   3   7
BRANCH   1  11
ATOM     10  N   UNL     1       1.726   3.377  17.637  0.00  0.00    +0.000 NA
ATOM     11  C   UNL     1       2.658   4.065  17.637  0.00  0.00    +0.000 C 
ENDBRANCH   1  11
BRANCH   6  12
ATOM     12  O   UNL     1       2.468   7.115  17.533  0.00  0.00    +0.000 OA
BRANCH  12  13
ATOM     13  C   UNL     1       2.041   7.825  18.629  0.00  0.00    +0.000 A 
ATOM     14  C   UNL     1       2.066   7.345  19.938  0.00  0.00    +0.000 A 
ATOM     15  C   UNL     1       1.436   8.071  20.951  0.00  0.00    +0.000 A 
ATOM     16  C   UNL     1       0.863   9.317  20.674  0.00  0.00    +0.000 A 
ATOM     17 BR   UNL     1      -0.066  10.188  22.082  0.00  0.00    +0.000 Br
ATOM     18  C   UNL     1       0.969   9.860  19.389  0.00  0.00    +0.000 A 
ATOM     19 CL   UNL     1       0.381  11.433  18.987  0.00  0.00    +0.000 Cl
ATOM     20  C   UNL     1       1.561   9.111  18.368  0.00  0.00    +0.000 A 
ENDBRANCH  12  13
ENDBRANCH   6  12
TORSDOF 4
ENDMDL
MODEL 5
REMARK VINA RESULT:      -7.0      1.789      2.231
REMARK  Name = 
REMARK  4 active torsions:
REMARK  status: ('A' for Active; 'I' for Inactive)
REMARK    1  A    between atoms: C_2  and  C_3
REMARK    2  A    between atoms: C_5  and  N_6
REMARK    3  A    between atoms: C_11  and  O_12
REMARK    4  A    between atoms: O_12  and  C_13
REMARK                            x       y       z     vdW  Elec       q    Type
REMARK                         _______ _______ _______ _____ _____    ______ ____
ROOT
ATOM      1  C   UNL     1       6.166   4.946  17.709  0.00  0.00    +0.000 A 
ATOM      2  C   UNL     1       6.929   5.110  16.535  0.00  0.00    +0.000 A 
ATOM      3  C   UNL     1       6.411   4.730  15.292  0.00  0.00    +0.000 A 
ATOM      4  C   UNL     1       5.130   4.177  15.199  0.00  0.00    +0.000 A 
ATOM      5  C   UNL     1       4.353   4.058  16.355  0.00  0.00    +0.000 A 
ATOM      6  C   UNL     1       4.842   4.475  17.605  0.00  0.00    +0.000 A 
ENDROOT
BRANCH   3   7
ATOM      7  N   UNL     1       7.224   4.896  14.079  0.00  0.00    +0.000 N 
ATOM      8  O   UNL     1       8.188   5.672  14.145  0.00  0.00    +0.000 OA
ATOM      9  O   UNL     1       6.893   4.263  13.071  0.00  0.00    +0.000 OA
ENDBRANCH   3   7
BRANCH   1  11
ATOM     10  N   UNL     1       7.362   5.463  19.954  0.00  0.00    +0.000 NA
ATOM     11  C   UNL     1       6.816   5.266  18.952  0.00  0.00    +0.000 C 
ENDBRANCH   1  11
BRANCH   6  12
ATOM     12  O   UNL     1       3.940   4.281  18.631  0.00  0.00    +0.000 OA
BRANCH  12  13
ATOM     13  C   UNL     1       3.284   5.343  19.204  0.00  0.00    +0.000 A 
ATOM     14  C   UNL     1       2.711   5.324  20.475  0.00  0.00    +0.000 A 
ATOM     15  C   UNL     1       1.907   6.390  20.886  0.00  0.00    +0.000 A 
ATOM     16  C   UNL     1       1.751   7.512  20.066  0.00  0.00    +0.000 A 
ATOM     17 BR   UNL     1       0.556   8.867  20.651  0.00  0.00    +0.000 Br
ATOM     18  C   UNL     1       2.445   7.588  18.854  0.00  0.00    +0.000 A 
ATOM     19 CL   UNL     1       2.389   8.978  17.831  0.00  0.00    +0.000 Cl
ATOM     20  C   UNL     1       3.213   6.502  18.427  0.00  0.00    +0.000 A 
ENDBRANCH  12  13
ENDBRANCH   6  12
TORSDOF 4
ENDMDL
MODEL 6
REMARK VINA RESULT:      -6.8      4.751      6.443
REMARK  Name = 
REMARK  4 active torsions:
REMARK  status: ('A' for Active; 'I' for Inactive)
REMARK    1  A    between atoms: C_2  and  C_3
REMARK    2  A    between atoms: C_5  and  N_6
REMARK    3  A    between atoms: C_11  and  O_12
REMARK    4  A    between atoms: O_12  and  C_13
REMARK                            x       y       z     vdW  Elec       q    Type
REMARK                         _______ _______ _______ _____ _____    ______ ____
ROOT
ATOM      1  C   UNL     1       2.754   5.917  18.624  0.00  0.00    +0.000 A 
ATOM      2  C   UNL     1       2.448   4.634  18.127  0.00  0.00    +0.000 A 
ATOM      3  C   UNL     1       1.675   3.745  18.883  0.00  0.00    +0.000 A 
ATOM      4  C   UNL     1       1.201   4.118  20.145  0.00  0.00    +0.000 A 
ATOM      5  C   UNL     1       1.462   5.407  20.619  0.00  0.00    +0.000 A 
ATOM      6  C   UNL     1       2.200   6.326  19.854  0.00  0.00    +0.000 A 
ENDROOT
BRANCH   3   7
ATOM      7  N   UNL     1       1.375   2.406  18.357  0.00  0.00    +0.000 N 
ATOM      8  O   UNL     1       2.299   1.797  17.799  0.00  0.00    +0.000 OA
ATOM      9  O   UNL     1       0.226   1.976  18.494  0.00  0.00    +0.000 OA
ENDBRANCH   3   7
BRANCH   1  11
ATOM     10  N   UNL     1       4.308   7.418  17.185  0.00  0.00    +0.000 NA
ATOM     11  C   UNL     1       3.640   6.723  17.827  0.00  0.00    +0.000 C 
ENDBRANCH   1  11
BRANCH   6  12
ATOM     12  O   UNL     1       2.361   7.546  20.479  0.00  0.00    +0.000 OA
BRANCH  12  13
ATOM     13  C   UNL     1       1.385   8.510  20.404  0.00  0.00    +0.000 A 
ATOM     14  C   UNL     1       1.025   9.178  19.233  0.00  0.00    +0.000 A 
ATOM     15  C   UNL     1       0.157  10.270  19.302  0.00  0.00    +0.000 A 
ATOM     16  C   UNL     1      -0.421  10.636  20.522  0.00  0.00    +0.000 A 
ATOM     17 BR   UNL     1      -1.504  12.196  20.547  0.00  0.00    +0.000 Br
ATOM     18  C   UNL     1      -0.170   9.873  21.666  0.00  0.00    +0.000 A 
ATOM     19 CL   UNL     1      -0.921  10.193  23.188  0.00  0.00    +0.000 Cl
ATOM     20  C   UNL     1       0.734   8.808  21.603  0.00  0.00    +0.000 A 
ENDBRANCH  12  13
ENDBRANCH   6  12
TORSDOF 4
ENDMDL
MODEL 7
REMARK VINA RESULT:      -6.8      1.961      2.339
REMARK  Name = 
REMARK  4 active torsions:
REMARK  status: ('A' for Active; 'I' for Inactive)
REMARK    1  A    between atoms: C_2  and  C_3
REMARK    2  A    between atoms: C_5  and  N_6
REMARK    3  A    between atoms: C_11  and  O_12
REMARK    4  A    between atoms: O_12  and  C_13
REMARK                            x       y       z     vdW  Elec       q    Type
REMARK                         _______ _______ _______ _____ _____    ______ ____
ROOT
ATOM      1  C   UNL     1       6.833   5.611  17.423  0.00  0.00    +0.000 A 
ATOM      2  C   UNL     1       7.430   5.282  16.189  0.00  0.00    +0.000 A 
ATOM      3  C   UNL     1       6.691   5.344  15.003  0.00  0.00    +0.000 A 
ATOM      4  C   UNL     1       5.346   5.727  15.026  0.00  0.00    +0.000 A 
ATOM      5  C   UNL     1       4.764   6.100  16.242  0.00  0.00    +0.000 A 
ATOM      6  C   UNL     1       5.505   6.085  17.436  0.00  0.00    +0.000 A 
ENDROOT
BRANCH   3   7
ATOM      7  N   UNL     1       7.325   4.986  13.726  0.00  0.00    +0.000 N 
ATOM      8  O   UNL     1       6.816   4.057  13.082  0.00  0.00    +0.000 OA
ATOM      9  O   UNL     1       8.324   5.622  13.380  0.00  0.00    +0.000 OA
ENDBRANCH   3   7
BRANCH   1  11
ATOM     10  N   UNL     1       8.302   5.208  19.525  0.00  0.00    +0.000 NA
ATOM     11  C   UNL     1       7.636   5.419  18.601  0.00  0.00    +0.000 C 
ENDBRANCH   1  11
BRANCH   6  12
ATOM     12  O   UNL     1       4.770   6.482  18.535  0.00  0.00    +0.000 OA
BRANCH  12  13
ATOM     13  C   UNL     1       3.903   5.614  19.154  0.00  0.00    +0.000 A 
ATOM     14  C   UNL     1       2.667   5.980  19.685  0.00  0.00    +0.000 A 
ATOM     15  C   UNL     1       1.950   5.063  20.458  0.00  0.00    +0.000 A 
ATOM     16  C   UNL     1       2.423   3.757  20.622  0.00  0.00    +0.000 A 
ATOM     17 BR   UNL     1       1.445   2.608  21.774  0.00  0.00    +0.000 Br
ATOM     18  C   UNL     1       3.590   3.354  19.966  0.00  0.00    +0.000 A 
ATOM     19 CL   UNL     1       4.189   1.735  20.032  0.00  0.00    +0.000 Cl
ATOM     20  C   UNL     1       4.328   4.285  19.231  0.00  0.00    +0.000 A 
ENDBRANCH  12  13
ENDBRANCH   6  12
TORSDOF 4
ENDMDL
MODEL 8
REMARK VINA RESULT:      -6.7      2.033      2.488
REMARK  Name = 
REMARK  4 active torsions:
REMARK  status: ('A' for Active; 'I' for Inactive)
REMARK    1  A    between atoms: C_2  and  C_3
REMARK    2  A    between atoms: C_5  and  N_6
REMARK    3  A    between atoms: C_11  and  O_12
REMARK    4  A    between atoms: O_12  and  C_13
REMARK                            x       y       z     vdW  Elec       q    Type
REMARK                         _______ _______ _______ _____ _____    ______ ____
ROOT
ATOM      1  C   UNL     1       6.258   5.405  18.001  0.00  0.00    +0.000 A 
ATOM      2  C   UNL     1       6.995   5.189  16.819  0.00  0.00    +0.000 A 
ATOM      3  C   UNL     1       6.339   5.000  15.597  0.00  0.00    +0.000 A 
ATOM      4  C   UNL     1       4.943   5.019  15.534  0.00  0.00    +0.000 A 
ATOM      5  C   UNL     1       4.210   5.280  16.696  0.00  0.00    +0.000 A 
ATOM      6  C   UNL     1       4.855   5.514  17.923  0.00  0.00    +0.000 A 
ENDROOT
BRANCH   3   7
ATOM      7  N   UNL     1       7.122   4.764  14.375  0.00  0.00    +0.000 N 
ATOM      8  O   UNL     1       8.112   5.486  14.189  0.00  0.00    +0.000 OA
ATOM      9  O   UNL     1       6.742   3.872  13.610  0.00  0.00    +0.000 OA
ENDBRANCH   3   7
BRANCH   1  11
ATOM     10  N   UNL     1       7.666   5.561  20.176  0.00  0.00    +0.000 NA
ATOM     11  C   UNL     1       7.009   5.483  19.225  0.00  0.00    +0.000 C 
ENDBRANCH   1  11
BRANCH   6  12
ATOM     12  O   UNL     1       3.976   5.753  18.959  0.00  0.00    +0.000 OA
BRANCH  12  13
ATOM     13  C   UNL     1       3.101   6.811  18.912  0.00  0.00    +0.000 A 
ATOM     14  C   UNL     1       2.983   7.689  17.834  0.00  0.00    +0.000 A 
ATOM     15  C   UNL     1       2.201   8.839  17.964  0.00  0.00    +0.000 A 
ATOM     16  C   UNL     1       1.466   9.064  19.133  0.00  0.00    +0.000 A 
ATOM     17 BR   UNL     1       0.516  10.702  19.270  0.00  0.00    +0.000 Br
ATOM     18  C   UNL     1       1.474   8.108  20.153  0.00  0.00    +0.000 A 
ATOM     19 CL   UNL     1       0.518   8.258  21.584  0.00  0.00    +0.000 Cl
ATOM     20  C   UNL     1       2.292   6.980  20.039  0.00  0.00    +0.000 A 
ENDBRANCH  12  13
ENDBRANCH   6  12
TORSDOF 4
ENDMDL
MODEL 9
REMARK VINA RESULT:      -6.6      3.226      4.551
REMARK  Name = 
REMARK  4 active torsions:
REMARK  status: ('A' for Active; 'I' for Inactive)
REMARK    1  A    between atoms: C_2  and  C_3
REMARK    2  A    between atoms: C_5  and  N_6
REMARK    3  A    between atoms: C_11  and  O_12
REMARK    4  A    between atoms: O_12  and  C_13
REMARK                            x       y       z     vdW  Elec       q    Type
REMARK                         _______ _______ _______ _____ _____    ______ ____
ROOT
ATOM      1  C   UNL     1       3.931   5.163  19.171  0.00  0.00    +0.000 A 
ATOM      2  C   UNL     1       5.301   4.836  19.228  0.00  0.00    +0.000 A 
ATOM      3  C   UNL     1       6.201   5.384  18.307  0.00  0.00    +0.000 A 
ATOM      4  C   UNL     1       5.752   6.260  17.314  0.00  0.00    +0.000 A 
ATOM      5  C   UNL     1       4.402   6.623  17.284  0.00  0.00    +0.000 A 
ATOM      6  C   UNL     1       3.493   6.115  18.229  0.00  0.00    +0.000 A 
ENDROOT
BRANCH   3   7
ATOM      7  N   UNL     1       7.625   5.024  18.372  0.00  0.00    +0.000 N 
ATOM      8  O   UNL     1       8.246   5.356  19.392  0.00  0.00    +0.000 OA
ATOM      9  O   UNL     1       8.113   4.425  17.409  0.00  0.00    +0.000 OA
ENDBRANCH   3   7
BRANCH   1  11
ATOM     10  N   UNL     1       2.361   3.870  20.784  0.00  0.00    +0.000 NA
ATOM     11  C   UNL     1       3.064   4.473  20.088  0.00  0.00    +0.000 C 
ENDBRANCH   1  11
BRANCH   6  12
ATOM     12  O   UNL     1       2.206   6.581  18.046  0.00  0.00    +0.000 OA
BRANCH  12  13
ATOM     13  C   UNL     1       1.819   7.799  18.548  0.00  0.00    +0.000 A 
ATOM     14  C   UNL     1       1.631   8.946  17.777  0.00  0.00    +0.000 A 
ATOM     15  C   UNL     1       1.423  10.175  18.407  0.00  0.00    +0.000 A 
ATOM     16  C   UNL     1       1.311  10.243  19.800  0.00  0.00    +0.000 A 
ATOM     17 BR   UNL     1       1.137  11.964  20.583  0.00  0.00    +0.000 Br
ATOM     18  C   UNL     1       1.356   9.069  20.558  0.00  0.00    +0.000 A 
ATOM     19 CL   UNL     1       1.125   9.052  22.270  0.00  0.00    +0.000 Cl
ATOM     20  C   UNL     1       1.609   7.847  19.929  0.00  0.00    +0.000 A 
ENDBRANCH  12  13
ENDBRANCH   6  12
TORSDOF 4
ENDMDL
