MODEL 1
REMARK VINA RESULT:      -8.7      0.000      0.000
REMARK  Name = 
REMARK  5 active torsions:
REMARK  status: ('A' for Active; 'I' for Inactive)
REMARK    1  A    between atoms: C_1  and  O_2
REMARK    2  A    between atoms: O_2  and  C_3
REMARK    3  A    between atoms: C_6  and  N_7
REMARK    4  A    between atoms: N_9  and  C_10
REMARK    5  A    between atoms: C_10  and  C_12
REMARK                            x       y       z     vdW  Elec       q    Type
REMARK                         _______ _______ _______ _____ _____    ______ ____
ROOT
ATOM      1  N   UNL     1       3.690   6.281  18.225  0.00  0.00    +0.000 N 
ATOM      2  C   UNL     1       3.346   4.958  18.419  0.00  0.00    +0.000 C 
ATOM      3  N   UNL     1       2.229   4.410  18.057  0.00  0.00    +0.000 NA
ATOM      4  S   UNL     1       4.737   4.129  19.118  0.00  0.00    +0.000 S 
ATOM      5  C   UNL     1       5.923   5.281  18.383  0.00  0.00    +0.000 C 
ATOM      6  C   UNL     1       6.665   4.594  17.252  0.00  0.00    +0.000 C 
ATOM      7  S   UNL     1       5.849   5.078  15.758  0.00  0.00    +0.000 S 
ATOM      8  O   UNL     1       4.706   4.218  15.539  0.00  0.00    +0.000 OA
ATOM      9  O   UNL     1       6.847   5.309  14.742  0.00  0.00    +0.000 OA
ATOM     10  C   UNL     1       5.279   6.643  16.361  0.00  0.00    +0.000 C 
ATOM     11  C   UNL     1       5.111   6.491  17.873  0.00  0.00    +0.000 C 
ENDROOT
BRANCH   1  15
ATOM     12  C   UNL     1       1.029   9.521  19.080  0.00  0.00    +0.000 A 
ATOM     13  C   UNL     1       1.679   9.422  17.845  0.00  0.00    +0.000 A 
ATOM     14  C   UNL     1       2.585   8.382  17.573  0.00  0.00    +0.000 A 
ATOM     15  C   UNL     1       2.871   7.389  18.522  0.00  0.00    +0.000 A 
ATOM     16  C   UNL     1       2.234   7.531  19.766  0.00  0.00    +0.000 A 
ATOM     17  C   UNL     1       1.312   8.554  20.044  0.00  0.00    +0.000 A 
ATOM     18 CL   UNL     1       0.538   8.420  21.585  0.00  0.00    +0.000 Cl
BRANCH  12  20
ATOM     19  C   UNL     1      -1.141  10.337  18.524  0.00  0.00    +0.000 C 
ATOM     20  O   UNL     1       0.124  10.545  19.137  0.00  0.00    +0.000 OA
ENDBRANCH  12  20
ENDBRANCH   1  15
BRANCH   3  21
ATOM     21  C   UNL     1       2.051   3.058  18.111  0.00  0.00    +0.000 C 
ATOM     22  O   UNL     1       2.565   2.209  17.395  0.00  0.00    +0.000 OA
BRANCH  21  23
ATOM     23  C   UNL     1       1.134   2.636  19.215  0.00  0.00    +0.000 C 
ATOM     24  C   UNL     1       1.675   2.449  20.614  0.00  0.00    +0.000 C 
ATOM     25  C   UNL     1       0.757   3.600  20.318  0.00  0.00    +0.000 C 
ENDBRANCH  21  23
ENDBRANCH   3  21
TORSDOF 4
ENDMDL
MODEL 2
REMARK VINA RESULT:      -8.4      1.833      4.375
REMARK  Name = 
REMARK  5 active torsions:
REMARK  status: ('A' for Active; 'I' for Inactive)
REMARK    1  A    between atoms: C_1  and  O_2
REMARK    2  A    between atoms: O_2  and  C_3
REMARK    3  A    between atoms: C_6  and  N_7
REMARK    4  A    between atoms: N_9  and  C_10
REMARK    5  A    between atoms: C_10  and  C_12
REMARK                            x       y       z     vdW  Elec       q    Type
REMARK                         _______ _______ _______ _____ _____    ______ ____
ROOT
ATOM      1  N   UNL     1       2.961   5.918  18.356  0.00  0.00    +0.000 N 
ATOM      2  C   UNL     1       4.270   5.597  18.052  0.00  0.00    +0.000 C 
ATOM      3  N   UNL     1       5.314   6.006  18.700  0.00  0.00    +0.000 NA
ATOM      4  S   UNL     1       4.254   4.437  16.723  0.00  0.00    +0.000 S 
ATOM      5  C   UNL     1       2.614   3.808  17.156  0.00  0.00    +0.000 C 
ATOM      6  C   UNL     1       2.745   2.419  17.756  0.00  0.00    +0.000 C 
ATOM      7  S   UNL     1       2.707   2.632  19.512  0.00  0.00    +0.000 S 
ATOM      8  O   UNL     1       4.036   2.967  19.980  0.00  0.00    +0.000 OA
ATOM      9  O   UNL     1       1.932   1.561  20.090  0.00  0.00    +0.000 OA
ATOM     10  C   UNL     1       1.721   4.104  19.495  0.00  0.00    +0.000 C 
ATOM     11  C   UNL     1       2.007   4.804  18.168  0.00  0.00    +0.000 C 
ENDROOT
BRANCH   1  15
ATOM     12  C   UNL     1       1.297   9.783  19.128  0.00  0.00    +0.000 A 
ATOM     13  C   UNL     1       1.828   9.458  17.875  0.00  0.00    +0.000 A 
ATOM     14  C   UNL     1       2.412   8.204  17.628  0.00  0.00    +0.000 A 
ATOM     15  C   UNL     1       2.480   7.216  18.621  0.00  0.00    +0.000 A 
ATOM     16  C   UNL     1       1.973   7.579  19.879  0.00  0.00    +0.000 A 
ATOM     17  C   UNL     1       1.369   8.821  20.135  0.00  0.00    +0.000 A 
ATOM     18 CL   UNL     1       0.674   8.969  21.712  0.00  0.00    +0.000 Cl
BRANCH  12  20
ATOM     19  C   UNL     1       1.289  12.009  19.983  0.00  0.00    +0.000 C 
ATOM     20  O   UNL     1       0.697  11.012  19.162  0.00  0.00    +0.000 OA
ENDBRANCH  12  20
ENDBRANCH   1  15
BRANCH   3  21
ATOM     21  C   UNL     1       6.552   5.486  18.453  0.00  0.00    +0.000 C 
ATOM     22  O   UNL     1       6.978   4.386  18.783  0.00  0.00    +0.000 OA
BRANCH  21  23
ATOM     23  C   UNL     1       7.422   6.409  17.662  0.00  0.00    +0.000 C 
ATOM     24  C   UNL     1       7.007   7.849  17.462  0.00  0.00    +0.000 C 
ATOM     25  C   UNL     1       8.183   7.527  18.339  0.00  0.00    +0.000 C 
ENDBRANCH  21  23
ENDBRANCH   3  21
TORSDOF 4
ENDMDL
MODEL 3
REMARK VINA RESULT:      -8.2      1.897      4.295
REMARK  Name = 
REMARK  5 active torsions:
REMARK  status: ('A' for Active; 'I' for Inactive)
REMARK    1  A    between atoms: C_1  and  O_2
REMARK    2  A    between atoms: O_2  and  C_3
REMARK    3  A    between atoms: C_6  and  N_7
REMARK    4  A    between atoms: N_9  and  C_10
REMARK    5  A    between atoms: C_10  and  C_12
REMARK                            x       y       z     vdW  Elec       q    Type
REMARK                         _______ _______ _______ _____ _____    ______ ____
ROOT
ATOM      1  N   UNL     1       2.665   5.709  18.740  0.00  0.00    +0.000 N 
ATOM      2  C   UNL     1       3.633   5.212  17.889  0.00  0.00    +0.000 C 
ATOM      3  N   UNL     1       4.825   5.696  17.741  0.00  0.00    +0.000 NA
ATOM      4  S   UNL     1       3.007   3.736  17.152  0.00  0.00    +0.000 S 
ATOM      5  C   UNL     1       1.905   3.386  18.544  0.00  0.00    +0.000 C 
ATOM      6  C   UNL     1       2.446   2.210  19.336  0.00  0.00    +0.000 C 
ATOM      7  S   UNL     1       3.331   2.900  20.705  0.00  0.00    +0.000 S 
ATOM      8  O   UNL     1       4.673   3.241  20.282  0.00  0.00    +0.000 OA
ATOM      9  O   UNL     1       3.071   2.096  21.875  0.00  0.00    +0.000 OA
ATOM     10  C   UNL     1       2.372   4.385  20.811  0.00  0.00    +0.000 C 
ATOM     11  C   UNL     1       1.850   4.668  19.403  0.00  0.00    +0.000 C 
ENDROOT
BRANCH   1  15
ATOM     12  C   UNL     1       1.333   9.763  19.056  0.00  0.00    +0.000 A 
ATOM     13  C   UNL     1       1.809   9.247  17.845  0.00  0.00    +0.000 A 
ATOM     14  C   UNL     1       2.286   7.929  17.746  0.00  0.00    +0.000 A 
ATOM     15  C   UNL     1       2.295   7.064  18.851  0.00  0.00    +0.000 A 
ATOM     16  C   UNL     1       1.847   7.616  20.062  0.00  0.00    +0.000 A 
ATOM     17  C   UNL     1       1.350   8.926  20.171  0.00  0.00    +0.000 A 
ATOM     18 CL   UNL     1       0.704   9.319  21.727  0.00  0.00    +0.000 Cl
BRANCH  12  20
ATOM     19  C   UNL     1      -0.576  11.178  18.865  0.00  0.00    +0.000 C 
ATOM     20  O   UNL     1       0.835  11.031  18.947  0.00  0.00    +0.000 OA
ENDBRANCH  12  20
ENDBRANCH   1  15
BRANCH   3  21
ATOM     21  C   UNL     1       5.779   5.029  17.028  0.00  0.00    +0.000 C 
ATOM     22  O   UNL     1       6.551   4.171  17.437  0.00  0.00    +0.000 OA
BRANCH  21  23
ATOM     23  C   UNL     1       5.808   5.423  15.586  0.00  0.00    +0.000 C 
ATOM     24  C   UNL     1       6.929   4.937  14.695  0.00  0.00    +0.000 C 
ATOM     25  C   UNL     1       5.538   4.404  14.500  0.00  0.00    +0.000 C 
ENDBRANCH  21  23
ENDBRANCH   3  21
TORSDOF 4
ENDMDL
MODEL 4
REMARK VINA RESULT:      -8.2      1.922      4.492
REMARK  Name = 
REMARK  5 active torsions:
REMARK  status: ('A' for Active; 'I' for Inactive)
REMARK    1  A    between atoms: C_1  and  O_2
REMARK    2  A    between atoms: O_2  and  C_3
REMARK    3  A    between atoms: C_6  and  N_7
REMARK    4  A    between atoms: N_9  and  C_10
REMARK    5  A    between atoms: C_10  and  C_12
REMARK                            x       y       z     vdW  Elec       q    Type
REMARK                         _______ _______ _______ _____ _____    ______ ____
ROOT
ATOM      1  N   UNL     1       2.502   5.850  18.993  0.00  0.00    +0.000 N 
ATOM      2  C   UNL     1       3.699   5.346  18.522  0.00  0.00    +0.000 C 
ATOM      3  N   UNL     1       4.876   5.782  18.840  0.00  0.00    +0.000 NA
ATOM      4  S   UNL     1       3.343   3.931  17.530  0.00  0.00    +0.000 S 
ATOM      5  C   UNL     1       1.803   3.574  18.411  0.00  0.00    +0.000 C 
ATOM      6  C   UNL     1       1.989   2.343  19.280  0.00  0.00    +0.000 C 
ATOM      7  S   UNL     1       2.336   2.936  20.911  0.00  0.00    +0.000 S 
ATOM      8  O   UNL     1       3.749   3.234  21.018  0.00  0.00    +0.000 OA
ATOM      9  O   UNL     1       1.649   2.098  21.862  0.00  0.00    +0.000 OA
ATOM     10  C   UNL     1       1.444   4.458  20.744  0.00  0.00    +0.000 C 
ATOM     11  C   UNL     1       1.475   4.821  19.260  0.00  0.00    +0.000 C 
ENDROOT
BRANCH   1  15
ATOM     12  C   UNL     1       1.235   9.936  19.099  0.00  0.00    +0.000 A 
ATOM     13  C   UNL     1       1.750   9.365  17.929  0.00  0.00    +0.000 A 
ATOM     14  C   UNL     1       2.205   8.036  17.900  0.00  0.00    +0.000 A 
ATOM     15  C   UNL     1       2.154   7.215  19.036  0.00  0.00    +0.000 A 
ATOM     16  C   UNL     1       1.668   7.822  20.206  0.00  0.00    +0.000 A 
ATOM     17  C   UNL     1       1.192   9.143  20.245  0.00  0.00    +0.000 A 
ATOM     18 CL   UNL     1       0.491   9.607  21.756  0.00  0.00    +0.000 Cl
BRANCH  12  20
ATOM     19  C   UNL     1      -0.635  11.372  18.745  0.00  0.00    +0.000 C 
ATOM     20  O   UNL     1       0.766  11.208  18.921  0.00  0.00    +0.000 OA
ENDBRANCH  12  20
ENDBRANCH   1  15
BRANCH   3  21
ATOM     21  C   UNL     1       6.006   5.103  18.484  0.00  0.00    +0.000 C 
ATOM     22  O   UNL     1       6.341   3.979  18.834  0.00  0.00    +0.000 OA
BRANCH  21  23
ATOM     23  C   UNL     1       6.869   5.870  17.534  0.00  0.00    +0.000 C 
ATOM     24  C   UNL     1       6.578   7.328  17.261  0.00  0.00    +0.000 C 
ATOM     25  C   UNL     1       7.807   6.946  18.036  0.00  0.00    +0.000 C 
ENDBRANCH  21  23
ENDBRANCH   3  21
TORSDOF 4
ENDMDL
MODEL 5
REMARK VINA RESULT:      -7.9      1.645      4.066
REMARK  Name = 
REMARK  5 active torsions:
REMARK  status: ('A' for Active; 'I' for Inactive)
REMARK    1  A    between atoms: C_1  and  O_2
REMARK    2  A    between atoms: O_2  and  C_3
REMARK    3  A    between atoms: C_6  and  N_7
REMARK    4  A    between atoms: N_9  and  C_10
REMARK    5  A    between atoms: C_10  and  C_12
REMARK                            x       y       z     vdW  Elec       q    Type
REMARK                         _______ _______ _______ _____ _____    ______ ____
ROOT
ATOM      1  N   UNL     1       2.752   5.722  18.613  0.00  0.00    +0.000 N 
ATOM      2  C   UNL     1       3.614   5.369  17.593  0.00  0.00    +0.000 C 
ATOM      3  N   UNL     1       4.723   5.972  17.303  0.00  0.00    +0.000 NA
ATOM      4  S   UNL     1       3.007   3.887  16.854  0.00  0.00    +0.000 S 
ATOM      5  C   UNL     1       2.169   3.354  18.367  0.00  0.00    +0.000 C 
ATOM      6  C   UNL     1       2.925   2.190  18.982  0.00  0.00    +0.000 C 
ATOM      7  S   UNL     1       3.951   2.879  20.248  0.00  0.00    +0.000 S 
ATOM      8  O   UNL     1       5.177   3.369  19.654  0.00  0.00    +0.000 OA
ATOM      9  O   UNL     1       3.945   1.988  21.383  0.00  0.00    +0.000 OA
ATOM     10  C   UNL     1       2.898   4.259  20.604  0.00  0.00    +0.000 C 
ATOM     11  C   UNL     1       2.141   4.573  19.314  0.00  0.00    +0.000 C 
ENDROOT
BRANCH   1  15
ATOM     12  C   UNL     1       1.149   9.611  19.399  0.00  0.00    +0.000 A 
ATOM     13  C   UNL     1       1.564   9.242  18.114  0.00  0.00    +0.000 A 
ATOM     14  C   UNL     1       2.129   7.981  17.859  0.00  0.00    +0.000 A 
ATOM     15  C   UNL     1       2.292   7.028  18.875  0.00  0.00    +0.000 A 
ATOM     16  C   UNL     1       1.901   7.435  20.162  0.00  0.00    +0.000 A 
ATOM     17  C   UNL     1       1.317   8.685  20.428  0.00  0.00    +0.000 A 
ATOM     18 CL   UNL     1       0.769   8.887  22.056  0.00  0.00    +0.000 Cl
BRANCH  12  20
ATOM     19  C   UNL     1      -0.836  10.906  19.136  0.00  0.00    +0.000 C 
ATOM     20  O   UNL     1       0.550  10.839  19.444  0.00  0.00    +0.000 OA
ENDBRANCH  12  20
ENDBRANCH   1  15
BRANCH   3  21
ATOM     21  C   UNL     1       5.607   5.440  16.409  0.00  0.00    +0.000 C 
ATOM     22  O   UNL     1       5.352   4.889  15.346  0.00  0.00    +0.000 OA
BRANCH  21  23
ATOM     23  C   UNL     1       7.032   5.613  16.828  0.00  0.00    +0.000 C 
ATOM     24  C   UNL     1       7.361   5.901  18.275  0.00  0.00    +0.000 C 
ATOM     25  C   UNL     1       7.721   4.570  17.680  0.00  0.00    +0.000 C 
ENDBRANCH  21  23
ENDBRANCH   3  21
TORSDOF 4
ENDMDL
MODEL 6
REMARK VINA RESULT:      -7.6      1.143      1.482
REMARK  Name = 
REMARK  5 active torsions:
REMARK  status: ('A' for Active; 'I' for Inactive)
REMARK    1  A    between atoms: C_1  and  O_2
REMARK    2  A    between atoms: O_2  and  C_3
REMARK    3  A    between atoms: C_6  and  N_7
REMARK    4  A    between atoms: N_9  and  C_10
REMARK    5  A    between atoms: C_10  and  C_12
REMARK                            x       y       z     vdW  Elec       q    Type
REMARK                         _______ _______ _______ _____ _____    ______ ____
ROOT
ATOM      1  N   UNL     1       3.759   6.023  18.401  0.00  0.00    +0.000 N 
ATOM      2  C   UNL     1       3.564   4.665  18.562  0.00  0.00    +0.000 C 
ATOM      3  N   UNL     1       2.474   4.023  18.282  0.00  0.00    +0.000 NA
ATOM      4  S   UNL     1       5.090   3.952  19.085  0.00  0.00    +0.000 S 
ATOM      5  C   UNL     1       6.082   5.245  18.297  0.00  0.00    +0.000 C 
ATOM      6  C   UNL     1       6.770   4.680  17.068  0.00  0.00    +0.000 C 
ATOM      7  S   UNL     1       5.767   5.138  15.684  0.00  0.00    +0.000 S 
ATOM      8  O   UNL     1       4.694   4.178  15.533  0.00  0.00    +0.000 OA
ATOM      9  O   UNL     1       6.632   5.508  14.590  0.00  0.00    +0.000 OA
ATOM     10  C   UNL     1       5.113   6.614  16.415  0.00  0.00    +0.000 C 
ATOM     11  C   UNL     1       5.111   6.387  17.926  0.00  0.00    +0.000 C 
ENDROOT
BRANCH   1  15
ATOM     12  C   UNL     1       1.236   9.191  19.783  0.00  0.00    +0.000 A 
ATOM     13  C   UNL     1       1.376   8.003  20.510  0.00  0.00    +0.000 A 
ATOM     14  C   UNL     1       2.171   6.944  20.041  0.00  0.00    +0.000 A 
ATOM     15  C   UNL     1       2.872   7.031  18.828  0.00  0.00    +0.000 A 
ATOM     16  C   UNL     1       2.687   8.218  18.100  0.00  0.00    +0.000 A 
ATOM     17  C   UNL     1       1.911   9.292  18.567  0.00  0.00    +0.000 A 
ATOM     18 CL   UNL     1       1.972  10.705  17.571  0.00  0.00    +0.000 Cl
BRANCH  12  20
ATOM     19  C   UNL     1      -0.751  10.507  19.850  0.00  0.00    +0.000 C 
ATOM     20  O   UNL     1       0.494  10.140  20.430  0.00  0.00    +0.000 OA
ENDBRANCH  12  20
ENDBRANCH   1  15
BRANCH   3  21
ATOM     21  C   UNL     1       2.432   2.659  18.287  0.00  0.00    +0.000 C 
ATOM     22  O   UNL     1       2.976   1.894  17.502  0.00  0.00    +0.000 OA
BRANCH  21  23
ATOM     23  C   UNL     1       1.637   2.107  19.427  0.00  0.00    +0.000 C 
ATOM     24  C   UNL     1       1.918   2.573  20.837  0.00  0.00    +0.000 C 
ATOM     25  C   UNL     1       0.636   2.969  20.163  0.00  0.00    +0.000 C 
ENDBRANCH  21  23
ENDBRANCH   3  21
TORSDOF 4
ENDMDL
MODEL 7
REMARK VINA RESULT:      -7.2      2.177      4.603
REMARK  Name = 
REMARK  5 active torsions:
REMARK  status: ('A' for Active; 'I' for Inactive)
REMARK    1  A    between atoms: C_1  and  O_2
REMARK    2  A    between atoms: O_2  and  C_3
REMARK    3  A    between atoms: C_6  and  N_7
REMARK    4  A    between atoms: N_9  and  C_10
REMARK    5  A    between atoms: C_10  and  C_12
REMARK                            x       y       z     vdW  Elec       q    Type
REMARK                         _______ _______ _______ _____ _____    ______ ____
ROOT
ATOM      1  N   UNL     1       3.225   5.523  18.589  0.00  0.00    +0.000 N 
ATOM      2  C   UNL     1       4.560   5.494  18.236  0.00  0.00    +0.000 C 
ATOM      3  N   UNL     1       5.537   5.962  18.946  0.00  0.00    +0.000 NA
ATOM      4  S   UNL     1       4.706   4.592  16.727  0.00  0.00    +0.000 S 
ATOM      5  C   UNL     1       3.213   3.621  17.043  0.00  0.00    +0.000 C 
ATOM      6  C   UNL     1       3.599   2.195  17.393  0.00  0.00    +0.000 C 
ATOM      7  S   UNL     1       3.576   2.096  19.160  0.00  0.00    +0.000 S 
ATOM      8  O   UNL     1       4.840   2.573  19.680  0.00  0.00    +0.000 OA
ATOM      9  O   UNL     1       3.014   0.824  19.543  0.00  0.00    +0.000 OA
ATOM     10  C   UNL     1       2.351   3.353  19.396  0.00  0.00    +0.000 C 
ATOM     11  C   UNL     1       2.472   4.309  18.210  0.00  0.00    +0.000 C 
ENDROOT
BRANCH   1  15
ATOM     12  C   UNL     1       1.323   9.038  20.118  0.00  0.00    +0.000 A 
ATOM     13  C   UNL     1       1.400   7.864  20.877  0.00  0.00    +0.000 A 
ATOM     14  C   UNL     1       1.987   6.696  20.364  0.00  0.00    +0.000 A 
ATOM     15  C   UNL     1       2.535   6.653  19.074  0.00  0.00    +0.000 A 
ATOM     16  C   UNL     1       2.413   7.831  18.319  0.00  0.00    +0.000 A 
ATOM     17  C   UNL     1       1.846   9.012  18.826  0.00  0.00    +0.000 A 
ATOM     18 CL   UNL     1       1.961  10.374  17.766  0.00  0.00    +0.000 Cl
BRANCH  12  20
ATOM     19  C   UNL     1       0.224   9.832  22.080  0.00  0.00    +0.000 C 
ATOM     20  O   UNL     1       0.795  10.095  20.805  0.00  0.00    +0.000 OA
ENDBRANCH  12  20
ENDBRANCH   1  15
BRANCH   3  21
ATOM     21  C   UNL     1       6.838   5.717  18.615  0.00  0.00    +0.000 C 
ATOM     22  O   UNL     1       7.545   4.796  19.003  0.00  0.00    +0.000 OA
BRANCH  21  23
ATOM     23  C   UNL     1       7.387   6.710  17.641  0.00  0.00    +0.000 C 
ATOM     24  C   UNL     1       6.782   8.093  17.555  0.00  0.00    +0.000 C 
ATOM     25  C   UNL     1       8.163   7.917  18.120  0.00  0.00    +0.000 C 
ENDBRANCH  21  23
ENDBRANCH   3  21
TORSDOF 4
ENDMDL
MODEL 8
REMARK VINA RESULT:      -7.2      2.048      4.363
REMARK  Name = 
REMARK  5 active torsions:
REMARK  status: ('A' for Active; 'I' for Inactive)
REMARK    1  A    between atoms: C_1  and  O_2
REMARK    2  A    between atoms: O_2  and  C_3
REMARK    3  A    between atoms: C_6  and  N_7
REMARK    4  A    between atoms: N_9  and  C_10
REMARK    5  A    between atoms: C_10  and  C_12
REMARK                            x       y       z     vdW  Elec       q    Type
REMARK                         _______ _______ _______ _____ _____    ______ ____
ROOT
ATOM      1  N   UNL     1       2.571   5.553  18.989  0.00  0.00    +0.000 N 
ATOM      2  C   UNL     1       3.326   5.396  17.843  0.00  0.00    +0.000 C 
ATOM      3  N   UNL     1       4.326   6.142  17.493  0.00  0.00    +0.000 NA
ATOM      4  S   UNL     1       2.776   3.935  17.022  0.00  0.00    +0.000 S 
ATOM      5  C   UNL     1       2.193   3.170  18.556  0.00  0.00    +0.000 C 
ATOM      6  C   UNL     1       3.129   2.042  18.948  0.00  0.00    +0.000 C 
ATOM      7  S   UNL     1       4.237   2.713  20.153  0.00  0.00    +0.000 S 
ATOM      8  O   UNL     1       5.324   3.389  19.478  0.00  0.00    +0.000 OA
ATOM      9  O   UNL     1       4.461   1.721  21.177  0.00  0.00    +0.000 OA
ATOM     10  C   UNL     1       3.110   3.929  20.778  0.00  0.00    +0.000 C 
ATOM     11  C   UNL     1       2.168   4.282  19.627  0.00  0.00    +0.000 C 
ENDROOT
BRANCH   1  15
ATOM     12  C   UNL     1       1.112   9.312  20.422  0.00  0.00    +0.000 A 
ATOM     13  C   UNL     1       1.078   8.166  21.224  0.00  0.00    +0.000 A 
ATOM     14  C   UNL     1       1.518   6.920  20.745  0.00  0.00    +0.000 A 
ATOM     15  C   UNL     1       2.024   6.770  19.445  0.00  0.00    +0.000 A 
ATOM     16  C   UNL     1       2.013   7.926  18.648  0.00  0.00    +0.000 A 
ATOM     17  C   UNL     1       1.595   9.181  19.121  0.00  0.00    +0.000 A 
ATOM     18 CL   UNL     1       1.832  10.482  18.006  0.00  0.00    +0.000 Cl
BRANCH  12  20
ATOM     19  C   UNL     1      -0.187  10.300  22.161  0.00  0.00    +0.000 C 
ATOM     20  O   UNL     1       0.723  10.446  21.079  0.00  0.00    +0.000 OA
ENDBRANCH  12  20
ENDBRANCH   1  15
BRANCH   3  21
ATOM     21  C   UNL     1       5.136   5.799  16.450  0.00  0.00    +0.000 C 
ATOM     22  O   UNL     1       5.226   6.354  15.362  0.00  0.00    +0.000 OA
BRANCH  21  23
ATOM     23  C   UNL     1       6.005   4.620  16.752  0.00  0.00    +0.000 C 
ATOM     24  C   UNL     1       7.130   4.253  15.811  0.00  0.00    +0.000 C 
ATOM     25  C   UNL     1       7.447   4.807  17.171  0.00  0.00    +0.000 C 
ENDBRANCH  21  23
ENDBRANCH   3  21
TORSDOF 4
ENDMDL
MODEL 9
REMARK VINA RESULT:      -7.2      2.110      4.412
REMARK  Name = 
REMARK  5 active torsions:
REMARK  status: ('A' for Active; 'I' for Inactive)
REMARK    1  A    between atoms: C_1  and  O_2
REMARK    2  A    between atoms: O_2  and  C_3
REMARK    3  A    between atoms: C_6  and  N_7
REMARK    4  A    between atoms: N_9  and  C_10
REMARK    5  A    between atoms: C_10  and  C_12
REMARK                            x       y       z     vdW  Elec       q    Type
REMARK                         _______ _______ _______ _____ _____    ______ ____
ROOT
ATOM      1  N   UNL     1       2.912   5.699  18.749  0.00  0.00    +0.000 N 
ATOM      2  C   UNL     1       3.785   5.696  17.678  0.00  0.00    +0.000 C 
ATOM      3  N   UNL     1       4.771   6.518  17.510  0.00  0.00    +0.000 NA
ATOM      4  S   UNL     1       3.401   4.304  16.665  0.00  0.00    +0.000 S 
ATOM      5  C   UNL     1       2.712   3.359  18.047  0.00  0.00    +0.000 C 
ATOM      6  C   UNL     1       3.666   2.240  18.422  0.00  0.00    +0.000 C 
ATOM      7  S   UNL     1       4.610   2.833  19.797  0.00  0.00    +0.000 S 
ATOM      8  O   UNL     1       5.719   3.623  19.308  0.00  0.00    +0.000 OA
ATOM      9  O   UNL     1       4.786   1.752  20.736  0.00  0.00    +0.000 OA
ATOM     10  C   UNL     1       3.360   3.925  20.416  0.00  0.00    +0.000 C 
ATOM     11  C   UNL     1       2.519   4.352  19.214  0.00  0.00    +0.000 C 
ENDROOT
BRANCH   1  15
ATOM     12  C   UNL     1       1.114   9.232  20.361  0.00  0.00    +0.000 A 
ATOM     13  C   UNL     1       1.183   8.048  21.104  0.00  0.00    +0.000 A 
ATOM     14  C   UNL     1       1.735   6.874  20.564  0.00  0.00    +0.000 A 
ATOM     15  C   UNL     1       2.255   6.836  19.262  0.00  0.00    +0.000 A 
ATOM     16  C   UNL     1       2.141   8.026  18.525  0.00  0.00    +0.000 A 
ATOM     17  C   UNL     1       1.609   9.212  19.057  0.00  0.00    +0.000 A 
ATOM     18 CL   UNL     1       1.730  10.584  18.012  0.00  0.00    +0.000 Cl
BRANCH  12  20
ATOM     19  C   UNL     1      -0.146  10.003  22.233  0.00  0.00    +0.000 C 
ATOM     20  O   UNL     1       0.622  10.291  21.072  0.00  0.00    +0.000 OA
ENDBRANCH  12  20
ENDBRANCH   1  15
BRANCH   3  21
ATOM     21  C   UNL     1       5.699   6.322  16.528  0.00  0.00    +0.000 C 
ATOM     22  O   UNL     1       5.500   6.209  15.325  0.00  0.00    +0.000 OA
BRANCH  21  23
ATOM     23  C   UNL     1       7.099   6.280  17.052  0.00  0.00    +0.000 C 
ATOM     24  C   UNL     1       7.717   7.523  17.650  0.00  0.00    +0.000 C 
ATOM     25  C   UNL     1       7.373   6.361  18.538  0.00  0.00    +0.000 C 
ENDBRANCH  21  23
ENDBRANCH   3  21
TORSDOF 4
ENDMDL
