MODEL 1
REMARK VINA RESULT:      -8.1      0.000      0.000
REMARK  Name = 
REMARK  8 active torsions:
REMARK  status: ('A' for Active; 'I' for Inactive)
REMARK    1  A    between atoms: C_1  and  O_2
REMARK    2  A    between atoms: O_2  and  C_3
REMARK    3  A    between atoms: C_7  and  C_8
REMARK    4  A    between atoms: C_10  and  N_11
REMARK    5  A    between atoms: C_12  and  C_14
REMARK    6  A    between atoms: C_14  and  C_15
REMARK    7  A    between atoms: C_15  and  C_16
REMARK    8  A    between atoms: C_15  and  N_23
REMARK                            x       y       z     vdW  Elec       q    Type
REMARK                         _______ _______ _______ _____ _____    ______ ____
ROOT
ATOM      1  C   UNL     1       0.804  11.044  20.661  0.00  0.00    +0.000 C 
ENDROOT
BRANCH   1   2
ATOM      2  N   UNL     1      -0.467  11.542  21.205  0.00  0.00    +0.000 N 
ATOM      3  C   UNL     1      -1.369  12.363  20.404  0.00  0.00    +0.000 C 
ATOM      4  C   UNL     1      -2.488  12.639  21.352  0.00  0.00    +0.000 A 
ATOM      5  C   UNL     1      -3.644  13.378  21.179  0.00  0.00    +0.000 A 
ATOM      6  C   UNL     1      -4.536  13.477  22.255  0.00  0.00    +0.000 A 
ATOM      7  C   UNL     1      -4.262  12.843  23.484  0.00  0.00    +0.000 A 
ATOM      8  C   UNL     1      -3.093  12.107  23.656  0.00  0.00    +0.000 A 
ATOM      9  C   UNL     1      -2.229  12.025  22.577  0.00  0.00    +0.000 A 
ATOM     10  C   UNL     1      -0.935  11.346  22.491  0.00  0.00    +0.000 C 
ATOM     11  O   UNL     1      -0.408  10.770  23.422  0.00  0.00    +0.000 OA
ENDBRANCH   1   2
BRANCH   1  12
ATOM     12  C   UNL     1       1.608  12.164  19.998  0.00  0.00    +0.000 A 
ATOM     13  C   UNL     1       2.060  13.280  20.723  0.00  0.00    +0.000 A 
ATOM     14  C   UNL     1       2.778  14.301  20.097  0.00  0.00    +0.000 A 
ATOM     15  C   UNL     1       3.048  14.218  18.739  0.00  0.00    +0.000 A 
ATOM     16  F   UNL     1       3.736  15.197  18.140  0.00  0.00    +0.000 F 
ATOM     17  C   UNL     1       2.608  13.132  17.992  0.00  0.00    +0.000 A 
ATOM     18  C   UNL     1       1.890  12.108  18.620  0.00  0.00    +0.000 A 
ENDBRANCH   1  12
BRANCH   1  19
ATOM     19  C   UNL     1       0.586   9.824  19.749  0.00  0.00    +0.000 C 
BRANCH  19  21
ATOM     20  N   UNL     1       1.586   7.662  19.319  0.00  0.00    +0.000 N 
ATOM     21  C   UNL     1       1.294   8.605  20.292  0.00  0.00    +0.000 C 
ATOM     22  O   UNL     1       1.490   8.475  21.498  0.00  0.00    +0.000 OA
ATOM     23  H   UNL     1       1.168   7.763  18.398  0.00  0.00    +0.000 HD
BRANCH  20  31
ATOM     24  C   UNL     1       3.419   6.171  18.750  0.00  0.00    +0.000 A 
ATOM     25  C   UNL     1       4.112   4.969  18.938  0.00  0.00    +0.000 A 
ATOM     26  C   UNL     1       3.645   4.014  19.847  0.00  0.00    +0.000 A 
ATOM     27 CL   UNL     1       4.515   2.526  19.950  0.00  0.00    +0.000 Cl
ATOM     28  C   UNL     1       2.508   4.267  20.618  0.00  0.00    +0.000 A 
ATOM     29  C   UNL     1       1.903   3.296  21.590  0.00  0.00    +0.000 C 
ATOM     30  C   UNL     1       1.860   5.505  20.467  0.00  0.00    +0.000 A 
ATOM     31  C   UNL     1       2.281   6.448  19.526  0.00  0.00    +0.000 A 
BRANCH  24  33
ATOM     32  C   UNL     1       4.863   6.711  16.965  0.00  0.00    +0.000 C 
ATOM     33  O   UNL     1       3.787   7.113  17.814  0.00  0.00    +0.000 OA
ENDBRANCH  24  33
ENDBRANCH  20  31
ENDBRANCH  19  21
ENDBRANCH   1  19
TORSDOF 6
ENDMDL
MODEL 2
REMARK VINA RESULT:      -8.0      2.031      2.681
REMARK  Name = 
REMARK  8 active torsions:
REMARK  status: ('A' for Active; 'I' for Inactive)
REMARK    1  A    between atoms: C_1  and  O_2
REMARK    2  A    between atoms: O_2  and  C_3
REMARK    3  A    between atoms: C_7  and  C_8
REMARK    4  A    between atoms: C_10  and  N_11
REMARK    5  A    between atoms: C_12  and  C_14
REMARK    6  A    between atoms: C_14  and  C_15
REMARK    7  A    between atoms: C_15  and  C_16
REMARK    8  A    between atoms: C_15  and  N_23
REMARK                            x       y       z     vdW  Elec       q    Type
REMARK                         _______ _______ _______ _____ _____    ______ ____
ROOT
ATOM      1  C   UNL     1       0.699  10.624  19.211  0.00  0.00    +0.000 C 
ENDROOT
BRANCH   1   2
ATOM      2  N   UNL     1      -0.686  10.869  18.790  0.00  0.00    +0.000 N 
ATOM      3  C   UNL     1      -1.162  10.479  17.467  0.00  0.00    +0.000 C 
ATOM      4  C   UNL     1      -2.584  10.932  17.484  0.00  0.00    +0.000 A 
ATOM      5  C   UNL     1      -3.560  10.852  16.507  0.00  0.00    +0.000 A 
ATOM      6  C   UNL     1      -4.830  11.370  16.793  0.00  0.00    +0.000 A 
ATOM      7  C   UNL     1      -5.107  11.960  18.043  0.00  0.00    +0.000 A 
ATOM      8  C   UNL     1      -4.119  12.045  19.020  0.00  0.00    +0.000 A 
ATOM      9  C   UNL     1      -2.874  11.527  18.711  0.00  0.00    +0.000 A 
ATOM     10  C   UNL     1      -1.662  11.507  19.534  0.00  0.00    +0.000 C 
ATOM     11  O   UNL     1      -1.583  12.008  20.638  0.00  0.00    +0.000 OA
ENDBRANCH   1   2
BRANCH   1  12
ATOM     12  C   UNL     1       1.496  11.926  19.306  0.00  0.00    +0.000 A 
ATOM     13  C   UNL     1       2.072  12.526  18.172  0.00  0.00    +0.000 A 
ATOM     14  C   UNL     1       2.811  13.707  18.281  0.00  0.00    +0.000 A 
ATOM     15  C   UNL     1       2.986  14.295  19.525  0.00  0.00    +0.000 A 
ATOM     16  F   UNL     1       3.695  15.426  19.628  0.00  0.00    +0.000 F 
ATOM     17  C   UNL     1       2.437  13.723  20.666  0.00  0.00    +0.000 A 
ATOM     18  C   UNL     1       1.695  12.541  20.556  0.00  0.00    +0.000 A 
ENDBRANCH   1  12
BRANCH   1  19
ATOM     19  C   UNL     1       1.374   9.557  18.330  0.00  0.00    +0.000 C 
BRANCH  19  21
ATOM     20  N   UNL     1       2.259   7.305  18.386  0.00  0.00    +0.000 N 
ATOM     21  C   UNL     1       1.805   8.365  19.154  0.00  0.00    +0.000 C 
ATOM     22  O   UNL     1       1.665   8.359  20.374  0.00  0.00    +0.000 OA
ATOM     23  H   UNL     1       2.107   7.327  17.381  0.00  0.00    +0.000 HD
BRANCH  20  31
ATOM     24  C   UNL     1       4.064   5.682  18.521  0.00  0.00    +0.000 A 
ATOM     25  C   UNL     1       4.575   4.470  18.999  0.00  0.00    +0.000 A 
ATOM     26  C   UNL     1       3.784   3.623  19.781  0.00  0.00    +0.000 A 
ATOM     27 CL   UNL     1       4.469   2.109  20.253  0.00  0.00    +0.000 Cl
ATOM     28  C   UNL     1       2.487   3.998  20.140  0.00  0.00    +0.000 A 
ATOM     29  C   UNL     1       1.544   3.146  20.940  0.00  0.00    +0.000 C 
ATOM     30  C   UNL     1       2.009   5.246  19.709  0.00  0.00    +0.000 A 
ATOM     31  C   UNL     1       2.766   6.081  18.883  0.00  0.00    +0.000 A 
BRANCH  24  33
ATOM     32  C   UNL     1       5.737   5.856  16.868  0.00  0.00    +0.000 C 
ATOM     33  O   UNL     1       4.768   6.519  17.683  0.00  0.00    +0.000 OA
ENDBRANCH  24  33
ENDBRANCH  20  31
ENDBRANCH  19  21
ENDBRANCH   1  19
TORSDOF 6
ENDMDL
MODEL 3
REMARK VINA RESULT:      -7.9      4.029      8.571
REMARK  Name = 
REMARK  8 active torsions:
REMARK  status: ('A' for Active; 'I' for Inactive)
REMARK    1  A    between atoms: C_1  and  O_2
REMARK    2  A    between atoms: O_2  and  C_3
REMARK    3  A    between atoms: C_7  and  C_8
REMARK    4  A    between atoms: C_10  and  N_11
REMARK    5  A    between atoms: C_12  and  C_14
REMARK    6  A    between atoms: C_14  and  C_15
REMARK    7  A    between atoms: C_15  and  C_16
REMARK    8  A    between atoms: C_15  and  N_23
REMARK                            x       y       z     vdW  Elec       q    Type
REMARK                         _______ _______ _______ _____ _____    ______ ____
ROOT
ATOM      1  C   UNL     1       3.326   6.517  17.437  0.00  0.00    +0.000 C 
ENDROOT
BRANCH   1   2
ATOM      2  N   UNL     1       2.829   5.560  18.434  0.00  0.00    +0.000 N 
ATOM      3  C   UNL     1       3.451   5.435  19.749  0.00  0.00    +0.000 C 
ATOM      4  C   UNL     1       2.643   4.358  20.392  0.00  0.00    +0.000 A 
ATOM      5  C   UNL     1       2.755   3.784  21.645  0.00  0.00    +0.000 A 
ATOM      6  C   UNL     1       1.852   2.771  21.994  0.00  0.00    +0.000 A 
ATOM      7  C   UNL     1       0.857   2.345  21.092  0.00  0.00    +0.000 A 
ATOM      8  C   UNL     1       0.753   2.920  19.829  0.00  0.00    +0.000 A 
ATOM      9  C   UNL     1       1.657   3.918  19.509  0.00  0.00    +0.000 A 
ATOM     10  C   UNL     1       1.789   4.666  18.257  0.00  0.00    +0.000 C 
ATOM     11  O   UNL     1       1.107   4.464  17.272  0.00  0.00    +0.000 OA
ENDBRANCH   1   2
BRANCH   1  12
ATOM     12  C   UNL     1       4.596   6.006  16.753  0.00  0.00    +0.000 A 
ATOM     13  C   UNL     1       5.825   6.674  16.881  0.00  0.00    +0.000 A 
ATOM     14  C   UNL     1       6.971   6.203  16.234  0.00  0.00    +0.000 A 
ATOM     15  C   UNL     1       6.895   5.061  15.450  0.00  0.00    +0.000 A 
ATOM     16  F   UNL     1       7.993   4.610  14.831  0.00  0.00    +0.000 F 
ATOM     17  C   UNL     1       5.693   4.383  15.296  0.00  0.00    +0.000 A 
ATOM     18  C   UNL     1       4.546   4.854  15.945  0.00  0.00    +0.000 A 
ENDBRANCH   1  12
BRANCH   1  19
ATOM     19  C   UNL     1       3.479   7.926  18.037  0.00  0.00    +0.000 C 
BRANCH  19  21
ATOM     20  N   UNL     1       1.648   9.503  17.903  0.00  0.00    +0.000 N 
ATOM     21  C   UNL     1       2.167   8.423  18.599  0.00  0.00    +0.000 C 
ATOM     22  O   UNL     1       1.696   7.936  19.624  0.00  0.00    +0.000 OA
ATOM     23  H   UNL     1       2.236   9.975  17.222  0.00  0.00    +0.000 HD
BRANCH  20  31
ATOM     24  C   UNL     1       0.408  11.296  18.978  0.00  0.00    +0.000 A 
ATOM     25  C   UNL     1      -0.803  11.937  19.260  0.00  0.00    +0.000 A 
ATOM     26  C   UNL     1      -2.013  11.407  18.799  0.00  0.00    +0.000 A 
ATOM     27 CL   UNL     1      -3.464  12.217  19.268  0.00  0.00    +0.000 Cl
ATOM     28  C   UNL     1      -2.024  10.256  18.007  0.00  0.00    +0.000 A 
ATOM     29  C   UNL     1      -3.267   9.585  17.497  0.00  0.00    +0.000 C 
ATOM     30  C   UNL     1      -0.796   9.659  17.677  0.00  0.00    +0.000 A 
ATOM     31  C   UNL     1       0.417  10.145  18.172  0.00  0.00    +0.000 A 
BRANCH  24  33
ATOM     32  C   UNL     1       1.533  12.848  20.353  0.00  0.00    +0.000 C 
ATOM     33  O   UNL     1       1.621  11.728  19.470  0.00  0.00    +0.000 OA
ENDBRANCH  24  33
ENDBRANCH  20  31
ENDBRANCH  19  21
ENDBRANCH   1  19
TORSDOF 6
ENDMDL
MODEL 4
REMARK VINA RESULT:      -7.8      4.000      8.597
REMARK  Name = 
REMARK  8 active torsions:
REMARK  status: ('A' for Active; 'I' for Inactive)
REMARK    1  A    between atoms: C_1  and  O_2
REMARK    2  A    between atoms: O_2  and  C_3
REMARK    3  A    between atoms: C_7  and  C_8
REMARK    4  A    between atoms: C_10  and  N_11
REMARK    5  A    between atoms: C_12  and  C_14
REMARK    6  A    between atoms: C_14  and  C_15
REMARK    7  A    between atoms: C_15  and  C_16
REMARK    8  A    between atoms: C_15  and  N_23
REMARK                            x       y       z     vdW  Elec       q    Type
REMARK                         _______ _______ _______ _____ _____    ______ ____
ROOT
ATOM      1  C   UNL     1       3.332   6.537  17.609  0.00  0.00    +0.000 C 
ENDROOT
BRANCH   1   2
ATOM      2  N   UNL     1       2.794   5.540  18.544  0.00  0.00    +0.000 N 
ATOM      3  C   UNL     1       3.299   5.424  19.908  0.00  0.00    +0.000 C 
ATOM      4  C   UNL     1       2.490   4.298  20.461  0.00  0.00    +0.000 A 
ATOM      5  C   UNL     1       2.516   3.710  21.712  0.00  0.00    +0.000 A 
ATOM      6  C   UNL     1       1.636   2.649  21.965  0.00  0.00    +0.000 A 
ATOM      7  C   UNL     1       0.749   2.190  20.970  0.00  0.00    +0.000 A 
ATOM      8  C   UNL     1       0.733   2.781  19.709  0.00  0.00    +0.000 A 
ATOM      9  C   UNL     1       1.612   3.826  19.486  0.00  0.00    +0.000 A 
ATOM     10  C   UNL     1       1.820   4.601  18.261  0.00  0.00    +0.000 C 
ATOM     11  O   UNL     1       1.242   4.383  17.215  0.00  0.00    +0.000 OA
ENDBRANCH   1   2
BRANCH   1  12
ATOM     12  C   UNL     1       4.565   6.009  16.873  0.00  0.00    +0.000 A 
ATOM     13  C   UNL     1       5.772   6.729  16.839  0.00  0.00    +0.000 A 
ATOM     14  C   UNL     1       6.882   6.239  16.147  0.00  0.00    +0.000 A 
ATOM     15  C   UNL     1       6.795   5.026  15.480  0.00  0.00    +0.000 A 
ATOM     16  F   UNL     1       7.860   4.557  14.818  0.00  0.00    +0.000 F 
ATOM     17  C   UNL     1       5.614   4.294  15.488  0.00  0.00    +0.000 A 
ATOM     18  C   UNL     1       4.502   4.784  16.182  0.00  0.00    +0.000 A 
ENDBRANCH   1  12
BRANCH   1  19
ATOM     19  C   UNL     1       3.567   7.891  18.303  0.00  0.00    +0.000 C 
BRANCH  19  21
ATOM     20  N   UNL     1       1.634   9.001  19.245  0.00  0.00    +0.000 N 
ATOM     21  C   UNL     1       2.391   8.817  18.099  0.00  0.00    +0.000 C 
ATOM     22  O   UNL     1       2.129   9.268  16.986  0.00  0.00    +0.000 OA
ATOM     23  H   UNL     1       1.800   8.396  20.044  0.00  0.00    +0.000 HD
BRANCH  20  31
ATOM     24  C   UNL     1       0.265  10.495  20.587  0.00  0.00    +0.000 A 
ATOM     25  C   UNL     1      -0.852  11.328  20.722  0.00  0.00    +0.000 A 
ATOM     26  C   UNL     1      -1.765  11.470  19.673  0.00  0.00    +0.000 A 
ATOM     27 CL   UNL     1      -3.158  12.449  19.959  0.00  0.00    +0.000 Cl
ATOM     28  C   UNL     1      -1.547  10.822  18.454  0.00  0.00    +0.000 A 
ATOM     29  C   UNL     1      -2.483  10.876  17.281  0.00  0.00    +0.000 C 
ATOM     30  C   UNL     1      -0.388  10.042  18.309  0.00  0.00    +0.000 A 
ATOM     31  C   UNL     1       0.506   9.847  19.365  0.00  0.00    +0.000 A 
BRANCH  24  33
ATOM     32  C   UNL     1       0.626   9.461  22.676  0.00  0.00    +0.000 C 
ATOM     33  O   UNL     1       1.154  10.256  21.613  0.00  0.00    +0.000 OA
ENDBRANCH  24  33
ENDBRANCH  20  31
ENDBRANCH  19  21
ENDBRANCH   1  19
TORSDOF 6
ENDMDL
MODEL 5
REMARK VINA RESULT:      -7.7      0.821      1.326
REMARK  Name = 
REMARK  8 active torsions:
REMARK  status: ('A' for Active; 'I' for Inactive)
REMARK    1  A    between atoms: C_1  and  O_2
REMARK    2  A    between atoms: O_2  and  C_3
REMARK    3  A    between atoms: C_7  and  C_8
REMARK    4  A    between atoms: C_10  and  N_11
REMARK    5  A    between atoms: C_12  and  C_14
REMARK    6  A    between atoms: C_14  and  C_15
REMARK    7  A    between atoms: C_15  and  C_16
REMARK    8  A    between atoms: C_15  and  N_23
REMARK                            x       y       z     vdW  Elec       q    Type
REMARK                         _______ _______ _______ _____ _____    ______ ____
ROOT
ATOM      1  C   UNL     1       0.803  11.099  20.663  0.00  0.00    +0.000 C 
ENDROOT
BRANCH   1   2
ATOM      2  N   UNL     1      -0.474  11.563  21.222  0.00  0.00    +0.000 N 
ATOM      3  C   UNL     1      -0.792  11.397  22.637  0.00  0.00    +0.000 C 
ATOM      4  C   UNL     1      -2.161  11.985  22.735  0.00  0.00    +0.000 A 
ATOM      5  C   UNL     1      -3.003  12.111  23.825  0.00  0.00    +0.000 A 
ATOM      6  C   UNL     1      -4.255  12.708  23.630  0.00  0.00    +0.000 A 
ATOM      7  C   UNL     1      -4.649  13.167  22.357  0.00  0.00    +0.000 A 
ATOM      8  C   UNL     1      -3.801  13.030  21.261  0.00  0.00    +0.000 A 
ATOM      9  C   UNL     1      -2.570  12.436  21.481  0.00  0.00    +0.000 A 
ATOM     10  C   UNL     1      -1.508  12.149  20.515  0.00  0.00    +0.000 C 
ATOM     11  O   UNL     1      -1.595  12.372  19.324  0.00  0.00    +0.000 OA
ENDBRANCH   1   2
BRANCH   1  12
ATOM     12  C   UNL     1       1.585  12.246  20.022  0.00  0.00    +0.000 A 
ATOM     13  C   UNL     1       1.994  13.368  20.764  0.00  0.00    +0.000 A 
ATOM     14  C   UNL     1       2.694  14.415  20.158  0.00  0.00    +0.000 A 
ATOM     15  C   UNL     1       2.986  14.351  18.804  0.00  0.00    +0.000 A 
ATOM     16  F   UNL     1       3.656  15.355  18.224  0.00  0.00    +0.000 F 
ATOM     17  C   UNL     1       2.589  13.260  18.041  0.00  0.00    +0.000 A 
ATOM     18  C   UNL     1       1.890  12.211  18.648  0.00  0.00    +0.000 A 
ENDBRANCH   1  12
BRANCH   1  19
ATOM     19  C   UNL     1       0.601   9.896  19.724  0.00  0.00    +0.000 C 
BRANCH  19  21
ATOM     20  N   UNL     1       1.588   7.730  19.285  0.00  0.00    +0.000 N 
ATOM     21  C   UNL     1       1.286   8.663  20.264  0.00  0.00    +0.000 C 
ATOM     22  O   UNL     1       1.458   8.515  21.472  0.00  0.00    +0.000 OA
ATOM     23  H   UNL     1       1.189   7.848  18.358  0.00  0.00    +0.000 HD
BRANCH  20  31
ATOM     24  C   UNL     1       3.393   6.210  18.702  0.00  0.00    +0.000 A 
ATOM     25  C   UNL     1       4.070   4.999  18.888  0.00  0.00    +0.000 A 
ATOM     26  C   UNL     1       3.598   4.053  19.804  0.00  0.00    +0.000 A 
ATOM     27 CL   UNL     1       4.447   2.553  19.904  0.00  0.00    +0.000 Cl
ATOM     28  C   UNL     1       2.472   4.326  20.586  0.00  0.00    +0.000 A 
ATOM     29  C   UNL     1       1.863   3.367  21.567  0.00  0.00    +0.000 C 
ATOM     30  C   UNL     1       1.841   5.573  20.437  0.00  0.00    +0.000 A 
ATOM     31  C   UNL     1       2.267   6.506  19.489  0.00  0.00    +0.000 A 
BRANCH  24  33
ATOM     32  C   UNL     1       4.804   6.709  16.879  0.00  0.00    +0.000 C 
ATOM     33  O   UNL     1       3.765   7.143  17.760  0.00  0.00    +0.000 OA
ENDBRANCH  24  33
ENDBRANCH  20  31
ENDBRANCH  19  21
ENDBRANCH   1  19
TORSDOF 6
ENDMDL
MODEL 6
REMARK VINA RESULT:      -7.7      2.632      4.677
REMARK  Name = 
REMARK  8 active torsions:
REMARK  status: ('A' for Active; 'I' for Inactive)
REMARK    1  A    between atoms: C_1  and  O_2
REMARK    2  A    between atoms: O_2  and  C_3
REMARK    3  A    between atoms: C_7  and  C_8
REMARK    4  A    between atoms: C_10  and  N_11
REMARK    5  A    between atoms: C_12  and  C_14
REMARK    6  A    between atoms: C_14  and  C_15
REMARK    7  A    between atoms: C_15  and  C_16
REMARK    8  A    between atoms: C_15  and  N_23
REMARK                            x       y       z     vdW  Elec       q    Type
REMARK                         _______ _______ _______ _____ _____    ______ ____
ROOT
ATOM      1  C   UNL     1       0.823  10.572  19.622  0.00  0.00    +0.000 C 
ENDROOT
BRANCH   1   2
ATOM      2  N   UNL     1       1.465  11.892  19.663  0.00  0.00    +0.000 N 
ATOM      3  C   UNL     1       1.287  12.793  20.798  0.00  0.00    +0.000 C 
ATOM      4  C   UNL     1       2.088  13.987  20.397  0.00  0.00    +0.000 A 
ATOM      5  C   UNL     1       2.300  15.183  21.057  0.00  0.00    +0.000 A 
ATOM      6  C   UNL     1       3.105  16.148  20.439  0.00  0.00    +0.000 A 
ATOM      7  C   UNL     1       3.685  15.909  19.176  0.00  0.00    +0.000 A 
ATOM      8  C   UNL     1       3.462  14.705  18.513  0.00  0.00    +0.000 A 
ATOM      9  C   UNL     1       2.662  13.770  19.145  0.00  0.00    +0.000 A 
ATOM     10  C   UNL     1       2.249  12.448  18.668  0.00  0.00    +0.000 C 
ATOM     11  O   UNL     1       2.541  11.998  17.578  0.00  0.00    +0.000 OA
ENDBRANCH   1   2
BRANCH   1  12
ATOM     12  C   UNL     1      -0.528  10.627  18.906  0.00  0.00    +0.000 A 
ATOM     13  C   UNL     1      -0.792   9.850  17.765  0.00  0.00    +0.000 A 
ATOM     14  C   UNL     1      -2.026   9.926  17.114  0.00  0.00    +0.000 A 
ATOM     15  C   UNL     1      -3.005  10.783  17.596  0.00  0.00    +0.000 A 
ATOM     16  F   UNL     1      -4.187  10.855  16.971  0.00  0.00    +0.000 F 
ATOM     17  C   UNL     1      -2.772  11.570  18.717  0.00  0.00    +0.000 A 
ATOM     18  C   UNL     1      -1.537  11.493  19.369  0.00  0.00    +0.000 A 
ENDBRANCH   1  12
BRANCH   1  19
ATOM     19  C   UNL     1       0.748   9.940  21.024  0.00  0.00    +0.000 C 
BRANCH  19  21
ATOM     20  N   UNL     1       1.827   7.984  20.092  0.00  0.00    +0.000 N 
ATOM     21  C   UNL     1       0.832   8.433  20.945  0.00  0.00    +0.000 C 
ATOM     22  O   UNL     1       0.018   7.725  21.535  0.00  0.00    +0.000 OA
ATOM     23  H   UNL     1       2.281   8.652  19.475  0.00  0.00    +0.000 HD
BRANCH  20  31
ATOM     24  C   UNL     1       2.981   6.312  18.757  0.00  0.00    +0.000 A 
ATOM     25  C   UNL     1       3.317   4.977  18.507  0.00  0.00    +0.000 A 
ATOM     26  C   UNL     1       2.798   3.951  19.303  0.00  0.00    +0.000 A 
ATOM     27 CL   UNL     1       3.198   2.328  18.868  0.00  0.00    +0.000 Cl
ATOM     28  C   UNL     1       1.976   4.249  20.393  0.00  0.00    +0.000 A 
ATOM     29  C   UNL     1       1.336   3.223  21.284  0.00  0.00    +0.000 C 
ATOM     30  C   UNL     1       1.699   5.597  20.673  0.00  0.00    +0.000 A 
ATOM     31  C   UNL     1       2.166   6.631  19.857  0.00  0.00    +0.000 A 
BRANCH  24  33
ATOM     32  C   UNL     1       4.478   7.031  17.083  0.00  0.00    +0.000 C 
ATOM     33  O   UNL     1       3.398   7.355  17.960  0.00  0.00    +0.000 OA
ENDBRANCH  24  33
ENDBRANCH  20  31
ENDBRANCH  19  21
ENDBRANCH   1  19
TORSDOF 6
ENDMDL
MODEL 7
REMARK VINA RESULT:      -7.7      2.618      4.582
REMARK  Name = 
REMARK  8 active torsions:
REMARK  status: ('A' for Active; 'I' for Inactive)
REMARK    1  A    between atoms: C_1  and  O_2
REMARK    2  A    between atoms: O_2  and  C_3
REMARK    3  A    between atoms: C_7  and  C_8
REMARK    4  A    between atoms: C_10  and  N_11
REMARK    5  A    between atoms: C_12  and  C_14
REMARK    6  A    between atoms: C_14  and  C_15
REMARK    7  A    between atoms: C_15  and  C_16
REMARK    8  A    between atoms: C_15  and  N_23
REMARK                            x       y       z     vdW  Elec       q    Type
REMARK                         _______ _______ _______ _____ _____    ______ ____
ROOT
ATOM      1  C   UNL     1       0.381  10.366  19.418  0.00  0.00    +0.000 C 
ENDROOT
BRANCH   1   2
ATOM      2  N   UNL     1       1.177  11.601  19.443  0.00  0.00    +0.000 N 
ATOM      3  C   UNL     1       2.023  11.987  18.319  0.00  0.00    +0.000 C 
ATOM      4  C   UNL     1       2.633  13.264  18.792  0.00  0.00    +0.000 A 
ATOM      5  C   UNL     1       3.537  14.106  18.170  0.00  0.00    +0.000 A 
ATOM      6  C   UNL     1       3.953  15.255  18.856  0.00  0.00    +0.000 A 
ATOM      7  C   UNL     1       3.467  15.545  20.147  0.00  0.00    +0.000 A 
ATOM      8  C   UNL     1       2.563  14.689  20.771  0.00  0.00    +0.000 A 
ATOM      9  C   UNL     1       2.169  13.562  20.072  0.00  0.00    +0.000 A 
ATOM     10  C   UNL     1       1.260  12.494  20.495  0.00  0.00    +0.000 C 
ATOM     11  O   UNL     1       0.740  12.442  21.592  0.00  0.00    +0.000 OA
ENDBRANCH   1   2
BRANCH   1  12
ATOM     12  C   UNL     1      -0.929  10.558  18.651  0.00  0.00    +0.000 A 
ATOM     13  C   UNL     1      -1.212   9.837  17.478  0.00  0.00    +0.000 A 
ATOM     14  C   UNL     1      -2.407  10.038  16.782  0.00  0.00    +0.000 A 
ATOM     15  C   UNL     1      -3.326  10.965  17.250  0.00  0.00    +0.000 A 
ATOM     16  F   UNL     1      -4.471  11.157  16.582  0.00  0.00    +0.000 F 
ATOM     17  C   UNL     1      -3.072  11.699  18.402  0.00  0.00    +0.000 A 
ATOM     18  C   UNL     1      -1.877  11.497  19.100  0.00  0.00    +0.000 A 
ENDBRANCH   1  12
BRANCH   1  19
ATOM     19  C   UNL     1       0.184   9.795  20.833  0.00  0.00    +0.000 C 
BRANCH  19  21
ATOM     20  N   UNL     1       1.076   7.662  20.115  0.00  0.00    +0.000 N 
ATOM     21  C   UNL     1       1.129   8.644  21.092  0.00  0.00    +0.000 C 
ATOM     22  O   UNL     1       1.795   8.595  22.124  0.00  0.00    +0.000 OA
ATOM     23  H   UNL     1       0.322   7.689  19.435  0.00  0.00    +0.000 HD
BRANCH  20  31
ATOM     24  C   UNL     1       2.928   6.425  19.141  0.00  0.00    +0.000 A 
ATOM     25  C   UNL     1       3.722   5.275  19.080  0.00  0.00    +0.000 A 
ATOM     26  C   UNL     1       3.440   4.171  19.890  0.00  0.00    +0.000 A 
ATOM     27 CL   UNL     1       4.420   2.764  19.685  0.00  0.00    +0.000 Cl
ATOM     28  C   UNL     1       2.391   4.220  20.811  0.00  0.00    +0.000 A 
ATOM     29  C   UNL     1       1.980   3.079  21.698  0.00  0.00    +0.000 C 
ATOM     30  C   UNL     1       1.642   5.405  20.910  0.00  0.00    +0.000 A 
ATOM     31  C   UNL     1       1.877   6.497  20.070  0.00  0.00    +0.000 A 
BRANCH  24  33
ATOM     32  C   UNL     1       4.007   7.278  17.225  0.00  0.00    +0.000 C 
ATOM     33  O   UNL     1       3.110   7.511  18.312  0.00  0.00    +0.000 OA
ENDBRANCH  24  33
ENDBRANCH  20  31
ENDBRANCH  19  21
ENDBRANCH   1  19
TORSDOF 6
ENDMDL
MODEL 8
REMARK VINA RESULT:      -7.7      2.246      4.842
REMARK  Name = 
REMARK  8 active torsions:
REMARK  status: ('A' for Active; 'I' for Inactive)
REMARK    1  A    between atoms: C_1  and  O_2
REMARK    2  A    between atoms: O_2  and  C_3
REMARK    3  A    between atoms: C_7  and  C_8
REMARK    4  A    between atoms: C_10  and  N_11
REMARK    5  A    between atoms: C_12  and  C_14
REMARK    6  A    between atoms: C_14  and  C_15
REMARK    7  A    between atoms: C_15  and  C_16
REMARK    8  A    between atoms: C_15  and  N_23
REMARK                            x       y       z     vdW  Elec       q    Type
REMARK                         _______ _______ _______ _____ _____    ______ ____
ROOT
ATOM      1  C   UNL     1      -0.029  10.873  20.928  0.00  0.00    +0.000 C 
ENDROOT
BRANCH   1   2
ATOM      2  N   UNL     1       0.887  11.889  20.394  0.00  0.00    +0.000 N 
ATOM      3  C   UNL     1       1.126  13.145  21.097  0.00  0.00    +0.000 C 
ATOM      4  C   UNL     1       2.085  13.847  20.195  0.00  0.00    +0.000 A 
ATOM      5  C   UNL     1       2.676  15.092  20.314  0.00  0.00    +0.000 A 
ATOM      6  C   UNL     1       3.549  15.512  19.301  0.00  0.00    +0.000 A 
ATOM      7  C   UNL     1       3.817  14.689  18.188  0.00  0.00    +0.000 A 
ATOM      8  C   UNL     1       3.213  13.440  18.070  0.00  0.00    +0.000 A 
ATOM      9  C   UNL     1       2.355  13.050  19.083  0.00  0.00    +0.000 A 
ATOM     10  C   UNL     1       1.578  11.815  19.199  0.00  0.00    +0.000 C 
ATOM     11  O   UNL     1       1.556  10.946  18.350  0.00  0.00    +0.000 OA
ENDBRANCH   1   2
BRANCH   1  12
ATOM     12  C   UNL     1      -1.255  11.511  21.584  0.00  0.00    +0.000 A 
ATOM     13  C   UNL     1      -1.514  11.374  22.959  0.00  0.00    +0.000 A 
ATOM     14  C   UNL     1      -2.648  11.949  23.538  0.00  0.00    +0.000 A 
ATOM     15  C   UNL     1      -3.535  12.664  22.746  0.00  0.00    +0.000 A 
ATOM     16  F   UNL     1      -4.621  13.215  23.301  0.00  0.00    +0.000 F 
ATOM     17  C   UNL     1      -3.311  12.811  21.383  0.00  0.00    +0.000 A 
ATOM     18  C   UNL     1      -2.175  12.236  20.803  0.00  0.00    +0.000 A 
ENDBRANCH   1  12
BRANCH   1  19
ATOM     19  C   UNL     1       0.706   9.877  21.843  0.00  0.00    +0.000 C 
BRANCH  19  21
ATOM     20  N   UNL     1       1.713   7.982  20.724  0.00  0.00    +0.000 N 
ATOM     21  C   UNL     1       0.564   8.462  21.333  0.00  0.00    +0.000 C 
ATOM     22  O   UNL     1      -0.512   7.872  21.401  0.00  0.00    +0.000 OA
ATOM     23  H   UNL     1       2.462   8.634  20.510  0.00  0.00    +0.000 HD
BRANCH  20  31
ATOM     24  C   UNL     1       2.307   6.537  18.862  0.00  0.00    +0.000 A 
ATOM     25  C   UNL     1       2.476   5.256  18.323  0.00  0.00    +0.000 A 
ATOM     26  C   UNL     1       2.168   4.120  19.078  0.00  0.00    +0.000 A 
ATOM     27 CL   UNL     1       2.324   2.585  18.303  0.00  0.00    +0.000 Cl
ATOM     28  C   UNL     1       1.737   4.246  20.401  0.00  0.00    +0.000 A 
ATOM     29  C   UNL     1       1.344   3.096  21.283  0.00  0.00    +0.000 C 
ATOM     30  C   UNL     1       1.635   5.535  20.952  0.00  0.00    +0.000 A 
ATOM     31  C   UNL     1       1.887   6.682  20.195  0.00  0.00    +0.000 A 
BRANCH  24  33
ATOM     32  C   UNL     1       3.722   7.692  17.370  0.00  0.00    +0.000 C 
ATOM     33  O   UNL     1       2.519   7.691  18.140  0.00  0.00    +0.000 OA
ENDBRANCH  24  33
ENDBRANCH  20  31
ENDBRANCH  19  21
ENDBRANCH   1  19
TORSDOF 6
ENDMDL
MODEL 9
REMARK VINA RESULT:      -7.7      4.404      9.971
REMARK  Name = 
REMARK  8 active torsions:
REMARK  status: ('A' for Active; 'I' for Inactive)
REMARK    1  A    between atoms: C_1  and  O_2
REMARK    2  A    between atoms: O_2  and  C_3
REMARK    3  A    between atoms: C_7  and  C_8
REMARK    4  A    between atoms: C_10  and  N_11
REMARK    5  A    between atoms: C_12  and  C_14
REMARK    6  A    between atoms: C_14  and  C_15
REMARK    7  A    between atoms: C_15  and  C_16
REMARK    8  A    between atoms: C_15  and  N_23
REMARK                            x       y       z     vdW  Elec       q    Type
REMARK                         _______ _______ _______ _____ _____    ______ ____
ROOT
ATOM      1  C   UNL     1       3.098   6.079  18.863  0.00  0.00    +0.000 C 
ENDROOT
BRANCH   1   2
ATOM      2  N   UNL     1       4.019   5.654  17.801  0.00  0.00    +0.000 N 
ATOM      3  C   UNL     1       5.249   6.387  17.519  0.00  0.00    +0.000 C 
ATOM      4  C   UNL     1       5.835   5.619  16.382  0.00  0.00    +0.000 A 
ATOM      5  C   UNL     1       6.998   5.831  15.666  0.00  0.00    +0.000 A 
ATOM      6  C   UNL     1       7.309   4.943  14.627  0.00  0.00    +0.000 A 
ATOM      7  C   UNL     1       6.458   3.863  14.317  0.00  0.00    +0.000 A 
ATOM      8  C   UNL     1       5.283   3.659  15.036  0.00  0.00    +0.000 A 
ATOM      9  C   UNL     1       5.000   4.551  16.056  0.00  0.00    +0.000 A 
ATOM     10  C   UNL     1       3.835   4.585  16.943  0.00  0.00    +0.000 C 
ATOM     11  O   UNL     1       2.899   3.815  16.863  0.00  0.00    +0.000 OA
ENDBRANCH   1   2
BRANCH   1  12
ATOM     12  C   UNL     1       2.701   4.908  19.764  0.00  0.00    +0.000 A 
ATOM     13  C   UNL     1       3.653   3.998  20.257  0.00  0.00    +0.000 A 
ATOM     14  C   UNL     1       3.270   2.924  21.065  0.00  0.00    +0.000 A 
ATOM     15  C   UNL     1       1.931   2.749  21.384  0.00  0.00    +0.000 A 
ATOM     16  F   UNL     1       1.565   1.720  22.158  0.00  0.00    +0.000 F 
ATOM     17  C   UNL     1       0.965   3.626  20.906  0.00  0.00    +0.000 A 
ATOM     18  C   UNL     1       1.349   4.702  20.098  0.00  0.00    +0.000 A 
ENDBRANCH   1  12
BRANCH   1  19
ATOM     19  C   UNL     1       1.892   6.844  18.289  0.00  0.00    +0.000 C 
BRANCH  19  21
ATOM     20  N   UNL     1       1.494   9.215  18.013  0.00  0.00    +0.000 N 
ATOM     21  C   UNL     1       1.760   8.208  18.926  0.00  0.00    +0.000 C 
ATOM     22  O   UNL     1       1.962   8.364  20.128  0.00  0.00    +0.000 OA
ATOM     23  H   UNL     1       1.584   9.014  17.021  0.00  0.00    +0.000 HD
BRANCH  20  31
ATOM     24  C   UNL     1      -0.013  10.996  18.697  0.00  0.00    +0.000 A 
ATOM     25  C   UNL     1      -0.244  12.343  19.000  0.00  0.00    +0.000 A 
ATOM     26  C   UNL     1       0.779  13.287  18.874  0.00  0.00    +0.000 A 
ATOM     27 CL   UNL     1       0.380  14.938  19.186  0.00  0.00    +0.000 Cl
ATOM     28  C   UNL     1       2.064  12.891  18.493  0.00  0.00    +0.000 A 
ATOM     29  C   UNL     1       3.220  13.828  18.290  0.00  0.00    +0.000 C 
ATOM     30  C   UNL     1       2.300  11.526  18.255  0.00  0.00    +0.000 A 
ATOM     31  C   UNL     1       1.276  10.578  18.325  0.00  0.00    +0.000 A 
BRANCH  24  33
ATOM     32  C   UNL     1      -2.194  10.399  18.029  0.00  0.00    +0.000 C 
ATOM     33  O   UNL     1      -1.001  10.037  18.727  0.00  0.00    +0.000 OA
ENDBRANCH  24  33
ENDBRANCH  20  31
ENDBRANCH  19  21
ENDBRANCH   1  19
TORSDOF 6
ENDMDL
