MODEL 1
REMARK VINA RESULT:      -7.1      0.000      0.000
REMARK  Name = 
REMARK  9 active torsions:
REMARK  status: ('A' for Active; 'I' for Inactive)
REMARK    1  A    between atoms: C_1  and  O_2
REMARK    2  A    between atoms: O_2  and  C_3
REMARK    3  A    between atoms: C_6  and  C_7
REMARK    4  A    between atoms: C_7  and  N_8
REMARK    5  A    between atoms: N_8  and  C_9
REMARK    6  A    between atoms: N_16  and  C_17
REMARK    7  A    between atoms: N_16  and  C_18
REMARK    8  A    between atoms: C_22  and  O_23
REMARK    9  A    between atoms: O_23  and  C_24
REMARK                            x       y       z     vdW  Elec       q    Type
REMARK                         _______ _______ _______ _____ _____    ______ ____
ROOT
ATOM      1  N   UNL     1       1.946   7.013  20.974  0.00  0.00    +0.000 NA
ATOM      2  H   UNL     1       2.251   6.526  21.817  0.00  0.00    +0.000 HD
ENDROOT
BRANCH   1   3
ATOM      3  C   UNL     1       1.687   6.028  19.917  0.00  0.00    +0.000 C 
ATOM      4  C   UNL     1       1.183   4.672  20.456  0.00  0.00    +0.000 C 
ATOM      5  C   UNL     1       2.277   3.940  21.234  0.00  0.00    +0.000 C 
ATOM      6  C   UNL     1       3.459   3.633  20.318  0.00  0.00    +0.000 C 
ATOM      7  C   UNL     1       3.851   4.782  19.426  0.00  0.00    +0.000 A 
ATOM      8  N   UNL     1       5.087   4.706  18.879  0.00  0.00    +0.000 NA
ATOM      9  C   UNL     1       5.500   5.701  18.074  0.00  0.00    +0.000 A 
ATOM     10  N   UNL     1       6.832   5.759  17.723  0.00  0.00    +0.000 N 
ATOM     11  C   UNL     1       7.291   6.817  16.847  0.00  0.00    +0.000 C 
ATOM     12  C   UNL     1       7.651   4.568  17.830  0.00  0.00    +0.000 C 
ATOM     13  N   UNL     1       4.679   6.694  17.696  0.00  0.00    +0.000 NA
ATOM     14  C   UNL     1       3.450   6.741  18.251  0.00  0.00    +0.000 A 
ATOM     15  C   UNL     1       2.981   5.824  19.164  0.00  0.00    +0.000 A 
ENDBRANCH   1   3
BRANCH   1  16
ATOM     16  C   UNL     1       0.819   7.884  21.326  0.00  0.00    +0.000 C 
BRANCH  16  20
ATOM     17  C   UNL     1       1.081  11.794  19.451  0.00  0.00    +0.000 A 
ATOM     18  C   UNL     1       1.296  10.648  18.696  0.00  0.00    +0.000 A 
ATOM     19  C   UNL     1       1.193   9.390  19.286  0.00  0.00    +0.000 A 
ATOM     20  C   UNL     1       0.870   9.248  20.649  0.00  0.00    +0.000 A 
ATOM     21  C   UNL     1       0.611  10.418  21.398  0.00  0.00    +0.000 A 
ATOM     22  C   UNL     1       0.716  11.679  20.792  0.00  0.00    +0.000 A 
BRANCH  17  24
ATOM     23  C   UNL     1       2.445  13.154  18.092  0.00  0.00    +0.000 C 
ATOM     24  O   UNL     1       1.208  12.976  18.772  0.00  0.00    +0.000 OA
ENDBRANCH  17  24
BRANCH  21  25
ATOM     25  O   UNL     1       0.268  10.223  22.717  0.00  0.00    +0.000 OA
ATOM     26  C   UNL     1      -1.024  10.675  23.121  0.00  0.00    +0.000 C 
ENDBRANCH  21  25
ENDBRANCH  16  20
ENDBRANCH   1  16
TORSDOF 5
ENDMDL
MODEL 2
REMARK VINA RESULT:      -7.0      1.458      2.632
REMARK  Name = 
REMARK  9 active torsions:
REMARK  status: ('A' for Active; 'I' for Inactive)
REMARK    1  A    between atoms: C_1  and  O_2
REMARK    2  A    between atoms: O_2  and  C_3
REMARK    3  A    between atoms: C_6  and  C_7
REMARK    4  A    between atoms: C_7  and  N_8
REMARK    5  A    between atoms: N_8  and  C_9
REMARK    6  A    between atoms: N_16  and  C_17
REMARK    7  A    between atoms: N_16  and  C_18
REMARK    8  A    between atoms: C_22  and  O_23
REMARK    9  A    between atoms: O_23  and  C_24
REMARK                            x       y       z     vdW  Elec       q    Type
REMARK                         _______ _______ _______ _____ _____    ______ ____
ROOT
ATOM      1  N   UNL     1       1.745   6.709  20.820  0.00  0.00    +0.000 NA
ATOM      2  H   UNL     1       1.018   6.614  21.529  0.00  0.00    +0.000 HD
ENDROOT
BRANCH   1   3
ATOM      3  C   UNL     1       1.582   5.646  19.821  0.00  0.00    +0.000 C 
ATOM      4  C   UNL     1       1.167   4.290  20.433  0.00  0.00    +0.000 C 
ATOM      5  C   UNL     1       2.294   3.690  21.274  0.00  0.00    +0.000 C 
ATOM      6  C   UNL     1       3.516   3.418  20.400  0.00  0.00    +0.000 C 
ATOM      7  C   UNL     1       3.843   4.537  19.446  0.00  0.00    +0.000 A 
ATOM      8  N   UNL     1       5.092   4.521  18.927  0.00  0.00    +0.000 NA
ATOM      9  C   UNL     1       5.449   5.494  18.070  0.00  0.00    +0.000 A 
ATOM     10  N   UNL     1       6.781   5.629  17.740  0.00  0.00    +0.000 N 
ATOM     11  C   UNL     1       7.181   6.664  16.809  0.00  0.00    +0.000 C 
ATOM     12  C   UNL     1       7.683   4.512  17.934  0.00  0.00    +0.000 C 
ATOM     13  N   UNL     1       4.566   6.399  17.618  0.00  0.00    +0.000 NA
ATOM     14  C   UNL     1       3.326   6.387  18.146  0.00  0.00    +0.000 A 
ATOM     15  C   UNL     1       2.904   5.494  19.105  0.00  0.00    +0.000 A 
ENDBRANCH   1   3
BRANCH   1  16
ATOM     16  C   UNL     1       1.709   8.081  20.302  0.00  0.00    +0.000 C 
BRANCH  16  20
ATOM     17  C   UNL     1      -0.938  10.674  22.571  0.00  0.00    +0.000 A 
ATOM     18  C   UNL     1      -0.214   9.683  23.221  0.00  0.00    +0.000 A 
ATOM     19  C   UNL     1       0.653   8.862  22.503  0.00  0.00    +0.000 A 
ATOM     20  C   UNL     1       0.817   9.013  21.113  0.00  0.00    +0.000 A 
ATOM     21  C   UNL     1       0.109  10.052  20.467  0.00  0.00    +0.000 A 
ATOM     22  C   UNL     1      -0.759  10.874  21.202  0.00  0.00    +0.000 A 
BRANCH  17  24
ATOM     23  C   UNL     1      -2.591  12.350  22.683  0.00  0.00    +0.000 C 
ATOM     24  O   UNL     1      -1.759  11.423  23.371  0.00  0.00    +0.000 OA
ENDBRANCH  17  24
BRANCH  21  25
ATOM     25  O   UNL     1       0.330  10.179  19.115  0.00  0.00    +0.000 OA
ATOM     26  C   UNL     1      -0.818  10.373  18.289  0.00  0.00    +0.000 C 
ENDBRANCH  21  25
ENDBRANCH  16  20
ENDBRANCH   1  16
TORSDOF 5
ENDMDL
MODEL 3
REMARK VINA RESULT:      -6.8      2.855      4.965
REMARK  Name = 
REMARK  9 active torsions:
REMARK  status: ('A' for Active; 'I' for Inactive)
REMARK    1  A    between atoms: C_1  and  O_2
REMARK    2  A    between atoms: O_2  and  C_3
REMARK    3  A    between atoms: C_6  and  C_7
REMARK    4  A    between atoms: C_7  and  N_8
REMARK    5  A    between atoms: N_8  and  C_9
REMARK    6  A    between atoms: N_16  and  C_17
REMARK    7  A    between atoms: N_16  and  C_18
REMARK    8  A    between atoms: C_22  and  O_23
REMARK    9  A    between atoms: O_23  and  C_24
REMARK                            x       y       z     vdW  Elec       q    Type
REMARK                         _______ _______ _______ _____ _____    ______ ____
ROOT
ATOM      1  N   UNL     1       3.770   4.743  17.370  0.00  0.00    +0.000 NA
ATOM      2  H   UNL     1       3.928   5.751  17.348  0.00  0.00    +0.000 HD
ENDROOT
BRANCH   1   3
ATOM      3  C   UNL     1       5.043   4.064  17.639  0.00  0.00    +0.000 C 
ATOM      4  C   UNL     1       5.792   4.630  18.865  0.00  0.00    +0.000 C 
ATOM      5  C   UNL     1       6.301   6.048  18.601  0.00  0.00    +0.000 C 
ATOM      6  C   UNL     1       7.298   6.042  17.445  0.00  0.00    +0.000 C 
ATOM      7  C   UNL     1       6.867   5.197  16.274  0.00  0.00    +0.000 A 
ATOM      8  N   UNL     1       7.505   5.443  15.106  0.00  0.00    +0.000 NA
ATOM      9  C   UNL     1       7.166   4.726  14.021  0.00  0.00    +0.000 A 
ATOM     10  N   UNL     1       7.622   5.138  12.786  0.00  0.00    +0.000 N 
ATOM     11  C   UNL     1       7.276   4.369  11.608  0.00  0.00    +0.000 C 
ATOM     12  C   UNL     1       8.773   6.015  12.705  0.00  0.00    +0.000 C 
ATOM     13  N   UNL     1       6.312   3.693  14.092  0.00  0.00    +0.000 NA
ATOM     14  C   UNL     1       5.696   3.466  15.271  0.00  0.00    +0.000 A 
ATOM     15  C   UNL     1       5.904   4.215  16.407  0.00  0.00    +0.000 A 
ENDBRANCH   1   3
BRANCH   1  16
ATOM     16  C   UNL     1       2.686   4.466  18.320  0.00  0.00    +0.000 C 
BRANCH  16  20
ATOM     17  C   UNL     1       1.512   7.948  20.639  0.00  0.00    +0.000 A 
ATOM     18  C   UNL     1       2.119   8.113  19.401  0.00  0.00    +0.000 A 
ATOM     19  C   UNL     1       2.479   7.001  18.642  0.00  0.00    +0.000 A 
ATOM     20  C   UNL     1       2.239   5.693  19.105  0.00  0.00    +0.000 A 
ATOM     21  C   UNL     1       1.582   5.536  20.346  0.00  0.00    +0.000 A 
ATOM     22  C   UNL     1       1.222   6.664  21.100  0.00  0.00    +0.000 A 
BRANCH  17  24
ATOM     23  C   UNL     1      -0.150   9.536  21.160  0.00  0.00    +0.000 C 
ATOM     24  O   UNL     1       1.200   9.106  21.299  0.00  0.00    +0.000 OA
ENDBRANCH  17  24
BRANCH  21  25
ATOM     25  O   UNL     1       1.341   4.239  20.739  0.00  0.00    +0.000 OA
ATOM     26  C   UNL     1       2.263   3.662  21.663  0.00  0.00    +0.000 C 
ENDBRANCH  21  25
ENDBRANCH  16  20
ENDBRANCH   1  16
TORSDOF 5
ENDMDL
MODEL 4
REMARK VINA RESULT:      -6.8      1.431      2.635
REMARK  Name = 
REMARK  9 active torsions:
REMARK  status: ('A' for Active; 'I' for Inactive)
REMARK    1  A    between atoms: C_1  and  O_2
REMARK    2  A    between atoms: O_2  and  C_3
REMARK    3  A    between atoms: C_6  and  C_7
REMARK    4  A    between atoms: C_7  and  N_8
REMARK    5  A    between atoms: N_8  and  C_9
REMARK    6  A    between atoms: N_16  and  C_17
REMARK    7  A    between atoms: N_16  and  C_18
REMARK    8  A    between atoms: C_22  and  O_23
REMARK    9  A    between atoms: O_23  and  C_24
REMARK                            x       y       z     vdW  Elec       q    Type
REMARK                         _______ _______ _______ _____ _____    ______ ____
ROOT
ATOM      1  N   UNL     1       1.460   5.830  20.850  0.00  0.00    +0.000 NA
ATOM      2  H   UNL     1       0.507   6.009  21.169  0.00  0.00    +0.000 HD
ENDROOT
BRANCH   1   3
ATOM      3  C   UNL     1       1.433   4.767  19.838  0.00  0.00    +0.000 C 
ATOM      4  C   UNL     1       1.227   3.358  20.436  0.00  0.00    +0.000 C 
ATOM      5  C   UNL     1       2.443   2.915  21.250  0.00  0.00    +0.000 C 
ATOM      6  C   UNL     1       3.676   2.832  20.353  0.00  0.00    +0.000 C 
ATOM      7  C   UNL     1       3.822   3.998  19.411  0.00  0.00    +0.000 A 
ATOM      8  N   UNL     1       5.052   4.168  18.873  0.00  0.00    +0.000 NA
ATOM      9  C   UNL     1       5.251   5.193  18.025  0.00  0.00    +0.000 A 
ATOM     10  N   UNL     1       6.544   5.522  17.677  0.00  0.00    +0.000 N 
ATOM     11  C   UNL     1       6.775   6.615  16.755  0.00  0.00    +0.000 C 
ATOM     12  C   UNL     1       7.599   4.543  17.840  0.00  0.00    +0.000 C 
ATOM     13  N   UNL     1       4.240   5.967  17.600  0.00  0.00    +0.000 NA
ATOM     14  C   UNL     1       3.023   5.771  18.148  0.00  0.00    +0.000 A 
ATOM     15  C   UNL     1       2.751   4.815  19.100  0.00  0.00    +0.000 A 
ENDBRANCH   1   3
BRANCH   1  16
ATOM     16  C   UNL     1       2.052   7.102  20.423  0.00  0.00    +0.000 C 
BRANCH  16  20
ATOM     17  C   UNL     1      -0.490  10.505  21.338  0.00  0.00    +0.000 A 
ATOM     18  C   UNL     1      -0.180   9.586  22.331  0.00  0.00    +0.000 A 
ATOM     19  C   UNL     1       0.652   8.504  22.050  0.00  0.00    +0.000 A 
ATOM     20  C   UNL     1       1.195   8.315  20.766  0.00  0.00    +0.000 A 
ATOM     21  C   UNL     1       0.909   9.280  19.773  0.00  0.00    +0.000 A 
ATOM     22  C   UNL     1       0.072  10.367  20.069  0.00  0.00    +0.000 A 
BRANCH  17  24
ATOM     23  C   UNL     1      -1.602  11.583  23.115  0.00  0.00    +0.000 C 
ATOM     24  O   UNL     1      -1.314  11.529  21.722  0.00  0.00    +0.000 OA
ENDBRANCH  17  24
BRANCH  21  25
ATOM     25  O   UNL     1       1.491   9.068  18.544  0.00  0.00    +0.000 OA
ATOM     26  C   UNL     1       2.084  10.199  17.906  0.00  0.00    +0.000 C 
ENDBRANCH  21  25
ENDBRANCH  16  20
ENDBRANCH   1  16
TORSDOF 5
ENDMDL
MODEL 5
REMARK VINA RESULT:      -6.7      5.532      9.189
REMARK  Name = 
REMARK  9 active torsions:
REMARK  status: ('A' for Active; 'I' for Inactive)
REMARK    1  A    between atoms: C_1  and  O_2
REMARK    2  A    between atoms: O_2  and  C_3
REMARK    3  A    between atoms: C_6  and  C_7
REMARK    4  A    between atoms: C_7  and  N_8
REMARK    5  A    between atoms: N_8  and  C_9
REMARK    6  A    between atoms: N_16  and  C_17
REMARK    7  A    between atoms: N_16  and  C_18
REMARK    8  A    between atoms: C_22  and  O_23
REMARK    9  A    between atoms: O_23  and  C_24
REMARK                            x       y       z     vdW  Elec       q    Type
REMARK                         _______ _______ _______ _____ _____    ______ ____
ROOT
ATOM      1  N   UNL     1      -1.102  11.508  17.901  0.00  0.00    +0.000 NA
ATOM      2  H   UNL     1      -0.597  11.414  17.019  0.00  0.00    +0.000 HD
ENDROOT
BRANCH   1   3
ATOM      3  C   UNL     1      -2.160  10.493  17.959  0.00  0.00    +0.000 C 
ATOM      4  C   UNL     1      -2.205   9.583  16.712  0.00  0.00    +0.000 C 
ATOM      5  C   UNL     1      -2.654  10.359  15.472  0.00  0.00    +0.000 C 
ATOM      6  C   UNL     1      -4.068  10.897  15.671  0.00  0.00    +0.000 C 
ATOM      7  C   UNL     1      -4.303  11.505  17.030  0.00  0.00    +0.000 A 
ATOM      8  N   UNL     1      -5.384  12.311  17.134  0.00  0.00    +0.000 NA
ATOM      9  C   UNL     1      -5.649  12.888  18.319  0.00  0.00    +0.000 A 
ATOM     10  N   UNL     1      -6.586  13.899  18.369  0.00  0.00    +0.000 N 
ATOM     11  C   UNL     1      -6.892  14.522  19.640  0.00  0.00    +0.000 C 
ATOM     12  C   UNL     1      -7.562  14.021  17.305  0.00  0.00    +0.000 C 
ATOM     13  N   UNL     1      -4.952  12.586  19.426  0.00  0.00    +0.000 NA
ATOM     14  C   UNL     1      -3.883  11.773  19.295  0.00  0.00    +0.000 A 
ATOM     15  C   UNL     1      -3.476  11.221  18.101  0.00  0.00    +0.000 A 
ENDBRANCH   1   3
BRANCH   1  16
ATOM     16  C   UNL     1      -0.126  11.476  18.996  0.00  0.00    +0.000 C 
BRANCH  16  20
ATOM     17  C   UNL     1       2.266   7.849  18.969  0.00  0.00    +0.000 A 
ATOM     18  C   UNL     1       2.268   8.689  17.863  0.00  0.00    +0.000 A 
ATOM     19  C   UNL     1       1.520   9.864  17.873  0.00  0.00    +0.000 A 
ATOM     20  C   UNL     1       0.750  10.229  18.993  0.00  0.00    +0.000 A 
ATOM     21  C   UNL     1       0.788   9.390  20.130  0.00  0.00    +0.000 A 
ATOM     22  C   UNL     1       1.547   8.211  20.108  0.00  0.00    +0.000 A 
BRANCH  17  24
ATOM     23  C   UNL     1       2.322   5.535  18.528  0.00  0.00    +0.000 C 
ATOM     24  O   UNL     1       3.035   6.723  18.852  0.00  0.00    +0.000 OA
ENDBRANCH  17  24
BRANCH  21  25
ATOM     25  O   UNL     1       0.044   9.809  21.210  0.00  0.00    +0.000 OA
ATOM     26  C   UNL     1       0.496   9.402  22.501  0.00  0.00    +0.000 C 
ENDBRANCH  21  25
ENDBRANCH  16  20
ENDBRANCH   1  16
TORSDOF 5
ENDMDL
MODEL 6
REMARK VINA RESULT:      -6.7      1.410      1.754
REMARK  Name = 
REMARK  9 active torsions:
REMARK  status: ('A' for Active; 'I' for Inactive)
REMARK    1  A    between atoms: C_1  and  O_2
REMARK    2  A    between atoms: O_2  and  C_3
REMARK    3  A    between atoms: C_6  and  C_7
REMARK    4  A    between atoms: C_7  and  N_8
REMARK    5  A    between atoms: N_8  and  C_9
REMARK    6  A    between atoms: N_16  and  C_17
REMARK    7  A    between atoms: N_16  and  C_18
REMARK    8  A    between atoms: C_22  and  O_23
REMARK    9  A    between atoms: O_23  and  C_24
REMARK                            x       y       z     vdW  Elec       q    Type
REMARK                         _______ _______ _______ _____ _____    ______ ____
ROOT
ATOM      1  N   UNL     1       1.155   5.282  20.091  0.00  0.00    +0.000 NA
ATOM      2  H   UNL     1       0.386   5.732  19.593  0.00  0.00    +0.000 HD
ENDROOT
BRANCH   1   3
ATOM      3  C   UNL     1       1.434   3.983  19.470  0.00  0.00    +0.000 C 
ATOM      4  C   UNL     1       1.426   2.810  20.475  0.00  0.00    +0.000 C 
ATOM      5  C   UNL     1       2.607   2.897  21.443  0.00  0.00    +0.000 C 
ATOM      6  C   UNL     1       3.924   2.805  20.677  0.00  0.00    +0.000 C 
ATOM      7  C   UNL     1       3.956   3.636  19.420  0.00  0.00    +0.000 A 
ATOM      8  N   UNL     1       5.184   3.887  18.912  0.00  0.00    +0.000 NA
ATOM      9  C   UNL     1       5.283   4.625  17.793  0.00  0.00    +0.000 A 
ATOM     10  N   UNL     1       6.525   5.095  17.418  0.00  0.00    +0.000 N 
ATOM     11  C   UNL     1       6.650   5.881  16.208  0.00  0.00    +0.000 C 
ATOM     12  C   UNL     1       7.717   4.454  17.932  0.00  0.00    +0.000 C 
ATOM     13  N   UNL     1       4.200   5.007  17.098  0.00  0.00    +0.000 NA
ATOM     14  C   UNL     1       2.988   4.736  17.623  0.00  0.00    +0.000 A 
ATOM     15  C   UNL     1       2.793   4.078  18.816  0.00  0.00    +0.000 A 
ENDBRANCH   1   3
BRANCH   1  16
ATOM     16  C   UNL     1       2.282   6.220  20.144  0.00  0.00    +0.000 C 
BRANCH  16  20
ATOM     17  C   UNL     1       1.406  10.232  18.726  0.00  0.00    +0.000 A 
ATOM     18  C   UNL     1       2.056   9.330  17.894  0.00  0.00    +0.000 A 
ATOM     19  C   UNL     1       2.321   8.035  18.334  0.00  0.00    +0.000 A 
ATOM     20  C   UNL     1       1.941   7.610  19.621  0.00  0.00    +0.000 A 
ATOM     21  C   UNL     1       1.241   8.522  20.445  0.00  0.00    +0.000 A 
ATOM     22  C   UNL     1       0.978   9.822  19.989  0.00  0.00    +0.000 A 
BRANCH  17  24
ATOM     23  C   UNL     1       2.228  12.423  18.442  0.00  0.00    +0.000 C 
ATOM     24  O   UNL     1       1.195  11.476  18.193  0.00  0.00    +0.000 OA
ENDBRANCH  17  24
BRANCH  21  25
ATOM     25  O   UNL     1       0.863   8.047  21.680  0.00  0.00    +0.000 OA
ATOM     26  C   UNL     1      -0.335   8.585  22.239  0.00  0.00    +0.000 C 
ENDBRANCH  21  25
ENDBRANCH  16  20
ENDBRANCH   1  16
TORSDOF 5
ENDMDL
MODEL 7
REMARK VINA RESULT:      -6.7      3.861      7.901
REMARK  Name = 
REMARK  9 active torsions:
REMARK  status: ('A' for Active; 'I' for Inactive)
REMARK    1  A    between atoms: C_1  and  O_2
REMARK    2  A    between atoms: O_2  and  C_3
REMARK    3  A    between atoms: C_6  and  C_7
REMARK    4  A    between atoms: C_7  and  N_8
REMARK    5  A    between atoms: N_8  and  C_9
REMARK    6  A    between atoms: N_16  and  C_17
REMARK    7  A    between atoms: N_16  and  C_18
REMARK    8  A    between atoms: C_22  and  O_23
REMARK    9  A    between atoms: O_23  and  C_24
REMARK                            x       y       z     vdW  Elec       q    Type
REMARK                         _______ _______ _______ _____ _____    ______ ____
ROOT
ATOM      1  N   UNL     1       0.603   8.492  20.645  0.00  0.00    +0.000 NA
ATOM      2  H   UNL     1       0.016   8.526  21.479  0.00  0.00    +0.000 HD
ENDROOT
BRANCH   1   3
ATOM      3  C   UNL     1       0.904   9.862  20.215  0.00  0.00    +0.000 C 
ATOM      4  C   UNL     1       0.955  10.873  21.381  0.00  0.00    +0.000 C 
ATOM      5  C   UNL     1      -0.431  11.089  21.992  0.00  0.00    +0.000 C 
ATOM      6  C   UNL     1      -1.381  11.672  20.950  0.00  0.00    +0.000 C 
ATOM      7  C   UNL     1      -1.280  11.014  19.598  0.00  0.00    +0.000 A 
ATOM      8  N   UNL     1      -2.325  11.223  18.763  0.00  0.00    +0.000 NA
ATOM      9  C   UNL     1      -2.299  10.661  17.542  0.00  0.00    +0.000 A 
ATOM     10  N   UNL     1      -3.456  10.656  16.792  0.00  0.00    +0.000 N 
ATOM     11  C   UNL     1      -3.442  10.066  15.469  0.00  0.00    +0.000 C 
ATOM     12  C   UNL     1      -4.510  11.602  17.097  0.00  0.00    +0.000 C 
ATOM     13  N   UNL     1      -1.218  10.012  17.084  0.00  0.00    +0.000 NA
ATOM     14  C   UNL     1      -0.188   9.824  17.934  0.00  0.00    +0.000 A 
ATOM     15  C   UNL     1      -0.170  10.274  19.236  0.00  0.00    +0.000 A 
ENDBRANCH   1   3
BRANCH   1  16
ATOM     16  C   UNL     1       1.765   7.644  20.934  0.00  0.00    +0.000 C 
BRANCH  16  20
ATOM     17  C   UNL     1       1.915   3.911  18.717  0.00  0.00    +0.000 A 
ATOM     18  C   UNL     1       1.441   3.923  20.022  0.00  0.00    +0.000 A 
ATOM     19  C   UNL     1       1.370   5.120  20.732  0.00  0.00    +0.000 A 
ATOM     20  C   UNL     1       1.772   6.337  20.150  0.00  0.00    +0.000 A 
ATOM     21  C   UNL     1       2.212   6.321  18.807  0.00  0.00    +0.000 A 
ATOM     22  C   UNL     1       2.276   5.110  18.102  0.00  0.00    +0.000 A 
BRANCH  17  24
ATOM     23  C   UNL     1       3.089   1.891  18.402  0.00  0.00    +0.000 C 
ATOM     24  O   UNL     1       1.941   2.682  18.113  0.00  0.00    +0.000 OA
ENDBRANCH  17  24
BRANCH  21  25
ATOM     25  O   UNL     1       2.562   7.542  18.275  0.00  0.00    +0.000 OA
ATOM     26  C   UNL     1       3.734   7.579  17.461  0.00  0.00    +0.000 C 
ENDBRANCH  21  25
ENDBRANCH  16  20
ENDBRANCH   1  16
TORSDOF 5
ENDMDL
MODEL 8
REMARK VINA RESULT:      -6.6      1.358      1.448
REMARK  Name = 
REMARK  9 active torsions:
REMARK  status: ('A' for Active; 'I' for Inactive)
REMARK    1  A    between atoms: C_1  and  O_2
REMARK    2  A    between atoms: O_2  and  C_3
REMARK    3  A    between atoms: C_6  and  C_7
REMARK    4  A    between atoms: C_7  and  N_8
REMARK    5  A    between atoms: N_8  and  C_9
REMARK    6  A    between atoms: N_16  and  C_17
REMARK    7  A    between atoms: N_16  and  C_18
REMARK    8  A    between atoms: C_22  and  O_23
REMARK    9  A    between atoms: O_23  and  C_24
REMARK                            x       y       z     vdW  Elec       q    Type
REMARK                         _______ _______ _______ _____ _____    ______ ____
ROOT
ATOM      1  N   UNL     1       1.700   6.477  20.793  0.00  0.00    +0.000 NA
ATOM      2  H   UNL     1       0.782   6.633  21.210  0.00  0.00    +0.000 HD
ENDROOT
BRANCH   1   3
ATOM      3  C   UNL     1       1.583   5.457  19.744  0.00  0.00    +0.000 C 
ATOM      4  C   UNL     1       1.185   4.066  20.284  0.00  0.00    +0.000 C 
ATOM      5  C   UNL     1       2.309   3.452  21.122  0.00  0.00    +0.000 C 
ATOM      6  C   UNL     1       3.554   3.248  20.264  0.00  0.00    +0.000 C 
ATOM      7  C   UNL     1       3.875   4.417  19.369  0.00  0.00    +0.000 A 
ATOM      8  N   UNL     1       5.135   4.452  18.877  0.00  0.00    +0.000 NA
ATOM      9  C   UNL     1       5.488   5.471  18.074  0.00  0.00    +0.000 A 
ATOM     10  N   UNL     1       6.824   5.651  17.780  0.00  0.00    +0.000 N 
ATOM     11  C   UNL     1       7.218   6.735  16.905  0.00  0.00    +0.000 C 
ATOM     12  C   UNL     1       7.746   4.545  17.943  0.00  0.00    +0.000 C 
ATOM     13  N   UNL     1       4.595   6.376  17.643  0.00  0.00    +0.000 NA
ATOM     14  C   UNL     1       3.343   6.312  18.143  0.00  0.00    +0.000 A 
ATOM     15  C   UNL     1       2.922   5.367  19.051  0.00  0.00    +0.000 A 
ENDBRANCH   1   3
BRANCH   1  16
ATOM     16  C   UNL     1       2.239   7.772  20.366  0.00  0.00    +0.000 C 
BRANCH  16  20
ATOM     17  C   UNL     1      -0.747  10.788  19.435  0.00  0.00    +0.000 A 
ATOM     18  C   UNL     1      -0.072  10.141  18.408  0.00  0.00    +0.000 A 
ATOM     19  C   UNL     1       0.872   9.158  18.699  0.00  0.00    +0.000 A 
ATOM     20  C   UNL     1       1.163   8.797  20.028  0.00  0.00    +0.000 A 
ATOM     21  C   UNL     1       0.440   9.429  21.064  0.00  0.00    +0.000 A 
ATOM     22  C   UNL     1      -0.510  10.416  20.759  0.00  0.00    +0.000 A 
BRANCH  17  24
ATOM     23  C   UNL     1      -1.921  11.766  17.641  0.00  0.00    +0.000 C 
ATOM     24  O   UNL     1      -1.652  11.735  19.038  0.00  0.00    +0.000 OA
ENDBRANCH  17  24
BRANCH  21  25
ATOM     25  O   UNL     1       0.738   9.017  22.343  0.00  0.00    +0.000 OA
ATOM     26  C   UNL     1      -0.101   9.503  23.391  0.00  0.00    +0.000 C 
ENDBRANCH  21  25
ENDBRANCH  16  20
ENDBRANCH   1  16
TORSDOF 5
ENDMDL
MODEL 9
REMARK VINA RESULT:      -6.6      3.433      7.619
REMARK  Name = 
REMARK  9 active torsions:
REMARK  status: ('A' for Active; 'I' for Inactive)
REMARK    1  A    between atoms: C_1  and  O_2
REMARK    2  A    between atoms: O_2  and  C_3
REMARK    3  A    between atoms: C_6  and  C_7
REMARK    4  A    between atoms: C_7  and  N_8
REMARK    5  A    between atoms: N_8  and  C_9
REMARK    6  A    between atoms: N_16  and  C_17
REMARK    7  A    between atoms: N_16  and  C_18
REMARK    8  A    between atoms: C_22  and  O_23
REMARK    9  A    between atoms: O_23  and  C_24
REMARK                            x       y       z     vdW  Elec       q    Type
REMARK                         _______ _______ _______ _____ _____    ______ ____
ROOT
ATOM      1  N   UNL     1       3.606   6.258  19.956  0.00  0.00    +0.000 NA
ATOM      2  H   UNL     1       4.238   7.017  19.699  0.00  0.00    +0.000 HD
ENDROOT
BRANCH   1   3
ATOM      3  C   UNL     1       2.370   6.376  19.173  0.00  0.00    +0.000 C 
ATOM      4  C   UNL     1       2.618   6.676  17.679  0.00  0.00    +0.000 C 
ATOM      5  C   UNL     1       3.190   8.081  17.481  0.00  0.00    +0.000 C 
ATOM      6  C   UNL     1       2.197   9.129  17.977  0.00  0.00    +0.000 C 
ATOM      7  C   UNL     1       1.561   8.786  19.300  0.00  0.00    +0.000 A 
ATOM      8  N   UNL     1       0.977   9.816  19.954  0.00  0.00    +0.000 NA
ATOM      9  C   UNL     1       0.393   9.579  21.142  0.00  0.00    +0.000 A 
ATOM     10  N   UNL     1       0.026  10.653  21.926  0.00  0.00    +0.000 N 
ATOM     11  C   UNL     1      -0.616  10.414  23.202  0.00  0.00    +0.000 C 
ATOM     12  C   UNL     1      -0.149  11.955  21.315  0.00  0.00    +0.000 C 
ATOM     13  N   UNL     1       0.261   8.336  21.631  0.00  0.00    +0.000 NA
ATOM     14  C   UNL     1       0.847   7.327  20.954  0.00  0.00    +0.000 A 
ATOM     15  C   UNL     1       1.554   7.492  19.784  0.00  0.00    +0.000 A 
ENDBRANCH   1   3
BRANCH   1  16
ATOM     16  C   UNL     1       4.329   4.989  19.819  0.00  0.00    +0.000 C 
BRANCH  16  20
ATOM     17  C   UNL     1       6.818   4.893  16.259  0.00  0.00    +0.000 A 
ATOM     18  C   UNL     1       7.065   5.832  17.251  0.00  0.00    +0.000 A 
ATOM     19  C   UNL     1       6.284   5.855  18.405  0.00  0.00    +0.000 A 
ATOM     20  C   UNL     1       5.235   4.936  18.595  0.00  0.00    +0.000 A 
ATOM     21  C   UNL     1       5.019   3.956  17.599  0.00  0.00    +0.000 A 
ATOM     22  C   UNL     1       5.814   3.942  16.442  0.00  0.00    +0.000 A 
BRANCH  17  24
ATOM     23  C   UNL     1       7.004   4.766  13.913  0.00  0.00    +0.000 C 
ATOM     24  O   UNL     1       7.644   4.959  15.169  0.00  0.00    +0.000 OA
ENDBRANCH  17  24
BRANCH  21  25
ATOM     25  O   UNL     1       4.004   3.061  17.847  0.00  0.00    +0.000 OA
ATOM     26  C   UNL     1       2.828   3.181  17.047  0.00  0.00    +0.000 C 
ENDBRANCH  21  25
ENDBRANCH  16  20
ENDBRANCH   1  16
TORSDOF 5
ENDMDL
