MODEL 1
REMARK VINA RESULT:      -7.6      0.000      0.000
REMARK  Name = 
REMARK  5 active torsions:
REMARK  status: ('A' for Active; 'I' for Inactive)
REMARK    1  A    between atoms: C_1  and  O_2
REMARK    2  A    between atoms: O_2  and  C_3
REMARK    3  A    between atoms: C_3  and  C_5
REMARK    4  A    between atoms: C_5  and  N_6
REMARK    5  A    between atoms: N_9  and  C_10
REMARK                            x       y       z     vdW  Elec       q    Type
REMARK                         _______ _______ _______ _____ _____    ______ ____
ROOT
ATOM      1  C   UNL     1       2.725   7.105  18.772  0.00  0.00    +0.000 A 
ATOM      2  N   UNL     1       3.584   7.173  17.735  0.00  0.00    +0.000 NA
ATOM      3  C   UNL     1       4.139   6.053  17.281  0.00  0.00    +0.000 A 
ATOM      4  N   UNL     1       4.986   6.142  16.194  0.00  0.00    +0.000 N 
ATOM      5  N   UNL     1       3.954   4.849  17.807  0.00  0.00    +0.000 NA
ATOM      6  C   UNL     1       3.100   4.751  18.845  0.00  0.00    +0.000 A 
ATOM      7  C   UNL     1       2.427   5.865  19.355  0.00  0.00    +0.000 A 
ATOM      8  C   UNL     1       1.413   5.697  20.452  0.00  0.00    +0.000 C 
ATOM      9  C   UNL     1       0.910   4.282  20.680  0.00  0.00    +0.000 C 
ATOM     10  C   UNL     1       2.100   3.346  20.715  0.00  0.00    +0.000 C 
ATOM     11  C   UNL     1       2.809   3.331  19.347  0.00  0.00    +0.000 C 
ATOM     12  C   UNL     1       1.936   2.596  18.294  0.00  0.00    +0.000 C 
ATOM     13  C   UNL     1       2.912   1.767  17.476  0.00  0.00    +0.000 C 
ATOM     14  C   UNL     1       3.905   1.285  18.516  0.00  0.00    +0.000 C 
ATOM     15  C   UNL     1       4.098   2.470  19.457  0.00  0.00    +0.000 C 
ATOM     16  H   UNL     1       5.383   7.068  16.145  0.00  0.00    +0.000 HD
ATOM     17  H   UNL     1       5.621   5.356  16.196  0.00  0.00    +0.000 HD
ENDROOT
BRANCH   1  21
ATOM     18  C   UNL     1       0.022  10.200  19.495  0.00  0.00    +0.000 C 
ATOM     19  C   UNL     1       0.290   9.056  20.496  0.00  0.00    +0.000 C 
ATOM     20  C   UNL     1       1.776   8.686  20.498  0.00  0.00    +0.000 C 
ATOM     21  N   UNL     1       2.122   8.293  19.141  0.00  0.00    +0.000 N 
ATOM     22  C   UNL     1       2.073   9.400  18.181  0.00  0.00    +0.000 C 
ATOM     23  C   UNL     1       0.614   9.877  18.106  0.00  0.00    +0.000 C 
BRANCH  18  24
ATOM     24  N   UNL     1      -1.449  10.390  19.346  0.00  0.00    +0.000 NA
ATOM     25  H   UNL     1      -1.923   9.903  20.108  0.00  0.00    +0.000 HD
ATOM     26  H   UNL     1      -1.761   9.945  18.483  0.00  0.00    +0.000 HD
ENDBRANCH  18  24
BRANCH  18  27
ATOM     27  C   UNL     1       0.621  11.512  20.059  0.00  0.00    +0.000 C 
ATOM     28  O   UNL     1       0.898  11.719  21.234  0.00  0.00    +0.000 OA
BRANCH  27  30
ATOM     29  C   UNL     1       2.005  13.149  19.116  0.00  0.00    +0.000 C 
ATOM     30  O   UNL     1       0.771  12.435  19.061  0.00  0.00    +0.000 OA
ENDBRANCH  27  30
ENDBRANCH  18  27
ENDBRANCH   1  21
TORSDOF 4
ENDMDL
MODEL 2
REMARK VINA RESULT:      -6.8      1.434      2.040
REMARK  Name = 
REMARK  5 active torsions:
REMARK  status: ('A' for Active; 'I' for Inactive)
REMARK    1  A    between atoms: C_1  and  O_2
REMARK    2  A    between atoms: O_2  and  C_3
REMARK    3  A    between atoms: C_3  and  C_5
REMARK    4  A    between atoms: C_5  and  N_6
REMARK    5  A    between atoms: N_9  and  C_10
REMARK                            x       y       z     vdW  Elec       q    Type
REMARK                         _______ _______ _______ _____ _____    ______ ____
ROOT
ATOM      1  C   UNL     1       2.324   7.269  19.164  0.00  0.00    +0.000 A 
ATOM      2  N   UNL     1       3.188   7.551  18.168  0.00  0.00    +0.000 NA
ATOM      3  C   UNL     1       3.905   6.565  17.636  0.00  0.00    +0.000 A 
ATOM      4  N   UNL     1       4.756   6.870  16.592  0.00  0.00    +0.000 N 
ATOM      5  N   UNL     1       3.879   5.303  18.045  0.00  0.00    +0.000 NA
ATOM      6  C   UNL     1       3.023   4.992  19.039  0.00  0.00    +0.000 A 
ATOM      7  C   UNL     1       2.189   5.950  19.622  0.00  0.00    +0.000 A 
ATOM      8  C   UNL     1       1.183   5.542  20.662  0.00  0.00    +0.000 C 
ATOM      9  C   UNL     1       0.878   4.057  20.744  0.00  0.00    +0.000 C 
ATOM     10  C   UNL     1       2.186   3.294  20.739  0.00  0.00    +0.000 C 
ATOM     11  C   UNL     1       2.922   3.504  19.401  0.00  0.00    +0.000 C 
ATOM     12  C   UNL     1       2.185   2.759  18.256  0.00  0.00    +0.000 C 
ATOM     13  C   UNL     1       3.286   2.152  17.402  0.00  0.00    +0.000 C 
ATOM     14  C   UNL     1       4.312   1.715  18.430  0.00  0.00    +0.000 C 
ATOM     15  C   UNL     1       4.315   2.823  19.480  0.00  0.00    +0.000 C 
ATOM     16  H   UNL     1       5.021   7.843  16.641  0.00  0.00    +0.000 HD
ATOM     17  H   UNL     1       5.495   6.182  16.547  0.00  0.00    +0.000 HD
ENDROOT
BRANCH   1  21
ATOM     18  C   UNL     1       0.962  10.899  20.704  0.00  0.00    +0.000 C 
ATOM     19  C   UNL     1       1.273  10.674  19.209  0.00  0.00    +0.000 C 
ATOM     20  C   UNL     1       0.835   9.272  18.777  0.00  0.00    +0.000 C 
ATOM     21  N   UNL     1       1.552   8.323  19.615  0.00  0.00    +0.000 N 
ATOM     22  C   UNL     1       1.146   8.362  21.023  0.00  0.00    +0.000 C 
ATOM     23  C   UNL     1       1.520   9.749  21.570  0.00  0.00    +0.000 C 
BRANCH  18  24
ATOM     24  N   UNL     1       1.593  12.173  21.153  0.00  0.00    +0.000 NA
ATOM     25  H   UNL     1       2.467  12.305  20.642  0.00  0.00    +0.000 HD
ATOM     26  H   UNL     1       1.845  12.096  22.138  0.00  0.00    +0.000 HD
ENDBRANCH  18  24
BRANCH  18  27
ATOM     27  C   UNL     1      -0.570  11.032  20.884  0.00  0.00    +0.000 C 
ATOM     28  O   UNL     1      -1.357  11.405  20.023  0.00  0.00    +0.000 OA
BRANCH  27  30
ATOM     29  C   UNL     1      -1.557  11.772  22.875  0.00  0.00    +0.000 C 
ATOM     30  O   UNL     1      -0.930  10.706  22.163  0.00  0.00    +0.000 OA
ENDBRANCH  27  30
ENDBRANCH  18  27
ENDBRANCH   1  21
TORSDOF 4
ENDMDL
MODEL 3
REMARK VINA RESULT:      -6.8      3.191      7.715
REMARK  Name = 
REMARK  5 active torsions:
REMARK  status: ('A' for Active; 'I' for Inactive)
REMARK    1  A    between atoms: C_1  and  O_2
REMARK    2  A    between atoms: O_2  and  C_3
REMARK    3  A    between atoms: C_3  and  C_5
REMARK    4  A    between atoms: C_5  and  N_6
REMARK    5  A    between atoms: N_9  and  C_10
REMARK                            x       y       z     vdW  Elec       q    Type
REMARK                         _______ _______ _______ _____ _____    ______ ____
ROOT
ATOM      1  C   UNL     1       1.357   7.967  20.554  0.00  0.00    +0.000 A 
ATOM      2  N   UNL     1       0.668   7.949  21.713  0.00  0.00    +0.000 NA
ATOM      3  C   UNL     1       0.067   9.062  22.124  0.00  0.00    +0.000 A 
ATOM      4  N   UNL     1      -0.665   9.011  23.295  0.00  0.00    +0.000 N 
ATOM      5  N   UNL     1       0.129  10.232  21.500  0.00  0.00    +0.000 NA
ATOM      6  C   UNL     1       0.811  10.278  20.338  0.00  0.00    +0.000 A 
ATOM      7  C   UNL     1       1.430   9.147  19.799  0.00  0.00    +0.000 A 
ATOM      8  C   UNL     1       2.099   9.221  18.455  0.00  0.00    +0.000 C 
ATOM      9  C   UNL     1       1.738  10.423  17.600  0.00  0.00    +0.000 C 
ATOM     10  C   UNL     1       1.813  11.668  18.458  0.00  0.00    +0.000 C 
ATOM     11  C   UNL     1       0.757  11.610  19.578  0.00  0.00    +0.000 C 
ATOM     12  C   UNL     1      -0.668  11.791  18.987  0.00  0.00    +0.000 C 
ATOM     13  C   UNL     1      -1.398  12.688  19.973  0.00  0.00    +0.000 C 
ATOM     14  C   UNL     1      -0.323  13.667  20.404  0.00  0.00    +0.000 C 
ATOM     15  C   UNL     1       0.950  12.832  20.517  0.00  0.00    +0.000 C 
ATOM     16  H   UNL     1      -0.318   8.267  23.882  0.00  0.00    +0.000 HD
ATOM     17  H   UNL     1      -0.727   9.937  23.694  0.00  0.00    +0.000 HD
ENDROOT
BRANCH   1  21
ATOM     18  C   UNL     1       1.998   4.220  18.834  0.00  0.00    +0.000 C 
ATOM     19  C   UNL     1       2.294   5.550  18.108  0.00  0.00    +0.000 C 
ATOM     20  C   UNL     1       2.871   6.576  19.087  0.00  0.00    +0.000 C 
ATOM     21  N   UNL     1       1.889   6.758  20.144  0.00  0.00    +0.000 N 
ATOM     22  C   UNL     1       1.715   5.575  20.992  0.00  0.00    +0.000 C 
ATOM     23  C   UNL     1       1.152   4.454  20.105  0.00  0.00    +0.000 C 
BRANCH  18  24
ATOM     24  N   UNL     1       1.238   3.319  17.923  0.00  0.00    +0.000 NA
ATOM     25  H   UNL     1       0.239   3.440  18.098  0.00  0.00    +0.000 HD
ATOM     26  H   UNL     1       1.453   2.348  18.151  0.00  0.00    +0.000 HD
ENDBRANCH  18  24
BRANCH  18  27
ATOM     27  C   UNL     1       3.339   3.529  19.183  0.00  0.00    +0.000 C 
ATOM     28  O   UNL     1       3.589   2.953  20.235  0.00  0.00    +0.000 OA
BRANCH  27  30
ATOM     29  C   UNL     1       5.519   4.136  18.579  0.00  0.00    +0.000 C 
ATOM     30  O   UNL     1       4.234   3.680  18.159  0.00  0.00    +0.000 OA
ENDBRANCH  27  30
ENDBRANCH  18  27
ENDBRANCH   1  21
TORSDOF 4
ENDMDL
MODEL 4
REMARK VINA RESULT:      -6.7      3.759      7.000
REMARK  Name = 
REMARK  5 active torsions:
REMARK  status: ('A' for Active; 'I' for Inactive)
REMARK    1  A    between atoms: C_1  and  O_2
REMARK    2  A    between atoms: O_2  and  C_3
REMARK    3  A    between atoms: C_3  and  C_5
REMARK    4  A    between atoms: C_5  and  N_6
REMARK    5  A    between atoms: N_9  and  C_10
REMARK                            x       y       z     vdW  Elec       q    Type
REMARK                         _______ _______ _______ _____ _____    ______ ____
ROOT
ATOM      1  C   UNL     1       3.448   7.320  17.840  0.00  0.00    +0.000 A 
ATOM      2  N   UNL     1       3.207   8.554  17.351  0.00  0.00    +0.000 NA
ATOM      3  C   UNL     1       2.338   9.340  17.979  0.00  0.00    +0.000 A 
ATOM      4  N   UNL     1       2.135  10.613  17.482  0.00  0.00    +0.000 N 
ATOM      5  N   UNL     1       1.631   8.988  19.047  0.00  0.00    +0.000 NA
ATOM      6  C   UNL     1       1.852   7.760  19.558  0.00  0.00    +0.000 A 
ATOM      7  C   UNL     1       2.787   6.885  18.998  0.00  0.00    +0.000 A 
ATOM      8  C   UNL     1       3.069   5.562  19.655  0.00  0.00    +0.000 C 
ATOM      9  C   UNL     1       2.595   5.420  21.091  0.00  0.00    +0.000 C 
ATOM     10  C   UNL     1       1.171   5.925  21.183  0.00  0.00    +0.000 C 
ATOM     11  C   UNL     1       1.116   7.432  20.863  0.00  0.00    +0.000 C 
ATOM     12  C   UNL     1       1.754   8.252  22.018  0.00  0.00    +0.000 C 
ATOM     13  C   UNL     1       0.856   9.466  22.187  0.00  0.00    +0.000 C 
ATOM     14  C   UNL     1      -0.532   8.897  21.965  0.00  0.00    +0.000 C 
ATOM     15  C   UNL     1      -0.368   7.887  20.832  0.00  0.00    +0.000 C 
ATOM     16  H   UNL     1       2.358  10.635  16.499  0.00  0.00    +0.000 HD
ATOM     17  H   UNL     1       1.225  10.945  17.767  0.00  0.00    +0.000 HD
ENDROOT
BRANCH   1  21
ATOM     18  C   UNL     1       6.714   4.908  16.883  0.00  0.00    +0.000 C 
ATOM     19  C   UNL     1       5.303   4.352  17.170  0.00  0.00    +0.000 C 
ATOM     20  C   UNL     1       4.234   5.278  16.581  0.00  0.00    +0.000 C 
ATOM     21  N   UNL     1       4.421   6.586  17.188  0.00  0.00    +0.000 N 
ATOM     22  C   UNL     1       5.667   7.246  16.787  0.00  0.00    +0.000 C 
ATOM     23  C   UNL     1       6.829   6.388  17.310  0.00  0.00    +0.000 C 
BRANCH  18  24
ATOM     24  N   UNL     1       7.720   4.119  17.649  0.00  0.00    +0.000 NA
ATOM     25  H   UNL     1       7.530   4.224  18.647  0.00  0.00    +0.000 HD
ATOM     26  H   UNL     1       8.649   4.512  17.491  0.00  0.00    +0.000 HD
ENDBRANCH  18  24
BRANCH  18  27
ATOM     27  C   UNL     1       7.022   4.744  15.374  0.00  0.00    +0.000 C 
ATOM     28  O   UNL     1       7.766   5.462  14.718  0.00  0.00    +0.000 OA
BRANCH  27  30
ATOM     29  C   UNL     1       6.142   3.759  13.440  0.00  0.00    +0.000 C 
ATOM     30  O   UNL     1       6.314   3.694  14.855  0.00  0.00    +0.000 OA
ENDBRANCH  27  30
ENDBRANCH  18  27
ENDBRANCH   1  21
TORSDOF 4
ENDMDL
MODEL 5
REMARK VINA RESULT:      -6.6      8.958     10.876
REMARK  Name = 
REMARK  5 active torsions:
REMARK  status: ('A' for Active; 'I' for Inactive)
REMARK    1  A    between atoms: C_1  and  O_2
REMARK    2  A    between atoms: O_2  and  C_3
REMARK    3  A    between atoms: C_3  and  C_5
REMARK    4  A    between atoms: C_5  and  N_6
REMARK    5  A    between atoms: N_9  and  C_10
REMARK                            x       y       z     vdW  Elec       q    Type
REMARK                         _______ _______ _______ _____ _____    ______ ____
ROOT
ATOM      1  C   UNL     1       8.637  14.399  21.792  0.00  0.00    +0.000 A 
ATOM      2  N   UNL     1       8.550  15.678  21.371  0.00  0.00    +0.000 NA
ATOM      3  C   UNL     1       9.231  16.051  20.292  0.00  0.00    +0.000 A 
ATOM      4  N   UNL     1       9.097  17.355  19.858  0.00  0.00    +0.000 N 
ATOM      5  N   UNL     1      10.049  15.265  19.602  0.00  0.00    +0.000 NA
ATOM      6  C   UNL     1      10.154  13.981  20.000  0.00  0.00    +0.000 A 
ATOM      7  C   UNL     1       9.435  13.484  21.090  0.00  0.00    +0.000 A 
ATOM      8  C   UNL     1       9.510  12.024  21.441  0.00  0.00    +0.000 C 
ATOM      9  C   UNL     1      10.069  11.110  20.364  0.00  0.00    +0.000 C 
ATOM     10  C   UNL     1      11.331  11.734  19.808  0.00  0.00    +0.000 C 
ATOM     11  C   UNL     1      11.006  13.068  19.108  0.00  0.00    +0.000 C 
ATOM     12  C   UNL     1      10.241  12.809  17.781  0.00  0.00    +0.000 C 
ATOM     13  C   UNL     1      10.826  13.797  16.785  0.00  0.00    +0.000 C 
ATOM     14  C   UNL     1      12.299  13.813  17.146  0.00  0.00    +0.000 C 
ATOM     15  C   UNL     1      12.333  13.745  18.670  0.00  0.00    +0.000 C 
ATOM     16  H   UNL     1       8.832  17.947  20.631  0.00  0.00    +0.000 HD
ATOM     17  H   UNL     1       9.912  17.617  19.322  0.00  0.00    +0.000 HD
ENDROOT
BRANCH   1  21
ATOM     18  C   UNL     1       6.503  12.365  24.743  0.00  0.00    +0.000 C 
ATOM     19  C   UNL     1       7.983  12.776  24.897  0.00  0.00    +0.000 C 
ATOM     20  C   UNL     1       8.221  14.153  24.270  0.00  0.00    +0.000 C 
ATOM     21  N   UNL     1       7.841  14.058  22.870  0.00  0.00    +0.000 N 
ATOM     22  C   UNL     1       6.403  13.863  22.665  0.00  0.00    +0.000 C 
ATOM     23  C   UNL     1       6.033  12.504  23.279  0.00  0.00    +0.000 C 
BRANCH  18  24
ATOM     24  N   UNL     1       6.341  10.942  25.156  0.00  0.00    +0.000 NA
ATOM     25  H   UNL     1       6.822  10.801  26.046  0.00  0.00    +0.000 HD
ATOM     26  H   UNL     1       6.809  10.339  24.478  0.00  0.00    +0.000 HD
ENDBRANCH  18  24
BRANCH  18  27
ATOM     27  C   UNL     1       5.638  13.239  25.685  0.00  0.00    +0.000 C 
ATOM     28  O   UNL     1       4.834  14.089  25.326  0.00  0.00    +0.000 OA
BRANCH  27  30
ATOM     29  C   UNL     1       4.767  12.856  27.825  0.00  0.00    +0.000 C 
ATOM     30  O   UNL     1       5.922  12.955  26.993  0.00  0.00    +0.000 OA
ENDBRANCH  27  30
ENDBRANCH  18  27
ENDBRANCH   1  21
TORSDOF 4
ENDMDL
MODEL 6
REMARK VINA RESULT:      -6.5      7.039      8.833
REMARK  Name = 
REMARK  5 active torsions:
REMARK  status: ('A' for Active; 'I' for Inactive)
REMARK    1  A    between atoms: C_1  and  O_2
REMARK    2  A    between atoms: O_2  and  C_3
REMARK    3  A    between atoms: C_3  and  C_5
REMARK    4  A    between atoms: C_5  and  N_6
REMARK    5  A    between atoms: N_9  and  C_10
REMARK                            x       y       z     vdW  Elec       q    Type
REMARK                         _______ _______ _______ _____ _____    ______ ____
ROOT
ATOM      1  C   UNL     1      -2.386  13.104  20.335  0.00  0.00    +0.000 A 
ATOM      2  N   UNL     1      -1.133  13.235  19.853  0.00  0.00    +0.000 NA
ATOM      3  C   UNL     1      -0.802  12.600  18.733  0.00  0.00    +0.000 A 
ATOM      4  N   UNL     1       0.475  12.778  18.238  0.00  0.00    +0.000 N 
ATOM      5  N   UNL     1      -1.605  11.789  18.056  0.00  0.00    +0.000 NA
ATOM      6  C   UNL     1      -2.865  11.640  18.514  0.00  0.00    +0.000 A 
ATOM      7  C   UNL     1      -3.320  12.310  19.653  0.00  0.00    +0.000 A 
ATOM      8  C   UNL     1      -4.758  12.189  20.075  0.00  0.00    +0.000 C 
ATOM      9  C   UNL     1      -5.714  11.648  19.027  0.00  0.00    +0.000 C 
ATOM     10  C   UNL     1      -5.094  10.420  18.396  0.00  0.00    +0.000 C 
ATOM     11  C   UNL     1      -3.805  10.799  17.641  0.00  0.00    +0.000 C 
ATOM     12  C   UNL     1      -4.148  11.603  16.357  0.00  0.00    +0.000 C 
ATOM     13  C   UNL     1      -3.201  11.075  15.292  0.00  0.00    +0.000 C 
ATOM     14  C   UNL     1      -3.135   9.592  15.598  0.00  0.00    +0.000 C 
ATOM     15  C   UNL     1      -3.124   9.503  17.122  0.00  0.00    +0.000 C 
ATOM     16  H   UNL     1       1.100  13.030  18.988  0.00  0.00    +0.000 HD
ATOM     17  H   UNL     1       0.726  11.988  17.660  0.00  0.00    +0.000 HD
ENDROOT
BRANCH   1  21
ATOM     18  C   UNL     1      -4.285  14.963  23.551  0.00  0.00    +0.000 C 
ATOM     19  C   UNL     1      -3.658  13.555  23.634  0.00  0.00    +0.000 C 
ATOM     20  C   UNL     1      -2.356  13.503  22.829  0.00  0.00    +0.000 C 
ATOM     21  N   UNL     1      -2.688  13.854  21.457  0.00  0.00    +0.000 N 
ATOM     22  C   UNL     1      -3.104  15.251  21.294  0.00  0.00    +0.000 C 
ATOM     23  C   UNL     1      -4.407  15.435  22.086  0.00  0.00    +0.000 C 
BRANCH  18  24
ATOM     24  N   UNL     1      -5.650  14.931  24.150  0.00  0.00    +0.000 NA
ATOM     25  H   UNL     1      -6.331  15.171  23.428  0.00  0.00    +0.000 HD
ATOM     26  H   UNL     1      -5.722  15.656  24.865  0.00  0.00    +0.000 HD
ENDBRANCH  18  24
BRANCH  18  27
ATOM     27  C   UNL     1      -3.421  15.948  24.378  0.00  0.00    +0.000 C 
ATOM     28  O   UNL     1      -3.147  17.096  24.054  0.00  0.00    +0.000 OA
BRANCH  27  30
ATOM     29  C   UNL     1      -1.632  15.697  25.868  0.00  0.00    +0.000 C 
ATOM     30  O   UNL     1      -2.969  15.343  25.519  0.00  0.00    +0.000 OA
ENDBRANCH  27  30
ENDBRANCH  18  27
ENDBRANCH   1  21
TORSDOF 4
ENDMDL
MODEL 7
REMARK VINA RESULT:      -6.5      7.138      9.085
REMARK  Name = 
REMARK  5 active torsions:
REMARK  status: ('A' for Active; 'I' for Inactive)
REMARK    1  A    between atoms: C_1  and  O_2
REMARK    2  A    between atoms: O_2  and  C_3
REMARK    3  A    between atoms: C_3  and  C_5
REMARK    4  A    between atoms: C_5  and  N_6
REMARK    5  A    between atoms: N_9  and  C_10
REMARK                            x       y       z     vdW  Elec       q    Type
REMARK                         _______ _______ _______ _____ _____    ______ ____
ROOT
ATOM      1  C   UNL     1      -2.635  13.191  20.457  0.00  0.00    +0.000 A 
ATOM      2  N   UNL     1      -1.379  13.377  20.004  0.00  0.00    +0.000 NA
ATOM      3  C   UNL     1      -0.995  12.758  18.890  0.00  0.00    +0.000 A 
ATOM      4  N   UNL     1       0.284  12.992  18.425  0.00  0.00    +0.000 N 
ATOM      5  N   UNL     1      -1.746  11.913  18.195  0.00  0.00    +0.000 NA
ATOM      6  C   UNL     1      -3.008  11.709  18.625  0.00  0.00    +0.000 A 
ATOM      7  C   UNL     1      -3.518  12.358  19.754  0.00  0.00    +0.000 A 
ATOM      8  C   UNL     1      -4.958  12.174  20.143  0.00  0.00    +0.000 C 
ATOM      9  C   UNL     1      -5.866  11.592  19.073  0.00  0.00    +0.000 C 
ATOM     10  C   UNL     1      -5.178  10.393  18.456  0.00  0.00    +0.000 C 
ATOM     11  C   UNL     1      -3.890  10.829  17.730  0.00  0.00    +0.000 C 
ATOM     12  C   UNL     1      -4.239  11.618  16.439  0.00  0.00    +0.000 C 
ATOM     13  C   UNL     1      -3.246  11.134  15.396  0.00  0.00    +0.000 C 
ATOM     14  C   UNL     1      -3.123   9.654  15.703  0.00  0.00    +0.000 C 
ATOM     15  C   UNL     1      -3.142   9.565  17.227  0.00  0.00    +0.000 C 
ATOM     16  H   UNL     1       0.880  13.270  19.189  0.00  0.00    +0.000 HD
ATOM     17  H   UNL     1       0.582  12.215  17.853  0.00  0.00    +0.000 HD
ENDROOT
BRANCH   1  21
ATOM     18  C   UNL     1      -4.686  14.960  23.630  0.00  0.00    +0.000 C 
ATOM     19  C   UNL     1      -3.997  13.581  23.727  0.00  0.00    +0.000 C 
ATOM     20  C   UNL     1      -2.677  13.588  22.950  0.00  0.00    +0.000 C 
ATOM     21  N   UNL     1      -2.995  13.926  21.571  0.00  0.00    +0.000 N 
ATOM     22  C   UNL     1      -3.470  15.302  21.399  0.00  0.00    +0.000 C 
ATOM     23  C   UNL     1      -4.797  15.427  22.163  0.00  0.00    +0.000 C 
BRANCH  18  24
ATOM     24  N   UNL     1      -6.060  14.866  24.199  0.00  0.00    +0.000 NA
ATOM     25  H   UNL     1      -6.339  13.883  24.225  0.00  0.00    +0.000 HD
ATOM     26  H   UNL     1      -6.717  15.334  23.575  0.00  0.00    +0.000 HD
ENDBRANCH  18  24
BRANCH  18  27
ATOM     27  C   UNL     1      -3.885  15.982  24.475  0.00  0.00    +0.000 C 
ATOM     28  O   UNL     1      -3.060  15.701  25.335  0.00  0.00    +0.000 OA
BRANCH  27  30
ATOM     29  C   UNL     1      -4.692  18.032  25.268  0.00  0.00    +0.000 C 
ATOM     30  O   UNL     1      -4.253  17.259  24.152  0.00  0.00    +0.000 OA
ENDBRANCH  27  30
ENDBRANCH  18  27
ENDBRANCH   1  21
TORSDOF 4
ENDMDL
MODEL 8
REMARK VINA RESULT:      -6.5      8.814     10.826
REMARK  Name = 
REMARK  5 active torsions:
REMARK  status: ('A' for Active; 'I' for Inactive)
REMARK    1  A    between atoms: C_1  and  O_2
REMARK    2  A    between atoms: O_2  and  C_3
REMARK    3  A    between atoms: C_3  and  C_5
REMARK    4  A    between atoms: C_5  and  N_6
REMARK    5  A    between atoms: N_9  and  C_10
REMARK                            x       y       z     vdW  Elec       q    Type
REMARK                         _______ _______ _______ _____ _____    ______ ____
ROOT
ATOM      1  C   UNL     1       8.945  13.502  22.515  0.00  0.00    +0.000 A 
ATOM      2  N   UNL     1       9.189  14.827  22.580  0.00  0.00    +0.000 NA
ATOM      3  C   UNL     1       9.938  15.394  21.639  0.00  0.00    +0.000 A 
ATOM      4  N   UNL     1      10.143  16.758  21.705  0.00  0.00    +0.000 N 
ATOM      5  N   UNL     1      10.522  14.742  20.641  0.00  0.00    +0.000 NA
ATOM      6  C   UNL     1      10.295  13.416  20.550  0.00  0.00    +0.000 A 
ATOM      7  C   UNL     1       9.477  12.743  21.462  0.00  0.00    +0.000 A 
ATOM      8  C   UNL     1       9.176  11.283  21.269  0.00  0.00    +0.000 C 
ATOM      9  C   UNL     1       9.474  10.720  19.891  0.00  0.00    +0.000 C 
ATOM     10  C   UNL     1      10.852  11.183  19.467  0.00  0.00    +0.000 C 
ATOM     11  C   UNL     1      10.878  12.716  19.316  0.00  0.00    +0.000 C 
ATOM     12  C   UNL     1      10.066  13.148  18.064  0.00  0.00    +0.000 C 
ATOM     13  C   UNL     1      10.881  14.261  17.426  0.00  0.00    +0.000 C 
ATOM     14  C   UNL     1      12.310  13.793  17.622  0.00  0.00    +0.000 C 
ATOM     15  C   UNL     1      12.333  13.168  19.015  0.00  0.00    +0.000 C 
ATOM     16  H   UNL     1      10.043  17.072  22.659  0.00  0.00    +0.000 HD
ATOM     17  H   UNL     1      10.996  16.995  21.218  0.00  0.00    +0.000 HD
ENDROOT
BRANCH   1  21
ATOM     18  C   UNL     1       6.085  13.000  25.510  0.00  0.00    +0.000 C 
ATOM     19  C   UNL     1       5.750  12.975  24.003  0.00  0.00    +0.000 C 
ATOM     20  C   UNL     1       6.860  12.266  23.222  0.00  0.00    +0.000 C 
ATOM     21  N   UNL     1       8.094  12.991  23.477  0.00  0.00    +0.000 N 
ATOM     22  C   UNL     1       8.563  12.881  24.862  0.00  0.00    +0.000 C 
ATOM     23  C   UNL     1       7.508  13.548  25.757  0.00  0.00    +0.000 C 
BRANCH  18  24
ATOM     24  N   UNL     1       5.113  13.881  26.217  0.00  0.00    +0.000 NA
ATOM     25  H   UNL     1       4.844  13.435  27.096  0.00  0.00    +0.000 HD
ATOM     26  H   UNL     1       4.260  13.957  25.662  0.00  0.00    +0.000 HD
ENDBRANCH  18  24
BRANCH  18  27
ATOM     27  C   UNL     1       5.939  11.568  26.081  0.00  0.00    +0.000 C 
ATOM     28  O   UNL     1       6.741  11.013  26.821  0.00  0.00    +0.000 OA
BRANCH  27  30
ATOM     29  C   UNL     1       4.191  10.077  26.536  0.00  0.00    +0.000 C 
ATOM     30  O   UNL     1       4.794  10.983  25.614  0.00  0.00    +0.000 OA
ENDBRANCH  27  30
ENDBRANCH  18  27
ENDBRANCH   1  21
TORSDOF 4
ENDMDL
MODEL 9
REMARK VINA RESULT:      -6.4      5.329     10.962
REMARK  Name = 
REMARK  5 active torsions:
REMARK  status: ('A' for Active; 'I' for Inactive)
REMARK    1  A    between atoms: C_1  and  O_2
REMARK    2  A    between atoms: O_2  and  C_3
REMARK    3  A    between atoms: C_3  and  C_5
REMARK    4  A    between atoms: C_5  and  N_6
REMARK    5  A    between atoms: N_9  and  C_10
REMARK                            x       y       z     vdW  Elec       q    Type
REMARK                         _______ _______ _______ _____ _____    ______ ____
ROOT
ATOM      1  C   UNL     1      -2.438  12.903  22.137  0.00  0.00    +0.000 A 
ATOM      2  N   UNL     1      -3.201  12.130  22.937  0.00  0.00    +0.000 NA
ATOM      3  C   UNL     1      -3.978  12.710  23.848  0.00  0.00    +0.000 A 
ATOM      4  N   UNL     1      -4.778  11.901  24.630  0.00  0.00    +0.000 N 
ATOM      5  N   UNL     1      -4.032  14.016  24.076  0.00  0.00    +0.000 NA
ATOM      6  C   UNL     1      -3.280  14.814  23.290  0.00  0.00    +0.000 A 
ATOM      7  C   UNL     1      -2.475  14.299  22.271  0.00  0.00    +0.000 A 
ATOM      8  C   UNL     1      -1.726  15.230  21.358  0.00  0.00    +0.000 C 
ATOM      9  C   UNL     1      -2.186  16.677  21.364  0.00  0.00    +0.000 C 
ATOM     10  C   UNL     1      -2.345  17.128  22.801  0.00  0.00    +0.000 C 
ATOM     11  C   UNL     1      -3.462  16.324  23.493  0.00  0.00    +0.000 C 
ATOM     12  C   UNL     1      -4.851  16.741  22.938  0.00  0.00    +0.000 C 
ATOM     13  C   UNL     1      -5.766  16.788  24.151  0.00  0.00    +0.000 C 
ATOM     14  C   UNL     1      -4.870  17.358  25.233  0.00  0.00    +0.000 C 
ATOM     15  C   UNL     1      -3.507  16.714  24.996  0.00  0.00    +0.000 C 
ATOM     16  H   UNL     1      -4.376  10.977  24.689  0.00  0.00    +0.000 HD
ATOM     17  H   UNL     1      -4.995  12.376  25.494  0.00  0.00    +0.000 HD
ENDROOT
BRANCH   1  21
ATOM     18  C   UNL     1       0.135  11.900  19.011  0.00  0.00    +0.000 C 
ATOM     19  C   UNL     1       0.568  11.925  20.492  0.00  0.00    +0.000 C 
ATOM     20  C   UNL     1      -0.557  11.395  21.386  0.00  0.00    +0.000 C 
ATOM     21  N   UNL     1      -1.718  12.242  21.160  0.00  0.00    +0.000 N 
ATOM     22  C   UNL     1      -2.290  12.105  19.818  0.00  0.00    +0.000 C 
ATOM     23  C   UNL     1      -1.231  12.593  18.816  0.00  0.00    +0.000 C 
BRANCH  18  24
ATOM     24  N   UNL     1       1.148  12.619  18.188  0.00  0.00    +0.000 NA
ATOM     25  H   UNL     1       2.073  12.457  18.590  0.00  0.00    +0.000 HD
ATOM     26  H   UNL     1       0.981  13.624  18.250  0.00  0.00    +0.000 HD
ENDBRANCH  18  24
BRANCH  18  27
ATOM     27  C   UNL     1       0.081  10.429  18.528  0.00  0.00    +0.000 C 
ATOM     28  O   UNL     1      -0.826   9.928  17.875  0.00  0.00    +0.000 OA
BRANCH  27  30
ATOM     29  C   UNL     1       1.864   9.032  17.933  0.00  0.00    +0.000 C 
ATOM     30  O   UNL     1       1.181   9.743  18.965  0.00  0.00    +0.000 OA
ENDBRANCH  27  30
ENDBRANCH  18  27
ENDBRANCH   1  21
TORSDOF 4
ENDMDL
