MODEL 1
REMARK VINA RESULT:      -6.8      0.000      0.000
REMARK  Name = 
REMARK  8 active torsions:
REMARK  status: ('A' for Active; 'I' for Inactive)
REMARK    1  A    between atoms: C_1  and  C_2
REMARK    2  A    between atoms: C_2  and  C_3
REMARK    3  A    between atoms: C_4  and  C_5
REMARK    4  A    between atoms: C_5  and  C_6
REMARK    5  A    between atoms: C_12  and  C_13
REMARK    6  A    between atoms: C_13  and  C_14
REMARK    7  A    between atoms: C_14  and  O_16
REMARK    8  A    between atoms: O_16  and  C_17
REMARK                            x       y       z     vdW  Elec       q    Type
REMARK                         _______ _______ _______ _____ _____    ______ ____
ROOT
ATOM      1  C   UNL     1       5.382   4.319  18.382  0.00  0.00    +0.000 C 
ATOM      2  C   UNL     1       4.475   3.404  19.173  0.00  0.00    +0.000 C 
ATOM      3  O   UNL     1       4.868   2.587  19.994  0.00  0.00    +0.000 OA
ATOM      4  C   UNL     1       3.054   3.674  18.865  0.00  0.00    +0.000 C 
ATOM      5  I   UNL     1       1.499   2.989  19.891  0.00  0.00    +0.000 I 
ATOM      6  C   UNL     1       3.067   4.483  17.804  0.00  0.00    +0.000 C 
ATOM      7  C   UNL     1       4.438   4.791  17.257  0.00  0.00    +0.000 C 
ENDROOT
BRANCH   1   8
ATOM      8  C   UNL     1       5.832   5.445  19.325  0.00  0.00    +0.000 C 
BRANCH   8  10
ATOM      9  C   UNL     1       8.035   6.477  18.672  0.00  0.00    +0.000 C 
ATOM     10  C   UNL     1       7.323   5.608  19.411  0.00  0.00    +0.000 C 
BRANCH   9  12
ATOM     11  C   UNL     1       8.015   8.838  17.855  0.00  0.00    +0.000 C 
ATOM     12  C   UNL     1       7.489   7.427  17.642  0.00  0.00    +0.000 C 
ENDBRANCH   9  12
ENDBRANCH   8  10
ENDBRANCH   1   8
BRANCH   7  13
ATOM     13  C   UNL     1       4.707   4.029  15.949  0.00  0.00    +0.000 C 
BRANCH  13  14
ATOM     14  C   UNL     1       5.713   4.745  15.081  0.00  0.00    +0.000 C 
ATOM     15  O   UNL     1       5.800   5.961  14.976  0.00  0.00    +0.000 OA
BRANCH  14  16
ATOM     16  O   UNL     1       6.508   3.843  14.444  0.00  0.00    +0.000 OA
ATOM     17  C   UNL     1       6.177   3.651  13.067  0.00  0.00    +0.000 C 
ENDBRANCH  14  16
ENDBRANCH  13  14
ENDBRANCH   7  13
TORSDOF 6
ENDMDL
MODEL 2
REMARK VINA RESULT:      -6.5      1.564      2.191
REMARK  Name = 
REMARK  8 active torsions:
REMARK  status: ('A' for Active; 'I' for Inactive)
REMARK    1  A    between atoms: C_1  and  C_2
REMARK    2  A    between atoms: C_2  and  C_3
REMARK    3  A    between atoms: C_4  and  C_5
REMARK    4  A    between atoms: C_5  and  C_6
REMARK    5  A    between atoms: C_12  and  C_13
REMARK    6  A    between atoms: C_13  and  C_14
REMARK    7  A    between atoms: C_14  and  O_16
REMARK    8  A    between atoms: O_16  and  C_17
REMARK                            x       y       z     vdW  Elec       q    Type
REMARK                         _______ _______ _______ _____ _____    ______ ____
ROOT
ATOM      1  C   UNL     1       6.771   5.336  17.557  0.00  0.00    +0.000 C 
ATOM      2  C   UNL     1       5.721   4.982  18.586  0.00  0.00    +0.000 C 
ATOM      3  O   UNL     1       5.946   4.352  19.610  0.00  0.00    +0.000 OA
ATOM      4  C   UNL     1       4.407   5.552  18.216  0.00  0.00    +0.000 C 
ATOM      5  I   UNL     1       2.820   5.661  19.403  0.00  0.00    +0.000 I 
ATOM      6  C   UNL     1       4.548   5.989  16.963  0.00  0.00    +0.000 C 
ATOM      7  C   UNL     1       5.897   5.723  16.346  0.00  0.00    +0.000 C 
ENDROOT
BRANCH   1   8
ATOM      8  C   UNL     1       7.593   6.503  18.125  0.00  0.00    +0.000 C 
BRANCH   8  10
ATOM      9  C   UNL     1       8.038   8.943  17.681  0.00  0.00    +0.000 C 
ATOM     10  C   UNL     1       7.481   7.771  17.326  0.00  0.00    +0.000 C 
BRANCH   9  12
ATOM     11  C   UNL     1       9.387  10.627  18.940  0.00  0.00    +0.000 C 
ATOM     12  C   UNL     1       8.856   9.202  18.916  0.00  0.00    +0.000 C 
ENDBRANCH   9  12
ENDBRANCH   8  10
ENDBRANCH   1   8
BRANCH   7  13
ATOM     13  C   UNL     1       5.831   4.579  15.320  0.00  0.00    +0.000 C 
BRANCH  13  14
ATOM     14  C   UNL     1       6.880   4.732  14.244  0.00  0.00    +0.000 C 
ATOM     15  O   UNL     1       7.749   5.593  14.237  0.00  0.00    +0.000 OA
BRANCH  14  16
ATOM     16  O   UNL     1       6.720   3.770  13.295  0.00  0.00    +0.000 OA
ATOM     17  C   UNL     1       5.386   3.670  12.793  0.00  0.00    +0.000 C 
ENDBRANCH  14  16
ENDBRANCH  13  14
ENDBRANCH   7  13
TORSDOF 6
ENDMDL
MODEL 3
REMARK VINA RESULT:      -6.5      2.695      5.884
REMARK  Name = 
REMARK  8 active torsions:
REMARK  status: ('A' for Active; 'I' for Inactive)
REMARK    1  A    between atoms: C_1  and  C_2
REMARK    2  A    between atoms: C_2  and  C_3
REMARK    3  A    between atoms: C_4  and  C_5
REMARK    4  A    between atoms: C_5  and  C_6
REMARK    5  A    between atoms: C_12  and  C_13
REMARK    6  A    between atoms: C_13  and  C_14
REMARK    7  A    between atoms: C_14  and  O_16
REMARK    8  A    between atoms: O_16  and  C_17
REMARK                            x       y       z     vdW  Elec       q    Type
REMARK                         _______ _______ _______ _____ _____    ______ ____
ROOT
ATOM      1  C   UNL     1       5.581   3.971  15.377  0.00  0.00    +0.000 C 
ATOM      2  C   UNL     1       6.725   4.710  16.033  0.00  0.00    +0.000 C 
ATOM      3  O   UNL     1       7.907   4.475  15.821  0.00  0.00    +0.000 OA
ATOM      4  C   UNL     1       6.224   5.788  16.912  0.00  0.00    +0.000 C 
ATOM      5  I   UNL     1       7.322   7.240  17.703  0.00  0.00    +0.000 I 
ATOM      6  C   UNL     1       4.908   5.584  17.010  0.00  0.00    +0.000 C 
ATOM      7  C   UNL     1       4.400   4.361  16.290  0.00  0.00    +0.000 C 
ENDROOT
BRANCH   1   8
ATOM      8  C   UNL     1       5.455   4.503  13.942  0.00  0.00    +0.000 C 
BRANCH   8  10
ATOM      9  C   UNL     1       5.384   3.036  11.895  0.00  0.00    +0.000 C 
ATOM     10  C   UNL     1       6.067   3.605  12.904  0.00  0.00    +0.000 C 
BRANCH   9  12
ATOM     11  C   UNL     1       3.663   3.832  10.268  0.00  0.00    +0.000 C 
ATOM     12  C   UNL     1       3.913   3.183  11.621  0.00  0.00    +0.000 C 
ENDBRANCH   9  12
ENDBRANCH   8  10
ENDBRANCH   1   8
BRANCH   7  13
ATOM     13  C   UNL     1       4.059   3.229  17.274  0.00  0.00    +0.000 C 
BRANCH  13  14
ATOM     14  C   UNL     1       2.716   3.443  17.930  0.00  0.00    +0.000 C 
ATOM     15  O   UNL     1       1.647   3.461  17.335  0.00  0.00    +0.000 OA
BRANCH  14  16
ATOM     16  O   UNL     1       2.871   3.603  19.272  0.00  0.00    +0.000 OA
ATOM     17  C   UNL     1       3.819   2.707  19.855  0.00  0.00    +0.000 C 
ENDBRANCH  14  16
ENDBRANCH  13  14
ENDBRANCH   7  13
TORSDOF 6
ENDMDL
MODEL 4
REMARK VINA RESULT:      -6.4      2.527      4.286
REMARK  Name = 
REMARK  8 active torsions:
REMARK  status: ('A' for Active; 'I' for Inactive)
REMARK    1  A    between atoms: C_1  and  C_2
REMARK    2  A    between atoms: C_2  and  C_3
REMARK    3  A    between atoms: C_4  and  C_5
REMARK    4  A    between atoms: C_5  and  C_6
REMARK    5  A    between atoms: C_12  and  C_13
REMARK    6  A    between atoms: C_13  and  C_14
REMARK    7  A    between atoms: C_14  and  O_16
REMARK    8  A    between atoms: O_16  and  C_17
REMARK                            x       y       z     vdW  Elec       q    Type
REMARK                         _______ _______ _______ _____ _____    ______ ____
ROOT
ATOM      1  C   UNL     1       3.732   3.118  17.376  0.00  0.00    +0.000 C 
ATOM      2  C   UNL     1       2.723   4.235  17.511  0.00  0.00    +0.000 C 
ATOM      3  O   UNL     1       1.548   4.145  17.183  0.00  0.00    +0.000 OA
ATOM      4  C   UNL     1       3.332   5.424  18.147  0.00  0.00    +0.000 C 
ATOM      5  I   UNL     1       2.343   6.994  18.850  0.00  0.00    +0.000 I 
ATOM      6  C   UNL     1       4.645   5.182  18.167  0.00  0.00    +0.000 C 
ATOM      7  C   UNL     1       5.062   3.885  17.522  0.00  0.00    +0.000 C 
ENDROOT
BRANCH   1   8
ATOM      8  C   UNL     1       3.465   2.121  18.513  0.00  0.00    +0.000 C 
BRANCH   8  10
ATOM      9  C   UNL     1       3.226   2.753  20.940  0.00  0.00    +0.000 C 
ATOM     10  C   UNL     1       3.989   2.566  19.850  0.00  0.00    +0.000 C 
BRANCH   9  12
ATOM     11  C   UNL     1       0.988   3.832  20.673  0.00  0.00    +0.000 C 
ATOM     12  C   UNL     1       1.737   2.558  21.030  0.00  0.00    +0.000 C 
ENDBRANCH   9  12
ENDBRANCH   8  10
ENDBRANCH   1   8
BRANCH   7  13
ATOM     13  C   UNL     1       5.720   4.124  16.153  0.00  0.00    +0.000 C 
BRANCH  13  14
ATOM     14  C   UNL     1       7.145   4.602  16.292  0.00  0.00    +0.000 C 
ATOM     15  O   UNL     1       7.848   4.415  17.276  0.00  0.00    +0.000 OA
BRANCH  14  16
ATOM     16  O   UNL     1       7.532   5.258  15.165  0.00  0.00    +0.000 OA
ATOM     17  C   UNL     1       6.893   4.789  13.976  0.00  0.00    +0.000 C 
ENDBRANCH  14  16
ENDBRANCH  13  14
ENDBRANCH   7  13
TORSDOF 6
ENDMDL
MODEL 5
REMARK VINA RESULT:      -6.3      2.669      5.597
REMARK  Name = 
REMARK  8 active torsions:
REMARK  status: ('A' for Active; 'I' for Inactive)
REMARK    1  A    between atoms: C_1  and  C_2
REMARK    2  A    between atoms: C_2  and  C_3
REMARK    3  A    between atoms: C_4  and  C_5
REMARK    4  A    between atoms: C_5  and  C_6
REMARK    5  A    between atoms: C_12  and  C_13
REMARK    6  A    between atoms: C_13  and  C_14
REMARK    7  A    between atoms: C_14  and  O_16
REMARK    8  A    between atoms: O_16  and  C_17
REMARK                            x       y       z     vdW  Elec       q    Type
REMARK                         _______ _______ _______ _____ _____    ______ ____
ROOT
ATOM      1  C   UNL     1       5.502   4.071  16.139  0.00  0.00    +0.000 C 
ATOM      2  C   UNL     1       6.727   4.846  16.566  0.00  0.00    +0.000 C 
ATOM      3  O   UNL     1       7.876   4.506  16.321  0.00  0.00    +0.000 OA
ATOM      4  C   UNL     1       6.347   6.094  17.262  0.00  0.00    +0.000 C 
ATOM      5  I   UNL     1       7.572   7.596  17.694  0.00  0.00    +0.000 I 
ATOM      6  C   UNL     1       5.036   5.991  17.487  0.00  0.00    +0.000 C 
ATOM      7  C   UNL     1       4.415   4.691  17.043  0.00  0.00    +0.000 C 
ENDROOT
BRANCH   1   8
ATOM      8  C   UNL     1       5.288   4.340  14.643  0.00  0.00    +0.000 C 
BRANCH   8  10
ATOM      9  C   UNL     1       6.596   3.695  12.588  0.00  0.00    +0.000 C 
ATOM     10  C   UNL     1       6.541   4.231  13.819  0.00  0.00    +0.000 C 
BRANCH   9  12
ATOM     11  C   UNL     1       5.728   1.686  11.383  0.00  0.00    +0.000 C 
ATOM     12  C   UNL     1       5.442   3.115  11.817  0.00  0.00    +0.000 C 
ENDBRANCH   9  12
ENDBRANCH   8  10
ENDBRANCH   1   8
BRANCH   7  13
ATOM     13  C   UNL     1       4.100   3.779  18.241  0.00  0.00    +0.000 C 
BRANCH  13  14
ATOM     14  C   UNL     1       3.305   2.565  17.825  0.00  0.00    +0.000 C 
ATOM     15  O   UNL     1       3.706   1.412  17.901  0.00  0.00    +0.000 OA
BRANCH  14  16
ATOM     16  O   UNL     1       2.081   2.942  17.366  0.00  0.00    +0.000 OA
ATOM     17  C   UNL     1       1.180   3.356  18.394  0.00  0.00    +0.000 C 
ENDBRANCH  14  16
ENDBRANCH  13  14
ENDBRANCH   7  13
TORSDOF 6
ENDMDL
MODEL 6
REMARK VINA RESULT:      -6.2      2.641      4.269
REMARK  Name = 
REMARK  8 active torsions:
REMARK  status: ('A' for Active; 'I' for Inactive)
REMARK    1  A    between atoms: C_1  and  C_2
REMARK    2  A    between atoms: C_2  and  C_3
REMARK    3  A    between atoms: C_4  and  C_5
REMARK    4  A    between atoms: C_5  and  C_6
REMARK    5  A    between atoms: C_12  and  C_13
REMARK    6  A    between atoms: C_13  and  C_14
REMARK    7  A    between atoms: C_14  and  O_16
REMARK    8  A    between atoms: O_16  and  C_17
REMARK                            x       y       z     vdW  Elec       q    Type
REMARK                         _______ _______ _______ _____ _____    ______ ____
ROOT
ATOM      1  C   UNL     1       3.700   3.498  17.359  0.00  0.00    +0.000 C 
ATOM      2  C   UNL     1       2.665   4.589  17.499  0.00  0.00    +0.000 C 
ATOM      3  O   UNL     1       1.458   4.408  17.416  0.00  0.00    +0.000 OA
ATOM      4  C   UNL     1       3.303   5.887  17.811  0.00  0.00    +0.000 C 
ATOM      5  I   UNL     1       2.360   7.521  18.426  0.00  0.00    +0.000 I 
ATOM      6  C   UNL     1       4.611   5.693  17.624  0.00  0.00    +0.000 C 
ATOM      7  C   UNL     1       4.985   4.320  17.128  0.00  0.00    +0.000 C 
ENDROOT
BRANCH   1   8
ATOM      8  C   UNL     1       3.704   2.699  18.671  0.00  0.00    +0.000 C 
BRANCH   8  10
ATOM      9  C   UNL     1       1.759   2.306  20.222  0.00  0.00    +0.000 C 
ATOM     10  C   UNL     1       2.366   2.122  19.037  0.00  0.00    +0.000 C 
BRANCH   9  12
ATOM     11  C   UNL     1       2.097   4.596  21.163  0.00  0.00    +0.000 C 
ATOM     12  C   UNL     1       2.290   3.103  21.381  0.00  0.00    +0.000 C 
ENDBRANCH   9  12
ENDBRANCH   8  10
ENDBRANCH   1   8
BRANCH   7  13
ATOM     13  C   UNL     1       5.371   4.345  15.640  0.00  0.00    +0.000 C 
BRANCH  13  14
ATOM     14  C   UNL     1       6.855   4.545  15.449  0.00  0.00    +0.000 C 
ATOM     15  O   UNL     1       7.657   4.709  16.358  0.00  0.00    +0.000 OA
BRANCH  14  16
ATOM     16  O   UNL     1       7.166   4.505  14.125  0.00  0.00    +0.000 OA
ATOM     17  C   UNL     1       6.194   3.833  13.323  0.00  0.00    +0.000 C 
ENDBRANCH  14  16
ENDBRANCH  13  14
ENDBRANCH   7  13
TORSDOF 6
ENDMDL
MODEL 7
REMARK VINA RESULT:      -6.2      2.686      5.815
REMARK  Name = 
REMARK  8 active torsions:
REMARK  status: ('A' for Active; 'I' for Inactive)
REMARK    1  A    between atoms: C_1  and  C_2
REMARK    2  A    between atoms: C_2  and  C_3
REMARK    3  A    between atoms: C_4  and  C_5
REMARK    4  A    between atoms: C_5  and  C_6
REMARK    5  A    between atoms: C_12  and  C_13
REMARK    6  A    between atoms: C_13  and  C_14
REMARK    7  A    between atoms: C_14  and  O_16
REMARK    8  A    between atoms: O_16  and  C_17
REMARK                            x       y       z     vdW  Elec       q    Type
REMARK                         _______ _______ _______ _____ _____    ______ ____
ROOT
ATOM      1  C   UNL     1       5.537   3.993  15.776  0.00  0.00    +0.000 C 
ATOM      2  C   UNL     1       6.722   4.776  16.294  0.00  0.00    +0.000 C 
ATOM      3  O   UNL     1       7.888   4.498  16.053  0.00  0.00    +0.000 OA
ATOM      4  C   UNL     1       6.278   5.951  17.074  0.00  0.00    +0.000 C 
ATOM      5  I   UNL     1       7.434   7.458  17.651  0.00  0.00    +0.000 I 
ATOM      6  C   UNL     1       4.967   5.783  17.255  0.00  0.00    +0.000 C 
ATOM      7  C   UNL     1       4.407   4.500  16.696  0.00  0.00    +0.000 C 
ENDROOT
BRANCH   1   8
ATOM      8  C   UNL     1       5.348   4.370  14.300  0.00  0.00    +0.000 C 
BRANCH   8  10
ATOM      9  C   UNL     1       6.636   3.465  12.332  0.00  0.00    +0.000 C 
ATOM     10  C   UNL     1       6.584   4.191  13.463  0.00  0.00    +0.000 C 
BRANCH   9  12
ATOM     11  C   UNL     1       5.935   1.332  11.237  0.00  0.00    +0.000 C 
ATOM     12  C   UNL     1       5.496   2.711  11.705  0.00  0.00    +0.000 C 
ENDBRANCH   9  12
ENDBRANCH   8  10
ENDBRANCH   1   8
BRANCH   7  13
ATOM     13  C   UNL     1       4.099   3.487  17.811  0.00  0.00    +0.000 C 
BRANCH  13  14
ATOM     14  C   UNL     1       2.627   3.452  18.144  0.00  0.00    +0.000 C 
ATOM     15  O   UNL     1       1.727   3.442  17.316  0.00  0.00    +0.000 OA
BRANCH  14  16
ATOM     16  O   UNL     1       2.453   3.424  19.493  0.00  0.00    +0.000 OA
ATOM     17  C   UNL     1       2.835   4.634  20.151  0.00  0.00    +0.000 C 
ENDBRANCH  14  16
ENDBRANCH  13  14
ENDBRANCH   7  13
TORSDOF 6
ENDMDL
MODEL 8
REMARK VINA RESULT:      -6.1      2.016      4.468
REMARK  Name = 
REMARK  8 active torsions:
REMARK  status: ('A' for Active; 'I' for Inactive)
REMARK    1  A    between atoms: C_1  and  C_2
REMARK    2  A    between atoms: C_2  and  C_3
REMARK    3  A    between atoms: C_4  and  C_5
REMARK    4  A    between atoms: C_5  and  C_6
REMARK    5  A    between atoms: C_12  and  C_13
REMARK    6  A    between atoms: C_13  and  C_14
REMARK    7  A    between atoms: C_14  and  O_16
REMARK    8  A    between atoms: O_16  and  C_17
REMARK                            x       y       z     vdW  Elec       q    Type
REMARK                         _______ _______ _______ _____ _____    ______ ____
ROOT
ATOM      1  C   UNL     1       4.610   5.055  17.407  0.00  0.00    +0.000 C 
ATOM      2  C   UNL     1       3.260   4.889  18.065  0.00  0.00    +0.000 C 
ATOM      3  O   UNL     1       2.251   5.492  17.729  0.00  0.00    +0.000 OA
ATOM      4  C   UNL     1       3.312   3.857  19.124  0.00  0.00    +0.000 C 
ATOM      5  I   UNL     1       1.741   3.040  20.021  0.00  0.00    +0.000 I 
ATOM      6  C   UNL     1       4.609   3.592  19.299  0.00  0.00    +0.000 C 
ATOM      7  C   UNL     1       5.546   4.421  18.457  0.00  0.00    +0.000 C 
ENDROOT
BRANCH   1   8
ATOM      8  C   UNL     1       4.567   4.292  16.075  0.00  0.00    +0.000 C 
BRANCH   8  10
ATOM      9  C   UNL     1       6.200   3.710  14.247  0.00  0.00    +0.000 C 
ATOM     10  C   UNL     1       5.923   3.913  15.546  0.00  0.00    +0.000 C 
BRANCH   9  12
ATOM     11  C   UNL     1       5.695   3.003  11.904  0.00  0.00    +0.000 C 
ATOM     12  C   UNL     1       5.231   3.817  13.101  0.00  0.00    +0.000 C 
ENDBRANCH   9  12
ENDBRANCH   8  10
ENDBRANCH   1   8
BRANCH   7  13
ATOM     13  C   UNL     1       6.252   5.498  19.296  0.00  0.00    +0.000 C 
BRANCH  13  14
ATOM     14  C   UNL     1       7.713   5.620  18.936  0.00  0.00    +0.000 C 
ATOM     15  O   UNL     1       8.479   4.674  18.808  0.00  0.00    +0.000 OA
BRANCH  14  16
ATOM     16  O   UNL     1       8.046   6.928  18.766  0.00  0.00    +0.000 OA
ATOM     17  C   UNL     1       7.606   7.480  17.524  0.00  0.00    +0.000 C 
ENDBRANCH  14  16
ENDBRANCH  13  14
ENDBRANCH   7  13
TORSDOF 6
ENDMDL
MODEL 9
REMARK VINA RESULT:      -6.1      2.705      5.563
REMARK  Name = 
REMARK  8 active torsions:
REMARK  status: ('A' for Active; 'I' for Inactive)
REMARK    1  A    between atoms: C_1  and  C_2
REMARK    2  A    between atoms: C_2  and  C_3
REMARK    3  A    between atoms: C_4  and  C_5
REMARK    4  A    between atoms: C_5  and  C_6
REMARK    5  A    between atoms: C_12  and  C_13
REMARK    6  A    between atoms: C_13  and  C_14
REMARK    7  A    between atoms: C_14  and  O_16
REMARK    8  A    between atoms: O_16  and  C_17
REMARK                            x       y       z     vdW  Elec       q    Type
REMARK                         _______ _______ _______ _____ _____    ______ ____
ROOT
ATOM      1  C   UNL     1       4.877   4.476  16.851  0.00  0.00    +0.000 C 
ATOM      2  C   UNL     1       4.693   5.889  17.355  0.00  0.00    +0.000 C 
ATOM      3  O   UNL     1       5.576   6.735  17.369  0.00  0.00    +0.000 OA
ATOM      4  C   UNL     1       3.292   6.124  17.767  0.00  0.00    +0.000 C 
ATOM      5  I   UNL     1       2.484   7.895  18.159  0.00  0.00    +0.000 I 
ATOM      6  C   UNL     1       2.716   4.920  17.775  0.00  0.00    +0.000 C 
ATOM      7  C   UNL     1       3.637   3.774  17.442  0.00  0.00    +0.000 C 
ENDROOT
BRANCH   1   8
ATOM      8  C   UNL     1       4.882   4.534  15.316  0.00  0.00    +0.000 C 
BRANCH   8  10
ATOM      9  C   UNL     1       6.397   3.812  13.438  0.00  0.00    +0.000 C 
ATOM     10  C   UNL     1       6.221   4.241  14.699  0.00  0.00    +0.000 C 
BRANCH   9  12
ATOM     11  C   UNL     1       5.609   2.294  11.616  0.00  0.00    +0.000 C 
ATOM     12  C   UNL     1       5.315   3.546  12.427  0.00  0.00    +0.000 C 
ENDBRANCH   9  12
ENDBRANCH   8  10
ENDBRANCH   1   8
BRANCH   7  13
ATOM     13  C   UNL     1       4.002   2.963  18.697  0.00  0.00    +0.000 C 
BRANCH  13  14
ATOM     14  C   UNL     1       2.777   2.579  19.491  0.00  0.00    +0.000 C 
ATOM     15  O   UNL     1       1.885   1.847  19.084  0.00  0.00    +0.000 OA
BRANCH  14  16
ATOM     16  O   UNL     1       2.816   3.158  20.721  0.00  0.00    +0.000 OA
ATOM     17  C   UNL     1       1.706   2.820  21.555  0.00  0.00    +0.000 C 
ENDBRANCH  14  16
ENDBRANCH  13  14
ENDBRANCH   7  13
TORSDOF 6
ENDMDL
