MODEL 1
REMARK VINA RESULT:      -6.8      0.000      0.000
REMARK  Name = 
REMARK  7 active torsions:
REMARK  status: ('A' for Active; 'I' for Inactive)
REMARK    1  A    between atoms: C_2  and  C_3
REMARK    2  A    between atoms: N_9  and  C_10
REMARK    3  A    between atoms: C_10  and  C_11
REMARK    4  A    between atoms: C_12  and  O_13
REMARK    5  A    between atoms: C_15  and  O_16
REMARK    6  A    between atoms: C_21  and  C_22
REMARK    7  A    between atoms: C_25  and  O_26
REMARK                            x       y       z     vdW  Elec       q    Type
REMARK                         _______ _______ _______ _____ _____    ______ ____
ROOT
ATOM      1  C   UNL     1      -3.340  14.083  21.263  0.00  0.00    +0.000 A 
ATOM      2  C   UNL     1      -3.903  14.797  22.328  0.00  0.00    +0.000 A 
ATOM      3  C   UNL     1      -5.070  14.378  22.970  0.00  0.00    +0.000 A 
ATOM      4  C   UNL     1      -5.784  13.292  22.472  0.00  0.00    +0.000 A 
ATOM      5  C   UNL     1      -5.349  12.653  21.302  0.00  0.00    +0.000 A 
ATOM      6  C   UNL     1      -6.155  11.599  20.648  0.00  0.00    +0.000 A 
ATOM      7  O   UNL     1      -7.191  11.129  21.098  0.00  0.00    +0.000 OA
ATOM      8  C   UNL     1      -5.675  11.126  19.342  0.00  0.00    +0.000 A 
ATOM      9  C   UNL     1      -4.502  11.566  18.884  0.00  0.00    +0.000 A 
ATOM     10  O   UNL     1      -3.672  12.451  19.548  0.00  0.00    +0.000 OA
ATOM     11  C   UNL     1      -4.130  13.040  20.710  0.00  0.00    +0.000 A 
ENDROOT
BRANCH   9  12
ATOM     12  C   UNL     1      -4.006  11.121  17.577  0.00  0.00    +0.000 A 
ATOM     13  C   UNL     1      -4.603  11.591  16.397  0.00  0.00    +0.000 A 
ATOM     14  C   UNL     1      -4.133  11.171  15.141  0.00  0.00    +0.000 A 
ATOM     15  C   UNL     1      -3.061  10.295  15.083  0.00  0.00    +0.000 A 
ATOM     16  C   UNL     1      -2.469   9.802  16.247  0.00  0.00    +0.000 A 
ATOM     17  C   UNL     1      -2.941  10.216  17.494  0.00  0.00    +0.000 A 
BRANCH  15  18
ATOM     18  O   UNL     1      -2.552   9.872  13.893  0.00  0.00    +0.000 OA
ATOM     19  H   UNL     1      -1.620   9.633  14.019  0.00  0.00    +0.000 HD
ENDBRANCH  15  18
ENDBRANCH   9  12
BRANCH   2  20
ATOM     20  O   UNL     1      -3.391  15.972  22.801  0.00  0.00    +0.000 OA
ATOM     21  H   UNL     1      -3.057  16.479  22.035  0.00  0.00    +0.000 HD
ENDBRANCH   2  20
BRANCH   4  22
ATOM     22  O   UNL     1      -6.920  12.909  23.107  0.00  0.00    +0.000 OA
ATOM     23  H   UNL     1      -7.290  13.650  23.636  0.00  0.00    +0.000 HD
ENDBRANCH   4  22
BRANCH   1  24
ATOM     24  C   UNL     1      -1.953  14.378  20.691  0.00  0.00    +0.000 C 
BRANCH  24  30
ATOM     25  O   UNL     1       2.455  11.673  18.218  0.00  0.00    +0.000 OA
ATOM     26  C   UNL     1       1.416  11.217  18.694  0.00  0.00    +0.000 C 
ATOM     27  N   UNL     1       0.543  11.988  19.448  0.00  0.00    +0.000 N 
ATOM     28  C   UNL     1      -0.695  11.535  20.090  0.00  0.00    +0.000 C 
ATOM     29  C   UNL     1      -0.935  12.253  21.438  0.00  0.00    +0.000 C 
ATOM     30  N   UNL     1      -0.826  13.738  21.412  0.00  0.00    +0.000 NA
ATOM     31  C   UNL     1       0.492  14.063  20.804  0.00  0.00    +0.000 C 
ATOM     32  C   UNL     1       0.726  13.440  19.419  0.00  0.00    +0.000 C 
BRANCH  26  33
ATOM     33  C   UNL     1       1.041   9.808  18.371  0.00  0.00    +0.000 C 
ATOM     34  C   UNL     1       2.123   8.914  17.808  0.00  0.00    +0.000 C 
ATOM     35  C   UNL     1       1.590   8.657  19.186  0.00  0.00    +0.000 C 
ENDBRANCH  26  33
ENDBRANCH  24  30
ENDBRANCH   1  24
TORSDOF 7
ENDMDL
MODEL 2
REMARK VINA RESULT:      -6.8      3.632      6.938
REMARK  Name = 
REMARK  7 active torsions:
REMARK  status: ('A' for Active; 'I' for Inactive)
REMARK    1  A    between atoms: C_2  and  C_3
REMARK    2  A    between atoms: N_9  and  C_10
REMARK    3  A    between atoms: C_10  and  C_11
REMARK    4  A    between atoms: C_12  and  O_13
REMARK    5  A    between atoms: C_15  and  O_16
REMARK    6  A    between atoms: C_21  and  C_22
REMARK    7  A    between atoms: C_25  and  O_26
REMARK                            x       y       z     vdW  Elec       q    Type
REMARK                         _______ _______ _______ _____ _____    ______ ____
ROOT
ATOM      1  C   UNL     1       1.534  12.892  19.595  0.00  0.00    +0.000 A 
ATOM      2  C   UNL     1       2.231  13.241  18.431  0.00  0.00    +0.000 A 
ATOM      3  C   UNL     1       2.337  14.565  17.998  0.00  0.00    +0.000 A 
ATOM      4  C   UNL     1       1.630  15.568  18.653  0.00  0.00    +0.000 A 
ATOM      5  C   UNL     1       0.782  15.237  19.719  0.00  0.00    +0.000 A 
ATOM      6  C   UNL     1      -0.107  16.241  20.345  0.00  0.00    +0.000 A 
ATOM      7  O   UNL     1      -0.117  17.434  20.073  0.00  0.00    +0.000 OA
ATOM      8  C   UNL     1      -1.066  15.736  21.336  0.00  0.00    +0.000 A 
ATOM      9  C   UNL     1      -1.004  14.456  21.705  0.00  0.00    +0.000 A 
ATOM     10  O   UNL     1      -0.091  13.535  21.226  0.00  0.00    +0.000 OA
ATOM     11  C   UNL     1       0.744  13.909  20.192  0.00  0.00    +0.000 A 
ENDROOT
BRANCH   9  12
ATOM     12  C   UNL     1      -1.960  13.922  22.683  0.00  0.00    +0.000 A 
ATOM     13  C   UNL     1      -2.594  14.782  23.594  0.00  0.00    +0.000 A 
ATOM     14  C   UNL     1      -3.512  14.279  24.532  0.00  0.00    +0.000 A 
ATOM     15  C   UNL     1      -3.794  12.923  24.536  0.00  0.00    +0.000 A 
ATOM     16  C   UNL     1      -3.158  12.052  23.650  0.00  0.00    +0.000 A 
ATOM     17  C   UNL     1      -2.242  12.552  22.723  0.00  0.00    +0.000 A 
BRANCH  15  18
ATOM     18  O   UNL     1      -4.690  12.386  25.409  0.00  0.00    +0.000 OA
ATOM     19  H   UNL     1      -5.588  12.586  25.098  0.00  0.00    +0.000 HD
ENDBRANCH  15  18
ENDBRANCH   9  12
BRANCH   2  20
ATOM     20  O   UNL     1       2.825  12.329  17.607  0.00  0.00    +0.000 OA
ATOM     21  H   UNL     1       3.356  11.727  18.165  0.00  0.00    +0.000 HD
ENDBRANCH   2  20
BRANCH   4  22
ATOM     22  O   UNL     1       1.742  16.845  18.208  0.00  0.00    +0.000 OA
ATOM     23  H   UNL     1       0.881  17.313  18.273  0.00  0.00    +0.000 HD
ENDBRANCH   4  22
BRANCH   1  24
ATOM     24  C   UNL     1       1.588  11.498  20.223  0.00  0.00    +0.000 C 
BRANCH  24  30
ATOM     25  O   UNL     1       1.662   5.807  20.906  0.00  0.00    +0.000 OA
ATOM     26  C   UNL     1       1.975   6.488  19.930  0.00  0.00    +0.000 C 
ATOM     27  N   UNL     1       1.698   7.846  19.853  0.00  0.00    +0.000 N 
ATOM     28  C   UNL     1       1.990   8.737  18.726  0.00  0.00    +0.000 C 
ATOM     29  C   UNL     1       0.895   9.814  18.550  0.00  0.00    +0.000 C 
ATOM     30  N   UNL     1       0.522  10.567  19.780  0.00  0.00    +0.000 NA
ATOM     31  C   UNL     1       0.186   9.557  20.819  0.00  0.00    +0.000 C 
ATOM     32  C   UNL     1       1.292   8.524  21.085  0.00  0.00    +0.000 C 
BRANCH  26  33
ATOM     33  C   UNL     1       2.759   5.848  18.833  0.00  0.00    +0.000 C 
ATOM     34  C   UNL     1       2.968   4.352  18.913  0.00  0.00    +0.000 C 
ATOM     35  C   UNL     1       2.086   4.922  17.842  0.00  0.00    +0.000 C 
ENDBRANCH  26  33
ENDBRANCH  24  30
ENDBRANCH   1  24
TORSDOF 7
ENDMDL
MODEL 3
REMARK VINA RESULT:      -6.5      2.454      7.274
REMARK  Name = 
REMARK  7 active torsions:
REMARK  status: ('A' for Active; 'I' for Inactive)
REMARK    1  A    between atoms: C_2  and  C_3
REMARK    2  A    between atoms: N_9  and  C_10
REMARK    3  A    between atoms: C_10  and  C_11
REMARK    4  A    between atoms: C_12  and  O_13
REMARK    5  A    between atoms: C_15  and  O_16
REMARK    6  A    between atoms: C_21  and  C_22
REMARK    7  A    between atoms: C_25  and  O_26
REMARK                            x       y       z     vdW  Elec       q    Type
REMARK                         _______ _______ _______ _____ _____    ______ ____
ROOT
ATOM      1  C   UNL     1      -0.303  10.460  18.880  0.00  0.00    +0.000 A 
ATOM      2  C   UNL     1       0.818   9.670  18.595  0.00  0.00    +0.000 A 
ATOM      3  C   UNL     1       1.470   8.922  19.578  0.00  0.00    +0.000 A 
ATOM      4  C   UNL     1       1.093   9.050  20.911  0.00  0.00    +0.000 A 
ATOM      5  C   UNL     1       0.088   9.963  21.264  0.00  0.00    +0.000 A 
ATOM      6  C   UNL     1      -0.239  10.249  22.678  0.00  0.00    +0.000 A 
ATOM      7  O   UNL     1       0.245   9.668  23.640  0.00  0.00    +0.000 OA
ATOM      8  C   UNL     1      -1.190  11.342  22.919  0.00  0.00    +0.000 A 
ATOM      9  C   UNL     1      -1.790  11.921  21.879  0.00  0.00    +0.000 A 
ATOM     10  O   UNL     1      -1.594  11.574  20.555  0.00  0.00    +0.000 OA
ATOM     11  C   UNL     1      -0.611  10.653  20.253  0.00  0.00    +0.000 A 
ENDROOT
BRANCH   9  12
ATOM     12  C   UNL     1      -2.733  13.026  22.092  0.00  0.00    +0.000 A 
ATOM     13  C   UNL     1      -3.143  13.365  23.391  0.00  0.00    +0.000 A 
ATOM     14  C   UNL     1      -4.045  14.422  23.604  0.00  0.00    +0.000 A 
ATOM     15  C   UNL     1      -4.513  15.135  22.512  0.00  0.00    +0.000 A 
ATOM     16  C   UNL     1      -4.132  14.798  21.213  0.00  0.00    +0.000 A 
ATOM     17  C   UNL     1      -3.241  13.744  21.003  0.00  0.00    +0.000 A 
BRANCH  15  18
ATOM     18  O   UNL     1      -5.372  16.181  22.662  0.00  0.00    +0.000 OA
ATOM     19  H   UNL     1      -5.004  16.955  22.206  0.00  0.00    +0.000 HD
ENDBRANCH  15  18
ENDBRANCH   9  12
BRANCH   2  20
ATOM     20  O   UNL     1       1.389   9.593  17.357  0.00  0.00    +0.000 OA
ATOM     21  H   UNL     1       0.681   9.388  16.715  0.00  0.00    +0.000 HD
ENDBRANCH   2  20
BRANCH   4  22
ATOM     22  O   UNL     1       1.747   8.321  21.849  0.00  0.00    +0.000 OA
ATOM     23  H   UNL     1       2.667   8.647  21.965  0.00  0.00    +0.000 HD
ENDBRANCH   4  22
BRANCH   1  24
ATOM     24  C   UNL     1      -1.176  11.104  17.802  0.00  0.00    +0.000 C 
BRANCH  24  30
ATOM     25  O   UNL     1      -6.712  12.244  16.845  0.00  0.00    +0.000 OA
ATOM     26  C   UNL     1      -6.183  11.615  17.760  0.00  0.00    +0.000 C 
ATOM     27  N   UNL     1      -4.845  11.248  17.733  0.00  0.00    +0.000 N 
ATOM     28  C   UNL     1      -4.130  10.467  18.747  0.00  0.00    +0.000 C 
ATOM     29  C   UNL     1      -3.067   9.541  18.112  0.00  0.00    +0.000 C 
ATOM     30  N   UNL     1      -2.139  10.188  17.143  0.00  0.00    +0.000 NA
ATOM     31  C   UNL     1      -2.983  10.885  16.136  0.00  0.00    +0.000 C 
ATOM     32  C   UNL     1      -3.990  11.883  16.729  0.00  0.00    +0.000 C 
BRANCH  26  33
ATOM     33  C   UNL     1      -6.989  11.316  18.981  0.00  0.00    +0.000 C 
ATOM     34  C   UNL     1      -6.463  11.831  20.301  0.00  0.00    +0.000 C 
ATOM     35  C   UNL     1      -7.712  12.423  19.718  0.00  0.00    +0.000 C 
ENDBRANCH  26  33
ENDBRANCH  24  30
ENDBRANCH   1  24
TORSDOF 7
ENDMDL
MODEL 4
REMARK VINA RESULT:      -6.5      4.256      6.088
REMARK  Name = 
REMARK  7 active torsions:
REMARK  status: ('A' for Active; 'I' for Inactive)
REMARK    1  A    between atoms: C_2  and  C_3
REMARK    2  A    between atoms: N_9  and  C_10
REMARK    3  A    between atoms: C_10  and  C_11
REMARK    4  A    between atoms: C_12  and  O_13
REMARK    5  A    between atoms: C_15  and  O_16
REMARK    6  A    between atoms: C_21  and  C_22
REMARK    7  A    between atoms: C_25  and  O_26
REMARK                            x       y       z     vdW  Elec       q    Type
REMARK                         _______ _______ _______ _____ _____    ______ ____
ROOT
ATOM      1  C   UNL     1       0.623  13.756  20.287  0.00  0.00    +0.000 A 
ATOM      2  C   UNL     1      -0.206  14.788  20.748  0.00  0.00    +0.000 A 
ATOM      3  C   UNL     1      -1.049  14.628  21.850  0.00  0.00    +0.000 A 
ATOM      4  C   UNL     1      -1.182  13.378  22.446  0.00  0.00    +0.000 A 
ATOM      5  C   UNL     1      -0.502  12.276  21.908  0.00  0.00    +0.000 A 
ATOM      6  C   UNL     1      -0.732  10.902  22.408  0.00  0.00    +0.000 A 
ATOM      7  O   UNL     1      -1.435  10.614  23.366  0.00  0.00    +0.000 OA
ATOM      8  C   UNL     1      -0.088   9.818  21.654  0.00  0.00    +0.000 A 
ATOM      9  C   UNL     1       0.750  10.125  20.663  0.00  0.00    +0.000 A 
ATOM     10  O   UNL     1       1.079  11.410  20.271  0.00  0.00    +0.000 OA
ATOM     11  C   UNL     1       0.402  12.468  20.843  0.00  0.00    +0.000 A 
ENDROOT
BRANCH   9  12
ATOM     12  C   UNL     1       1.395   9.061  19.885  0.00  0.00    +0.000 A 
ATOM     13  C   UNL     1       1.703   7.831  20.489  0.00  0.00    +0.000 A 
ATOM     14  C   UNL     1       2.319   6.807  19.751  0.00  0.00    +0.000 A 
ATOM     15  C   UNL     1       2.606   7.022  18.413  0.00  0.00    +0.000 A 
ATOM     16  C   UNL     1       2.325   8.245  17.802  0.00  0.00    +0.000 A 
ATOM     17  C   UNL     1       1.718   9.264  18.539  0.00  0.00    +0.000 A 
BRANCH  15  18
ATOM     18  O   UNL     1       3.184   6.056  17.645  0.00  0.00    +0.000 OA
ATOM     19  H   UNL     1       2.516   5.697  17.040  0.00  0.00    +0.000 HD
ENDBRANCH  15  18
ENDBRANCH   9  12
BRANCH   2  20
ATOM     20  O   UNL     1      -0.293  16.010  20.145  0.00  0.00    +0.000 OA
ATOM     21  H   UNL     1      -0.098  15.886  19.195  0.00  0.00    +0.000 HD
ENDBRANCH   2  20
BRANCH   4  22
ATOM     22  O   UNL     1      -2.014  13.246  23.510  0.00  0.00    +0.000 OA
ATOM     23  H   UNL     1      -2.133  12.299  23.743  0.00  0.00    +0.000 HD
ENDBRANCH   4  22
BRANCH   1  24
ATOM     24  C   UNL     1       1.717  13.960  19.239  0.00  0.00    +0.000 C 
BRANCH  24  30
ATOM     25  O   UNL     1       7.109  15.191  17.731  0.00  0.00    +0.000 OA
ATOM     26  C   UNL     1       6.618  15.038  18.849  0.00  0.00    +0.000 C 
ATOM     27  N   UNL     1       5.248  14.953  19.053  0.00  0.00    +0.000 N 
ATOM     28  C   UNL     1       4.561  14.812  20.340  0.00  0.00    +0.000 C 
ATOM     29  C   UNL     1       3.218  15.576  20.358  0.00  0.00    +0.000 C 
ATOM     30  N   UNL     1       2.310  15.320  19.206  0.00  0.00    +0.000 NA
ATOM     31  C   UNL     1       3.102  15.560  17.970  0.00  0.00    +0.000 C 
ATOM     32  C   UNL     1       4.401  14.745  17.877  0.00  0.00    +0.000 C 
BRANCH  26  33
ATOM     33  C   UNL     1       7.535  14.849  20.012  0.00  0.00    +0.000 C 
ATOM     34  C   UNL     1       8.988  15.218  19.816  0.00  0.00    +0.000 C 
ATOM     35  C   UNL     1       8.129  16.042  20.729  0.00  0.00    +0.000 C 
ENDBRANCH  26  33
ENDBRANCH  24  30
ENDBRANCH   1  24
TORSDOF 7
ENDMDL
MODEL 5
REMARK VINA RESULT:      -6.5      3.206      4.799
REMARK  Name = 
REMARK  7 active torsions:
REMARK  status: ('A' for Active; 'I' for Inactive)
REMARK    1  A    between atoms: C_2  and  C_3
REMARK    2  A    between atoms: N_9  and  C_10
REMARK    3  A    between atoms: C_10  and  C_11
REMARK    4  A    between atoms: C_12  and  O_13
REMARK    5  A    between atoms: C_15  and  O_16
REMARK    6  A    between atoms: C_21  and  C_22
REMARK    7  A    between atoms: C_25  and  O_26
REMARK                            x       y       z     vdW  Elec       q    Type
REMARK                         _______ _______ _______ _____ _____    ______ ____
ROOT
ATOM      1  C   UNL     1      -2.837  13.261  22.077  0.00  0.00    +0.000 A 
ATOM      2  C   UNL     1      -3.476  12.799  23.235  0.00  0.00    +0.000 A 
ATOM      3  C   UNL     1      -4.378  13.589  23.951  0.00  0.00    +0.000 A 
ATOM      4  C   UNL     1      -4.567  14.921  23.597  0.00  0.00    +0.000 A 
ATOM      5  C   UNL     1      -3.817  15.474  22.550  0.00  0.00    +0.000 A 
ATOM      6  C   UNL     1      -3.866  16.920  22.239  0.00  0.00    +0.000 A 
ATOM      7  O   UNL     1      -4.611  17.727  22.777  0.00  0.00    +0.000 OA
ATOM      8  C   UNL     1      -2.911  17.403  21.232  0.00  0.00    +0.000 A 
ATOM      9  C   UNL     1      -2.157  16.521  20.576  0.00  0.00    +0.000 A 
ATOM     10  O   UNL     1      -2.195  15.151  20.762  0.00  0.00    +0.000 OA
ATOM     11  C   UNL     1      -2.966  14.646  21.790  0.00  0.00    +0.000 A 
ENDROOT
BRANCH   9  12
ATOM     12  C   UNL     1      -1.186  16.979  19.576  0.00  0.00    +0.000 A 
ATOM     13  C   UNL     1      -1.576  17.876  18.570  0.00  0.00    +0.000 A 
ATOM     14  C   UNL     1      -0.652  18.320  17.609  0.00  0.00    +0.000 A 
ATOM     15  C   UNL     1       0.657  17.871  17.678  0.00  0.00    +0.000 A 
ATOM     16  C   UNL     1       1.057  16.964  18.660  0.00  0.00    +0.000 A 
ATOM     17  C   UNL     1       0.136  16.519  19.610  0.00  0.00    +0.000 A 
BRANCH  15  18
ATOM     18  O   UNL     1       1.599  18.286  16.786  0.00  0.00    +0.000 OA
ATOM     19  H   UNL     1       2.460  18.315  17.232  0.00  0.00    +0.000 HD
ENDBRANCH  15  18
ENDBRANCH   9  12
BRANCH   2  20
ATOM     20  O   UNL     1      -3.247  11.569  23.782  0.00  0.00    +0.000 OA
ATOM     21  H   UNL     1      -3.256  11.670  24.754  0.00  0.00    +0.000 HD
ENDBRANCH   2  20
BRANCH   4  22
ATOM     22  O   UNL     1      -5.442  15.670  24.314  0.00  0.00    +0.000 OA
ATOM     23  H   UNL     1      -5.507  15.342  25.237  0.00  0.00    +0.000 HD
ENDBRANCH   4  22
BRANCH   1  24
ATOM     24  C   UNL     1      -2.028  12.358  21.145  0.00  0.00    +0.000 C 
BRANCH  24  30
ATOM     25  O   UNL     1       2.464  10.981  17.860  0.00  0.00    +0.000 OA
ATOM     26  C   UNL     1       1.651  10.254  18.429  0.00  0.00    +0.000 C 
ATOM     27  N   UNL     1       0.745  10.740  19.362  0.00  0.00    +0.000 N 
ATOM     28  C   UNL     1      -0.234   9.958  20.123  0.00  0.00    +0.000 C 
ATOM     29  C   UNL     1      -0.428  10.518  21.551  0.00  0.00    +0.000 C 
ATOM     30  N   UNL     1      -0.683  11.982  21.645  0.00  0.00    +0.000 NA
ATOM     31  C   UNL     1       0.408  12.660  20.895  0.00  0.00    +0.000 C 
ATOM     32  C   UNL     1       0.568  12.191  19.440  0.00  0.00    +0.000 C 
BRANCH  26  33
ATOM     33  C   UNL     1       1.578   8.817  18.034  0.00  0.00    +0.000 C 
ATOM     34  C   UNL     1       2.853   8.169  17.541  0.00  0.00    +0.000 C 
ATOM     35  C   UNL     1       2.272   7.754  18.860  0.00  0.00    +0.000 C 
ENDBRANCH  26  33
ENDBRANCH  24  30
ENDBRANCH   1  24
TORSDOF 7
ENDMDL
MODEL 6
REMARK VINA RESULT:      -6.5      2.313      6.340
REMARK  Name = 
REMARK  7 active torsions:
REMARK  status: ('A' for Active; 'I' for Inactive)
REMARK    1  A    between atoms: C_2  and  C_3
REMARK    2  A    between atoms: N_9  and  C_10
REMARK    3  A    between atoms: C_10  and  C_11
REMARK    4  A    between atoms: C_12  and  O_13
REMARK    5  A    between atoms: C_15  and  O_16
REMARK    6  A    between atoms: C_21  and  C_22
REMARK    7  A    between atoms: C_25  and  O_26
REMARK                            x       y       z     vdW  Elec       q    Type
REMARK                         _______ _______ _______ _____ _____    ______ ____
ROOT
ATOM      1  C   UNL     1      -0.614  11.057  19.228  0.00  0.00    +0.000 A 
ATOM      2  C   UNL     1      -0.178  10.055  18.351  0.00  0.00    +0.000 A 
ATOM      3  C   UNL     1      -0.950   9.628  17.268  0.00  0.00    +0.000 A 
ATOM      4  C   UNL     1      -2.247  10.106  17.109  0.00  0.00    +0.000 A 
ATOM      5  C   UNL     1      -2.787  10.980  18.063  0.00  0.00    +0.000 A 
ATOM      6  C   UNL     1      -4.208  11.391  18.023  0.00  0.00    +0.000 A 
ATOM      7  O   UNL     1      -4.996  11.101  17.135  0.00  0.00    +0.000 OA
ATOM      8  C   UNL     1      -4.692  12.173  19.169  0.00  0.00    +0.000 A 
ATOM      9  C   UNL     1      -3.823  12.571  20.098  0.00  0.00    +0.000 A 
ATOM     10  O   UNL     1      -2.465  12.307  20.079  0.00  0.00    +0.000 OA
ATOM     11  C   UNL     1      -1.971  11.459  19.108  0.00  0.00    +0.000 A 
ENDROOT
BRANCH   9  12
ATOM     12  C   UNL     1      -4.283  13.340  21.259  0.00  0.00    +0.000 A 
ATOM     13  C   UNL     1      -5.324  14.272  21.122  0.00  0.00    +0.000 A 
ATOM     14  C   UNL     1      -5.772  15.012  22.230  0.00  0.00    +0.000 A 
ATOM     15  C   UNL     1      -5.181  14.799  23.464  0.00  0.00    +0.000 A 
ATOM     16  C   UNL     1      -4.132  13.891  23.614  0.00  0.00    +0.000 A 
ATOM     17  C   UNL     1      -3.684  13.161  22.512  0.00  0.00    +0.000 A 
BRANCH  15  18
ATOM     18  O   UNL     1      -5.590  15.473  24.575  0.00  0.00    +0.000 OA
ATOM     19  H   UNL     1      -5.820  14.830  25.264  0.00  0.00    +0.000 HD
ENDBRANCH  15  18
ENDBRANCH   9  12
BRANCH   2  20
ATOM     20  O   UNL     1       1.004   9.388  18.498  0.00  0.00    +0.000 OA
ATOM     21  H   UNL     1       1.202   9.343  19.454  0.00  0.00    +0.000 HD
ENDBRANCH   2  20
BRANCH   4  22
ATOM     22  O   UNL     1      -2.980   9.669  16.054  0.00  0.00    +0.000 OA
ATOM     23  H   UNL     1      -2.519   8.937  15.589  0.00  0.00    +0.000 HD
ENDBRANCH   4  22
BRANCH   1  24
ATOM     24  C   UNL     1       0.288  11.708  20.277  0.00  0.00    +0.000 C 
BRANCH  24  30
ATOM     25  O   UNL     1       0.504  17.436  20.163  0.00  0.00    +0.000 OA
ATOM     26  C   UNL     1       0.169  16.641  19.285  0.00  0.00    +0.000 C 
ATOM     27  N   UNL     1       0.375  15.274  19.402  0.00  0.00    +0.000 N 
ATOM     28  C   UNL     1       0.051  14.250  18.404  0.00  0.00    +0.000 C 
ATOM     29  C   UNL     1       1.090  13.105  18.402  0.00  0.00    +0.000 C 
ATOM     30  N   UNL     1       1.407  12.514  19.730  0.00  0.00    +0.000 NA
ATOM     31  C   UNL     1       1.782  13.640  20.626  0.00  0.00    +0.000 C 
ATOM     32  C   UNL     1       0.729  14.755  20.724  0.00  0.00    +0.000 C 
BRANCH  26  33
ATOM     33  C   UNL     1      -0.566  17.161  18.094  0.00  0.00    +0.000 C 
ATOM     34  C   UNL     1      -0.929  18.629  18.090  0.00  0.00    +0.000 C 
ATOM     35  C   UNL     1       0.104  18.117  17.130  0.00  0.00    +0.000 C 
ENDBRANCH  26  33
ENDBRANCH  24  30
ENDBRANCH   1  24
TORSDOF 7
ENDMDL
MODEL 7
REMARK VINA RESULT:      -6.4      1.398      2.001
REMARK  Name = 
REMARK  7 active torsions:
REMARK  status: ('A' for Active; 'I' for Inactive)
REMARK    1  A    between atoms: C_2  and  C_3
REMARK    2  A    between atoms: N_9  and  C_10
REMARK    3  A    between atoms: C_10  and  C_11
REMARK    4  A    between atoms: C_12  and  O_13
REMARK    5  A    between atoms: C_15  and  O_16
REMARK    6  A    between atoms: C_21  and  C_22
REMARK    7  A    between atoms: C_25  and  O_26
REMARK                            x       y       z     vdW  Elec       q    Type
REMARK                         _______ _______ _______ _____ _____    ______ ____
ROOT
ATOM      1  C   UNL     1      -1.483  14.750  21.827  0.00  0.00    +0.000 A 
ATOM      2  C   UNL     1      -1.562  15.561  22.967  0.00  0.00    +0.000 A 
ATOM      3  C   UNL     1      -2.539  15.373  23.947  0.00  0.00    +0.000 A 
ATOM      4  C   UNL     1      -3.554  14.443  23.745  0.00  0.00    +0.000 A 
ATOM      5  C   UNL     1      -3.613  13.730  22.538  0.00  0.00    +0.000 A 
ATOM      6  C   UNL     1      -4.755  12.848  22.212  0.00  0.00    +0.000 A 
ATOM      7  O   UNL     1      -5.676  12.585  22.973  0.00  0.00    +0.000 OA
ATOM      8  C   UNL     1      -4.781  12.290  20.854  0.00  0.00    +0.000 A 
ATOM      9  C   UNL     1      -3.741  12.497  20.047  0.00  0.00    +0.000 A 
ATOM     10  O   UNL     1      -2.604  13.209  20.384  0.00  0.00    +0.000 OA
ATOM     11  C   UNL     1      -2.578  13.877  21.593  0.00  0.00    +0.000 A 
ENDROOT
BRANCH   9  12
ATOM     12  C   UNL     1      -3.748  11.963  18.680  0.00  0.00    +0.000 A 
ATOM     13  C   UNL     1      -2.553  11.532  18.082  0.00  0.00    +0.000 A 
ATOM     14  C   UNL     1      -2.552  11.018  16.774  0.00  0.00    +0.000 A 
ATOM     15  C   UNL     1      -3.751  10.929  16.087  0.00  0.00    +0.000 A 
ATOM     16  C   UNL     1      -4.945  11.372  16.658  0.00  0.00    +0.000 A 
ATOM     17  C   UNL     1      -4.943  11.888  17.955  0.00  0.00    +0.000 A 
BRANCH  15  18
ATOM     18  O   UNL     1      -3.811  10.420  14.824  0.00  0.00    +0.000 OA
ATOM     19  H   UNL     1      -3.306  10.998  14.230  0.00  0.00    +0.000 HD
ENDBRANCH  15  18
ENDBRANCH   9  12
BRANCH   2  20
ATOM     20  O   UNL     1      -0.728  16.617  23.199  0.00  0.00    +0.000 OA
ATOM     21  H   UNL     1      -0.035  16.605  22.509  0.00  0.00    +0.000 HD
ENDBRANCH   2  20
BRANCH   4  22
ATOM     22  O   UNL     1      -4.497  14.284  24.706  0.00  0.00    +0.000 OA
ATOM     23  H   UNL     1      -4.204  14.690  25.552  0.00  0.00    +0.000 HD
ENDBRANCH   4  22
BRANCH   1  24
ATOM     24  C   UNL     1      -0.301  14.774  20.857  0.00  0.00    +0.000 C 
BRANCH  24  30
ATOM     25  O   UNL     1       2.789  11.261  17.544  0.00  0.00    +0.000 OA
ATOM     26  C   UNL     1       1.882  11.005  18.335  0.00  0.00    +0.000 C 
ATOM     27  N   UNL     1       1.378  11.948  19.219  0.00  0.00    +0.000 N 
ATOM     28  C   UNL     1       0.331  11.737  20.224  0.00  0.00    +0.000 C 
ATOM     29  C   UNL     1       0.594  12.563  21.505  0.00  0.00    +0.000 C 
ATOM     30  N   UNL     1       0.890  14.007  21.297  0.00  0.00    +0.000 NA
ATOM     31  C   UNL     1       2.004  14.082  20.315  0.00  0.00    +0.000 C 
ATOM     32  C   UNL     1       1.739  13.348  18.992  0.00  0.00    +0.000 C 
BRANCH  26  33
ATOM     33  C   UNL     1       1.241   9.657  18.276  0.00  0.00    +0.000 C 
ATOM     34  C   UNL     1       2.078   8.516  17.741  0.00  0.00    +0.000 C 
ATOM     35  C   UNL     1       1.701   8.543  19.193  0.00  0.00    +0.000 C 
ENDBRANCH  26  33
ENDBRANCH  24  30
ENDBRANCH   1  24
TORSDOF 7
ENDMDL
MODEL 8
REMARK VINA RESULT:      -6.4      2.170      6.485
REMARK  Name = 
REMARK  7 active torsions:
REMARK  status: ('A' for Active; 'I' for Inactive)
REMARK    1  A    between atoms: C_2  and  C_3
REMARK    2  A    between atoms: N_9  and  C_10
REMARK    3  A    between atoms: C_10  and  C_11
REMARK    4  A    between atoms: C_12  and  O_13
REMARK    5  A    between atoms: C_15  and  O_16
REMARK    6  A    between atoms: C_21  and  C_22
REMARK    7  A    between atoms: C_25  and  O_26
REMARK                            x       y       z     vdW  Elec       q    Type
REMARK                         _______ _______ _______ _____ _____    ______ ____
ROOT
ATOM      1  C   UNL     1      -2.233  11.345  18.823  0.00  0.00    +0.000 A 
ATOM      2  C   UNL     1      -1.723  10.729  17.672  0.00  0.00    +0.000 A 
ATOM      3  C   UNL     1      -2.438  10.687  16.473  0.00  0.00    +0.000 A 
ATOM      4  C   UNL     1      -3.750  11.149  16.431  0.00  0.00    +0.000 A 
ATOM      5  C   UNL     1      -4.360  11.615  17.604  0.00  0.00    +0.000 A 
ATOM      6  C   UNL     1      -5.796  11.969  17.645  0.00  0.00    +0.000 A 
ATOM      7  O   UNL     1      -6.541  11.986  16.675  0.00  0.00    +0.000 OA
ATOM      8  C   UNL     1      -6.353  12.283  18.967  0.00  0.00    +0.000 A 
ATOM      9  C   UNL     1      -5.534  12.354  20.017  0.00  0.00    +0.000 A 
ATOM     10  O   UNL     1      -4.166  12.157  19.971  0.00  0.00    +0.000 OA
ATOM     11  C   UNL     1      -3.601  11.721  18.788  0.00  0.00    +0.000 A 
ENDROOT
BRANCH   9  12
ATOM     12  C   UNL     1      -6.067  12.652  21.351  0.00  0.00    +0.000 A 
ATOM     13  C   UNL     1      -5.227  13.172  22.349  0.00  0.00    +0.000 A 
ATOM     14  C   UNL     1      -5.730  13.461  23.629  0.00  0.00    +0.000 A 
ATOM     15  C   UNL     1      -7.072  13.237  23.889  0.00  0.00    +0.000 A 
ATOM     16  C   UNL     1      -7.917  12.702  22.915  0.00  0.00    +0.000 A 
ATOM     17  C   UNL     1      -7.414  12.410  21.646  0.00  0.00    +0.000 A 
BRANCH  15  18
ATOM     18  O   UNL     1      -7.617  13.519  25.105  0.00  0.00    +0.000 OA
ATOM     19  H   UNL     1      -7.644  12.704  25.631  0.00  0.00    +0.000 HD
ENDBRANCH  15  18
ENDBRANCH   9  12
BRANCH   2  20
ATOM     20  O   UNL     1      -0.517  10.090  17.631  0.00  0.00    +0.000 OA
ATOM     21  H   UNL     1       0.049  10.565  16.992  0.00  0.00    +0.000 HD
ENDBRANCH   2  20
BRANCH   4  22
ATOM     22  O   UNL     1      -4.427  11.090  15.257  0.00  0.00    +0.000 OA
ATOM     23  H   UNL     1      -5.152  10.429  15.306  0.00  0.00    +0.000 HD
ENDBRANCH   4  22
BRANCH   1  24
ATOM     24  C   UNL     1      -1.396  11.612  20.075  0.00  0.00    +0.000 C 
BRANCH  24  30
ATOM     25  O   UNL     1       0.155  15.843  23.618  0.00  0.00    +0.000 OA
ATOM     26  C   UNL     1      -0.517  15.884  22.588  0.00  0.00    +0.000 C 
ATOM     27  N   UNL     1      -0.624  14.799  21.729  0.00  0.00    +0.000 N 
ATOM     28  C   UNL     1      -1.362  14.755  20.462  0.00  0.00    +0.000 C 
ATOM     29  C   UNL     1      -0.645  13.873  19.414  0.00  0.00    +0.000 C 
ATOM     30  N   UNL     1      -0.238  12.517  19.875  0.00  0.00    +0.000 NA
ATOM     31  C   UNL     1       0.554  12.704  21.120  0.00  0.00    +0.000 C 
ATOM     32  C   UNL     1      -0.167  13.499  22.221  0.00  0.00    +0.000 C 
BRANCH  26  33
ATOM     33  C   UNL     1      -1.314  17.113  22.302  0.00  0.00    +0.000 C 
ATOM     34  C   UNL     1      -0.929  18.376  23.041  0.00  0.00    +0.000 C 
ATOM     35  C   UNL     1      -0.695  18.280  21.562  0.00  0.00    +0.000 C 
ENDBRANCH  26  33
ENDBRANCH  24  30
ENDBRANCH   1  24
TORSDOF 7
ENDMDL
MODEL 9
REMARK VINA RESULT:      -6.4      8.441     12.987
REMARK  Name = 
REMARK  7 active torsions:
REMARK  status: ('A' for Active; 'I' for Inactive)
REMARK    1  A    between atoms: C_2  and  C_3
REMARK    2  A    between atoms: N_9  and  C_10
REMARK    3  A    between atoms: C_10  and  C_11
REMARK    4  A    between atoms: C_12  and  O_13
REMARK    5  A    between atoms: C_15  and  O_16
REMARK    6  A    between atoms: C_21  and  C_22
REMARK    7  A    between atoms: C_25  and  O_26
REMARK                            x       y       z     vdW  Elec       q    Type
REMARK                         _______ _______ _______ _____ _____    ______ ____
ROOT
ATOM      1  C   UNL     1       9.858  14.858  19.495  0.00  0.00    +0.000 A 
ATOM      2  C   UNL     1      10.724  14.896  18.394  0.00  0.00    +0.000 A 
ATOM      3  C   UNL     1      11.054  13.749  17.669  0.00  0.00    +0.000 A 
ATOM      4  C   UNL     1      10.625  12.501  18.111  0.00  0.00    +0.000 A 
ATOM      5  C   UNL     1       9.900  12.400  19.307  0.00  0.00    +0.000 A 
ATOM      6  C   UNL     1       9.558  11.087  19.898  0.00  0.00    +0.000 A 
ATOM      7  O   UNL     1       9.777  10.004  19.374  0.00  0.00    +0.000 OA
ATOM      8  C   UNL     1       8.945  11.113  21.233  0.00  0.00    +0.000 A 
ATOM      9  C   UNL     1       8.621  12.287  21.776  0.00  0.00    +0.000 A 
ATOM     10  O   UNL     1       8.813  13.519  21.176  0.00  0.00    +0.000 OA
ATOM     11  C   UNL     1       9.511  13.572  19.986  0.00  0.00    +0.000 A 
ENDROOT
BRANCH   9  12
ATOM     12  C   UNL     1       8.020  12.342  23.114  0.00  0.00    +0.000 A 
ATOM     13  C   UNL     1       6.739  11.814  23.336  0.00  0.00    +0.000 A 
ATOM     14  C   UNL     1       6.158  11.861  24.615  0.00  0.00    +0.000 A 
ATOM     15  C   UNL     1       6.875  12.424  25.658  0.00  0.00    +0.000 A 
ATOM     16  C   UNL     1       8.141  12.971  25.450  0.00  0.00    +0.000 A 
ATOM     17  C   UNL     1       8.715  12.929  24.178  0.00  0.00    +0.000 A 
BRANCH  15  18
ATOM     18  O   UNL     1       6.368  12.477  26.922  0.00  0.00    +0.000 OA
ATOM     19  H   UNL     1       7.095  12.645  27.542  0.00  0.00    +0.000 HD
ENDBRANCH  15  18
ENDBRANCH   9  12
BRANCH   2  20
ATOM     20  O   UNL     1      11.345  16.033  17.963  0.00  0.00    +0.000 OA
ATOM     21  H   UNL     1      12.262  15.796  17.719  0.00  0.00    +0.000 HD
ENDBRANCH   2  20
BRANCH   4  22
ATOM     22  O   UNL     1      10.966  11.401  17.395  0.00  0.00    +0.000 OA
ATOM     23  H   UNL     1      11.344  10.707  17.979  0.00  0.00    +0.000 HD
ENDBRANCH   4  22
BRANCH   1  24
ATOM     24  C   UNL     1       9.295  16.112  20.166  0.00  0.00    +0.000 C 
BRANCH  24  30
ATOM     25  O   UNL     1       3.972  18.229  20.374  0.00  0.00    +0.000 OA
ATOM     26  C   UNL     1       4.433  17.322  19.683  0.00  0.00    +0.000 C 
ATOM     27  N   UNL     1       5.795  17.071  19.599  0.00  0.00    +0.000 N 
ATOM     28  C   UNL     1       6.449  16.046  18.780  0.00  0.00    +0.000 C 
ATOM     29  C   UNL     1       7.811  16.533  18.234  0.00  0.00    +0.000 C 
ATOM     30  N   UNL     1       8.738  17.126  19.237  0.00  0.00    +0.000 NA
ATOM     31  C   UNL     1       7.981  18.189  19.950  0.00  0.00    +0.000 C 
ATOM     32  C   UNL     1       6.664  17.717  20.585  0.00  0.00    +0.000 C 
BRANCH  26  33
ATOM     33  C   UNL     1       3.486  16.404  18.984  0.00  0.00    +0.000 C 
ATOM     34  C   UNL     1       2.117  16.949  18.643  0.00  0.00    +0.000 C 
ATOM     35  C   UNL     1       3.093  16.652  17.543  0.00  0.00    +0.000 C 
ENDBRANCH  26  33
ENDBRANCH  24  30
ENDBRANCH   1  24
TORSDOF 7
ENDMDL
