MODEL 1
REMARK VINA RESULT:      -7.9      0.000      0.000
REMARK  Name = 
REMARK  9 active torsions:
REMARK  status: ('A' for Active; 'I' for Inactive)
REMARK    1  A    between atoms: C_1  and  O_2
REMARK    2  A    between atoms: O_2  and  C_3
REMARK    3  A    between atoms: C_7  and  O_8
REMARK    4  A    between atoms: O_8  and  C_9
REMARK    5  A    between atoms: C_9  and  C_10
REMARK    6  A    between atoms: C_10  and  C_11
REMARK    7  A    between atoms: C_11  and  C_12
REMARK    8  A    between atoms: C_12  and  O_13
REMARK    9  A    between atoms: O_13  and  C_14
REMARK                            x       y       z     vdW  Elec       q    Type
REMARK                         _______ _______ _______ _____ _____    ______ ____
ROOT
ATOM      1  O   UNL     1       3.087   6.556  19.882  0.00  0.00    +0.000 OA
ENDROOT
BRANCH   1   2
ATOM      2  C   UNL     1       2.746   5.556  18.939  0.00  0.00    +0.000 A 
ATOM      3  C   UNL     1       1.980   4.428  19.322  0.00  0.00    +0.000 A 
ATOM      4  C   UNL     1       0.976   4.133  20.277  0.00  0.00    +0.000 A 
ATOM      5  C   UNL     1       1.330   2.887  20.745  0.00  0.00    +0.000 A 
ATOM      6  O   UNL     1       2.096   2.252  19.815  0.00  0.00    +0.000 OA
ATOM      7  C   UNL     1       2.429   3.191  18.885  0.00  0.00    +0.000 A 
ATOM      8  C   UNL     1       3.219   3.007  17.774  0.00  0.00    +0.000 A 
ATOM      9  C   UNL     1       3.729   4.176  17.210  0.00  0.00    +0.000 A 
ATOM     10  O   UNL     1       4.617   3.976  16.142  0.00  0.00    +0.000 OA
ATOM     11  C   UNL     1       5.522   4.959  15.827  0.00  0.00    +0.000 A 
ATOM     12  O   UNL     1       6.558   4.749  15.215  0.00  0.00    +0.000 OA
ATOM     13  C   UNL     1       5.161   6.352  16.222  0.00  0.00    +0.000 A 
ATOM     14  C   UNL     1       4.252   6.574  17.165  0.00  0.00    +0.000 A 
ATOM     15  C   UNL     1       3.543   5.446  17.778  0.00  0.00    +0.000 A 
ENDBRANCH   1   2
BRANCH   1  16
ATOM     16  C   UNL     1       2.020   7.541  19.862  0.00  0.00    +0.000 C 
BRANCH  16  17
ATOM     17  C   UNL     1       1.336   7.849  21.184  0.00  0.00    +0.000 C 
BRANCH  17  18
ATOM     18  C   UNL     1       0.178   8.857  20.982  0.00  0.00    +0.000 C 
BRANCH  18  19
ATOM     19  C   UNL     1       0.624  10.322  20.970  0.00  0.00    +0.000 C 
BRANCH  19  20
ATOM     20  O   UNL     1       0.662  10.813  19.630  0.00  0.00    +0.000 OA
BRANCH  20  25
ATOM     21  C   UNL     1      -2.087  10.340  17.166  0.00  0.00    +0.000 A 
ATOM     22  C   UNL     1      -3.043  11.165  17.759  0.00  0.00    +0.000 A 
ATOM     23  C   UNL     1      -2.759  11.824  18.955  0.00  0.00    +0.000 A 
ATOM     24  C   UNL     1      -1.511  11.666  19.557  0.00  0.00    +0.000 A 
ATOM     25  C   UNL     1      -0.538  10.858  18.966  0.00  0.00    +0.000 A 
ATOM     26  C   UNL     1      -0.838  10.186  17.774  0.00  0.00    +0.000 A 
BRANCH  21  28
ATOM     27  C   UNL     1      -3.455  10.439  15.221  0.00  0.00    +0.000 C 
ATOM     28  O   UNL     1      -2.484   9.745  15.997  0.00  0.00    +0.000 OA
ENDBRANCH  21  28
ENDBRANCH  20  25
ENDBRANCH  19  20
ENDBRANCH  18  19
ENDBRANCH  17  18
ENDBRANCH  16  17
ENDBRANCH   1  16
TORSDOF 8
ENDMDL
MODEL 2
REMARK VINA RESULT:      -7.8      2.088      3.093
REMARK  Name = 
REMARK  9 active torsions:
REMARK  status: ('A' for Active; 'I' for Inactive)
REMARK    1  A    between atoms: C_1  and  O_2
REMARK    2  A    between atoms: O_2  and  C_3
REMARK    3  A    between atoms: C_7  and  O_8
REMARK    4  A    between atoms: O_8  and  C_9
REMARK    5  A    between atoms: C_9  and  C_10
REMARK    6  A    between atoms: C_10  and  C_11
REMARK    7  A    between atoms: C_11  and  C_12
REMARK    8  A    between atoms: C_12  and  O_13
REMARK    9  A    between atoms: O_13  and  C_14
REMARK                            x       y       z     vdW  Elec       q    Type
REMARK                         _______ _______ _______ _____ _____    ______ ____
ROOT
ATOM      1  O   UNL     1       3.272   6.374  19.547  0.00  0.00    +0.000 OA
ENDROOT
BRANCH   1   2
ATOM      2  C   UNL     1       3.101   5.355  18.580  0.00  0.00    +0.000 A 
ATOM      3  C   UNL     1       2.312   4.214  18.860  0.00  0.00    +0.000 A 
ATOM      4  C   UNL     1       1.181   3.905  19.656  0.00  0.00    +0.000 A 
ATOM      5  C   UNL     1       1.488   2.674  20.192  0.00  0.00    +0.000 A 
ATOM      6  O   UNL     1       2.402   2.047  19.399  0.00  0.00    +0.000 OA
ATOM      7  C   UNL     1       2.851   2.983  18.516  0.00  0.00    +0.000 A 
ATOM      8  C   UNL     1       3.804   2.805  17.540  0.00  0.00    +0.000 A 
ATOM      9  C   UNL     1       4.367   3.979  17.041  0.00  0.00    +0.000 A 
ATOM     10  O   UNL     1       5.412   3.788  16.124  0.00  0.00    +0.000 OA
ATOM     11  C   UNL     1       6.331   4.790  15.934  0.00  0.00    +0.000 A 
ATOM     12  O   UNL     1       7.453   4.598  15.490  0.00  0.00    +0.000 OA
ATOM     13  C   UNL     1       5.882   6.178  16.247  0.00  0.00    +0.000 A 
ATOM     14  C   UNL     1       4.836   6.389  17.038  0.00  0.00    +0.000 A 
ATOM     15  C   UNL     1       4.068   5.251  17.554  0.00  0.00    +0.000 A 
ENDBRANCH   1   2
BRANCH   1  16
ATOM     16  C   UNL     1       2.166   7.303  19.387  0.00  0.00    +0.000 C 
BRANCH  16  17
ATOM     17  C   UNL     1       2.365   8.456  18.417  0.00  0.00    +0.000 C 
BRANCH  17  18
ATOM     18  C   UNL     1       1.010   9.116  18.063  0.00  0.00    +0.000 C 
BRANCH  18  19
ATOM     19  C   UNL     1       0.867  10.554  18.571  0.00  0.00    +0.000 C 
BRANCH  19  20
ATOM     20  O   UNL     1       1.471  10.682  19.859  0.00  0.00    +0.000 OA
BRANCH  20  25
ATOM     21  C   UNL     1      -1.186  11.422  22.360  0.00  0.00    +0.000 A 
ATOM     22  C   UNL     1      -0.942  10.368  23.241  0.00  0.00    +0.000 A 
ATOM     23  C   UNL     1       0.066   9.442  22.969  0.00  0.00    +0.000 A 
ATOM     24  C   UNL     1       0.840   9.576  21.817  0.00  0.00    +0.000 A 
ATOM     25  C   UNL     1       0.620  10.635  20.936  0.00  0.00    +0.000 A 
ATOM     26  C   UNL     1      -0.406  11.549  21.207  0.00  0.00    +0.000 A 
BRANCH  21  28
ATOM     27  C   UNL     1      -2.351  13.462  21.979  0.00  0.00    +0.000 C 
ATOM     28  O   UNL     1      -2.202  12.263  22.732  0.00  0.00    +0.000 OA
ENDBRANCH  21  28
ENDBRANCH  20  25
ENDBRANCH  19  20
ENDBRANCH  18  19
ENDBRANCH  17  18
ENDBRANCH  16  17
ENDBRANCH   1  16
TORSDOF 8
ENDMDL
MODEL 3
REMARK VINA RESULT:      -7.8      1.295      1.316
REMARK  Name = 
REMARK  9 active torsions:
REMARK  status: ('A' for Active; 'I' for Inactive)
REMARK    1  A    between atoms: C_1  and  O_2
REMARK    2  A    between atoms: O_2  and  C_3
REMARK    3  A    between atoms: C_7  and  O_8
REMARK    4  A    between atoms: O_8  and  C_9
REMARK    5  A    between atoms: C_9  and  C_10
REMARK    6  A    between atoms: C_10  and  C_11
REMARK    7  A    between atoms: C_11  and  C_12
REMARK    8  A    between atoms: C_12  and  O_13
REMARK    9  A    between atoms: O_13  and  C_14
REMARK                            x       y       z     vdW  Elec       q    Type
REMARK                         _______ _______ _______ _____ _____    ______ ____
ROOT
ATOM      1  O   UNL     1       1.939   6.147  18.781  0.00  0.00    +0.000 OA
ENDROOT
BRANCH   1   2
ATOM      2  C   UNL     1       2.593   4.893  18.702  0.00  0.00    +0.000 A 
ATOM      3  C   UNL     1       2.219   3.826  19.554  0.00  0.00    +0.000 A 
ATOM      4  C   UNL     1       1.041   3.381  20.202  0.00  0.00    +0.000 A 
ATOM      5  C   UNL     1       1.484   2.988  21.446  0.00  0.00    +0.000 A 
ATOM      6  O   UNL     1       2.811   2.687  21.382  0.00  0.00    +0.000 OA
ATOM      7  C   UNL     1       3.248   3.131  20.171  0.00  0.00    +0.000 A 
ATOM      8  C   UNL     1       4.533   3.063  19.684  0.00  0.00    +0.000 A 
ATOM      9  C   UNL     1       4.808   3.920  18.618  0.00  0.00    +0.000 A 
ATOM     10  O   UNL     1       6.146   3.923  18.193  0.00  0.00    +0.000 OA
ATOM     11  C   UNL     1       6.634   5.013  17.517  0.00  0.00    +0.000 A 
ATOM     12  O   UNL     1       7.822   5.290  17.457  0.00  0.00    +0.000 OA
ATOM     13  C   UNL     1       5.637   5.848  16.786  0.00  0.00    +0.000 A 
ATOM     14  C   UNL     1       4.348   5.796  17.102  0.00  0.00    +0.000 A 
ATOM     15  C   UNL     1       3.885   4.859  18.131  0.00  0.00    +0.000 A 
ENDBRANCH   1   2
BRANCH   1  16
ATOM     16  C   UNL     1       2.445   6.818  19.966  0.00  0.00    +0.000 C 
BRANCH  16  17
ATOM     17  C   UNL     1       1.464   7.677  20.747  0.00  0.00    +0.000 C 
BRANCH  17  18
ATOM     18  C   UNL     1       1.124   8.970  19.968  0.00  0.00    +0.000 C 
BRANCH  18  19
ATOM     19  C   UNL     1      -0.144   9.676  20.456  0.00  0.00    +0.000 C 
BRANCH  19  20
ATOM     20  O   UNL     1      -0.341  10.891  19.731  0.00  0.00    +0.000 OA
BRANCH  20  25
ATOM     21  C   UNL     1      -2.469  10.269  16.741  0.00  0.00    +0.000 A 
ATOM     22  C   UNL     1      -3.532  11.114  17.063  0.00  0.00    +0.000 A 
ATOM     23  C   UNL     1      -3.523  11.833  18.258  0.00  0.00    +0.000 A 
ATOM     24  C   UNL     1      -2.441  11.717  19.131  0.00  0.00    +0.000 A 
ATOM     25  C   UNL     1      -1.362  10.891  18.813  0.00  0.00    +0.000 A 
ATOM     26  C   UNL     1      -1.388  10.158  17.620  0.00  0.00    +0.000 A 
BRANCH  21  28
ATOM     27  C   UNL     1      -3.465  10.198  14.581  0.00  0.00    +0.000 C 
ATOM     28  O   UNL     1      -2.594   9.614  15.544  0.00  0.00    +0.000 OA
ENDBRANCH  21  28
ENDBRANCH  20  25
ENDBRANCH  19  20
ENDBRANCH  18  19
ENDBRANCH  17  18
ENDBRANCH  16  17
ENDBRANCH   1  16
TORSDOF 8
ENDMDL
MODEL 4
REMARK VINA RESULT:      -7.6      1.653      4.044
REMARK  Name = 
REMARK  9 active torsions:
REMARK  status: ('A' for Active; 'I' for Inactive)
REMARK    1  A    between atoms: C_1  and  O_2
REMARK    2  A    between atoms: O_2  and  C_3
REMARK    3  A    between atoms: C_7  and  O_8
REMARK    4  A    between atoms: O_8  and  C_9
REMARK    5  A    between atoms: C_9  and  C_10
REMARK    6  A    between atoms: C_10  and  C_11
REMARK    7  A    between atoms: C_11  and  C_12
REMARK    8  A    between atoms: C_12  and  O_13
REMARK    9  A    between atoms: O_13  and  C_14
REMARK                            x       y       z     vdW  Elec       q    Type
REMARK                         _______ _______ _______ _____ _____    ______ ____
ROOT
ATOM      1  O   UNL     1       2.974   7.403  19.057  0.00  0.00    +0.000 OA
ENDROOT
BRANCH   1   2
ATOM      2  C   UNL     1       3.562   6.146  18.772  0.00  0.00    +0.000 A 
ATOM      3  C   UNL     1       4.619   6.036  17.836  0.00  0.00    +0.000 A 
ATOM      4  C   UNL     1       5.683   6.848  17.373  0.00  0.00    +0.000 A 
ATOM      5  C   UNL     1       5.699   6.620  16.015  0.00  0.00    +0.000 A 
ATOM      6  O   UNL     1       5.122   5.415  15.749  0.00  0.00    +0.000 OA
ATOM      7  C   UNL     1       4.523   5.012  16.905  0.00  0.00    +0.000 A 
ATOM      8  C   UNL     1       3.795   3.861  17.098  0.00  0.00    +0.000 A 
ATOM      9  C   UNL     1       2.969   3.864  18.222  0.00  0.00    +0.000 A 
ATOM     10  O   UNL     1       2.151   2.732  18.356  0.00  0.00    +0.000 OA
ATOM     11  C   UNL     1       1.003   2.816  19.104  0.00  0.00    +0.000 A 
ATOM     12  O   UNL     1       0.055   2.058  18.968  0.00  0.00    +0.000 OA
ATOM     13  C   UNL     1       0.970   3.867  20.162  0.00  0.00    +0.000 A 
ATOM     14  C   UNL     1       1.799   4.904  20.114  0.00  0.00    +0.000 A 
ATOM     15  C   UNL     1       2.805   4.986  19.050  0.00  0.00    +0.000 A 
ENDBRANCH   1   2
BRANCH   1  16
ATOM     16  C   UNL     1       2.134   7.747  17.924  0.00  0.00    +0.000 C 
BRANCH  16  17
ATOM     17  C   UNL     1       1.756   9.211  17.761  0.00  0.00    +0.000 C 
BRANCH  17  18
ATOM     18  C   UNL     1       1.186   9.782  19.082  0.00  0.00    +0.000 C 
BRANCH  18  19
ATOM     19  C   UNL     1      -0.276  10.226  18.988  0.00  0.00    +0.000 C 
BRANCH  19  20
ATOM     20  O   UNL     1      -0.773  10.007  17.667  0.00  0.00    +0.000 OA
BRANCH  20  25
ATOM     21  C   UNL     1      -4.263  11.255  18.014  0.00  0.00    +0.000 A 
ATOM     22  C   UNL     1      -4.625  11.237  16.667  0.00  0.00    +0.000 A 
ATOM     23  C   UNL     1      -3.705  10.842  15.695  0.00  0.00    +0.000 A 
ATOM     24  C   UNL     1      -2.420  10.452  16.073  0.00  0.00    +0.000 A 
ATOM     25  C   UNL     1      -2.049  10.447  17.418  0.00  0.00    +0.000 A 
ATOM     26  C   UNL     1      -2.973  10.863  18.385  0.00  0.00    +0.000 A 
BRANCH  21  28
ATOM     27  C   UNL     1      -4.976  12.818  19.660  0.00  0.00    +0.000 C 
ATOM     28  O   UNL     1      -5.249  11.664  18.872  0.00  0.00    +0.000 OA
ENDBRANCH  21  28
ENDBRANCH  20  25
ENDBRANCH  19  20
ENDBRANCH  18  19
ENDBRANCH  17  18
ENDBRANCH  16  17
ENDBRANCH   1  16
TORSDOF 8
ENDMDL
MODEL 5
REMARK VINA RESULT:      -7.6      1.262      1.564
REMARK  Name = 
REMARK  9 active torsions:
REMARK  status: ('A' for Active; 'I' for Inactive)
REMARK    1  A    between atoms: C_1  and  O_2
REMARK    2  A    between atoms: O_2  and  C_3
REMARK    3  A    between atoms: C_7  and  O_8
REMARK    4  A    between atoms: O_8  and  C_9
REMARK    5  A    between atoms: C_9  and  C_10
REMARK    6  A    between atoms: C_10  and  C_11
REMARK    7  A    between atoms: C_11  and  C_12
REMARK    8  A    between atoms: C_12  and  O_13
REMARK    9  A    between atoms: O_13  and  C_14
REMARK                            x       y       z     vdW  Elec       q    Type
REMARK                         _______ _______ _______ _____ _____    ______ ____
ROOT
ATOM      1  O   UNL     1       3.131   6.051  19.907  0.00  0.00    +0.000 OA
ENDROOT
BRANCH   1   2
ATOM      2  C   UNL     1       3.005   5.252  18.745  0.00  0.00    +0.000 A 
ATOM      3  C   UNL     1       2.303   4.023  18.782  0.00  0.00    +0.000 A 
ATOM      4  C   UNL     1       1.218   3.470  19.506  0.00  0.00    +0.000 A 
ATOM      5  C   UNL     1       1.622   2.179  19.761  0.00  0.00    +0.000 A 
ATOM      6  O   UNL     1       2.554   1.804  18.841  0.00  0.00    +0.000 OA
ATOM      7  C   UNL     1       2.915   2.937  18.175  0.00  0.00    +0.000 A 
ATOM      8  C   UNL     1       3.852   3.040  17.174  0.00  0.00    +0.000 A 
ATOM      9  C   UNL     1       4.320   4.332  16.933  0.00  0.00    +0.000 A 
ATOM     10  O   UNL     1       5.351   4.418  15.983  0.00  0.00    +0.000 OA
ATOM     11  C   UNL     1       6.194   5.501  16.004  0.00  0.00    +0.000 A 
ATOM     12  O   UNL     1       7.314   5.490  15.515  0.00  0.00    +0.000 OA
ATOM     13  C   UNL     1       5.660   6.753  16.613  0.00  0.00    +0.000 A 
ATOM     14  C   UNL     1       4.623   6.714  17.442  0.00  0.00    +0.000 A 
ATOM     15  C   UNL     1       3.949   5.440  17.711  0.00  0.00    +0.000 A 
ENDBRANCH   1   2
BRANCH   1  16
ATOM     16  C   UNL     1       1.841   6.677  20.135  0.00  0.00    +0.000 C 
BRANCH  16  17
ATOM     17  C   UNL     1       1.791   8.196  20.096  0.00  0.00    +0.000 C 
BRANCH  17  18
ATOM     18  C   UNL     1       1.841   8.711  18.637  0.00  0.00    +0.000 C 
BRANCH  18  19
ATOM     19  C   UNL     1       0.990   9.959  18.388  0.00  0.00    +0.000 C 
BRANCH  19  20
ATOM     20  O   UNL     1      -0.182   9.616  17.647  0.00  0.00    +0.000 OA
BRANCH  20  25
ATOM     21  C   UNL     1      -3.642  10.986  17.696  0.00  0.00    +0.000 A 
ATOM     22  C   UNL     1      -3.501  11.871  18.765  0.00  0.00    +0.000 A 
ATOM     23  C   UNL     1      -2.287  11.965  19.445  0.00  0.00    +0.000 A 
ATOM     24  C   UNL     1      -1.204  11.181  19.047  0.00  0.00    +0.000 A 
ATOM     25  C   UNL     1      -1.325  10.305  17.968  0.00  0.00    +0.000 A 
ATOM     26  C   UNL     1      -2.554  10.203  17.303  0.00  0.00    +0.000 A 
BRANCH  21  28
ATOM     27  C   UNL     1      -5.974  11.406  17.918  0.00  0.00    +0.000 C 
ATOM     28  O   UNL     1      -4.881  10.981  17.111  0.00  0.00    +0.000 OA
ENDBRANCH  21  28
ENDBRANCH  20  25
ENDBRANCH  19  20
ENDBRANCH  18  19
ENDBRANCH  17  18
ENDBRANCH  16  17
ENDBRANCH   1  16
TORSDOF 8
ENDMDL
MODEL 6
REMARK VINA RESULT:      -7.6      1.738      2.131
REMARK  Name = 
REMARK  9 active torsions:
REMARK  status: ('A' for Active; 'I' for Inactive)
REMARK    1  A    between atoms: C_1  and  O_2
REMARK    2  A    between atoms: O_2  and  C_3
REMARK    3  A    between atoms: C_7  and  O_8
REMARK    4  A    between atoms: O_8  and  C_9
REMARK    5  A    between atoms: C_9  and  C_10
REMARK    6  A    between atoms: C_10  and  C_11
REMARK    7  A    between atoms: C_11  and  C_12
REMARK    8  A    between atoms: C_12  and  O_13
REMARK    9  A    between atoms: O_13  and  C_14
REMARK                            x       y       z     vdW  Elec       q    Type
REMARK                         _______ _______ _______ _____ _____    ______ ____
ROOT
ATOM      1  O   UNL     1       2.002   6.097  17.864  0.00  0.00    +0.000 OA
ENDROOT
BRANCH   1   2
ATOM      2  C   UNL     1       2.675   4.873  18.098  0.00  0.00    +0.000 A 
ATOM      3  C   UNL     1       2.194   3.952  19.060  0.00  0.00    +0.000 A 
ATOM      4  C   UNL     1       0.939   3.580  19.602  0.00  0.00    +0.000 A 
ATOM      5  C   UNL     1       1.201   3.421  20.945  0.00  0.00    +0.000 A 
ATOM      6  O   UNL     1       2.526   3.162  21.123  0.00  0.00    +0.000 OA
ATOM      7  C   UNL     1       3.131   3.411  19.927  0.00  0.00    +0.000 A 
ATOM      8  C   UNL     1       4.473   3.309  19.647  0.00  0.00    +0.000 A 
ATOM      9  C   UNL     1       4.891   3.982  18.498  0.00  0.00    +0.000 A 
ATOM     10  O   UNL     1       6.276   3.962  18.274  0.00  0.00    +0.000 OA
ATOM     11  C   UNL     1       6.844   4.939  17.495  0.00  0.00    +0.000 A 
ATOM     12  O   UNL     1       8.025   5.245  17.557  0.00  0.00    +0.000 OA
ATOM     13  C   UNL     1       5.955   5.601  16.497  0.00  0.00    +0.000 A 
ATOM     14  C   UNL     1       4.635   5.555  16.631  0.00  0.00    +0.000 A 
ATOM     15  C   UNL     1       4.037   4.790  17.730  0.00  0.00    +0.000 A 
ENDBRANCH   1   2
BRANCH   1  16
ATOM     16  C   UNL     1       2.359   6.993  18.951  0.00  0.00    +0.000 C 
BRANCH  16  17
ATOM     17  C   UNL     1       2.038   8.467  18.767  0.00  0.00    +0.000 C 
BRANCH  17  18
ATOM     18  C   UNL     1       1.079   8.963  19.876  0.00  0.00    +0.000 C 
BRANCH  18  19
ATOM     19  C   UNL     1       0.757  10.458  19.798  0.00  0.00    +0.000 C 
BRANCH  19  20
ATOM     20  O   UNL     1       0.304  10.795  18.485  0.00  0.00    +0.000 OA
BRANCH  20  25
ATOM     21  C   UNL     1      -3.314  11.634  18.734  0.00  0.00    +0.000 A 
ATOM     22  C   UNL     1      -3.808  10.699  17.823  0.00  0.00    +0.000 A 
ATOM     23  C   UNL     1      -2.935   9.849  17.144  0.00  0.00    +0.000 A 
ATOM     24  C   UNL     1      -1.563   9.925  17.385  0.00  0.00    +0.000 A 
ATOM     25  C   UNL     1      -1.056  10.842  18.306  0.00  0.00    +0.000 A 
ATOM     26  C   UNL     1      -1.938  11.704  18.970  0.00  0.00    +0.000 A 
BRANCH  21  28
ATOM     27  C   UNL     1      -5.626  12.121  19.023  0.00  0.00    +0.000 C 
ATOM     28  O   UNL     1      -4.267  12.414  19.334  0.00  0.00    +0.000 OA
ENDBRANCH  21  28
ENDBRANCH  20  25
ENDBRANCH  19  20
ENDBRANCH  18  19
ENDBRANCH  17  18
ENDBRANCH  16  17
ENDBRANCH   1  16
TORSDOF 8
ENDMDL
MODEL 7
REMARK VINA RESULT:      -7.6      1.964      3.043
REMARK  Name = 
REMARK  9 active torsions:
REMARK  status: ('A' for Active; 'I' for Inactive)
REMARK    1  A    between atoms: C_1  and  O_2
REMARK    2  A    between atoms: O_2  and  C_3
REMARK    3  A    between atoms: C_7  and  O_8
REMARK    4  A    between atoms: O_8  and  C_9
REMARK    5  A    between atoms: C_9  and  C_10
REMARK    6  A    between atoms: C_10  and  C_11
REMARK    7  A    between atoms: C_11  and  C_12
REMARK    8  A    between atoms: C_12  and  O_13
REMARK    9  A    between atoms: O_13  and  C_14
REMARK                            x       y       z     vdW  Elec       q    Type
REMARK                         _______ _______ _______ _____ _____    ______ ____
ROOT
ATOM      1  O   UNL     1       1.787   5.556  18.705  0.00  0.00    +0.000 OA
ENDROOT
BRANCH   1   2
ATOM      2  C   UNL     1       2.574   4.379  18.748  0.00  0.00    +0.000 A 
ATOM      3  C   UNL     1       2.312   3.365  19.700  0.00  0.00    +0.000 A 
ATOM      4  C   UNL     1       1.184   2.859  20.392  0.00  0.00    +0.000 A 
ATOM      5  C   UNL     1       1.657   2.640  21.666  0.00  0.00    +0.000 A 
ATOM      6  O   UNL     1       3.009   2.479  21.629  0.00  0.00    +0.000 OA
ATOM      7  C   UNL     1       3.406   2.850  20.379  0.00  0.00    +0.000 A 
ATOM      8  C   UNL     1       4.694   2.875  19.897  0.00  0.00    +0.000 A 
ATOM      9  C   UNL     1       4.883   3.649  18.752  0.00  0.00    +0.000 A 
ATOM     10  O   UNL     1       6.216   3.757  18.326  0.00  0.00    +0.000 OA
ATOM     11  C   UNL     1       6.587   4.823  17.546  0.00  0.00    +0.000 A 
ATOM     12  O   UNL     1       7.739   5.221  17.456  0.00  0.00    +0.000 OA
ATOM     13  C   UNL     1       5.512   5.470  16.740  0.00  0.00    +0.000 A 
ATOM     14  C   UNL     1       4.234   5.308  17.063  0.00  0.00    +0.000 A 
ATOM     15  C   UNL     1       3.867   4.430  18.179  0.00  0.00    +0.000 A 
ENDBRANCH   1   2
BRANCH   1  16
ATOM     16  C   UNL     1       2.046   6.285  19.935  0.00  0.00    +0.000 C 
BRANCH  16  17
ATOM     17  C   UNL     1       2.003   7.803  19.862  0.00  0.00    +0.000 C 
BRANCH  17  18
ATOM     18  C   UNL     1       2.326   8.294  18.430  0.00  0.00    +0.000 C 
BRANCH  18  19
ATOM     19  C   UNL     1       1.350   9.348  17.899  0.00  0.00    +0.000 C 
BRANCH  19  20
ATOM     20  O   UNL     1       1.619  10.615  18.501  0.00  0.00    +0.000 OA
BRANCH  20  25
ATOM     21  C   UNL     1      -0.392  11.766  21.414  0.00  0.00    +0.000 A 
ATOM     22  C   UNL     1      -1.550  12.140  20.732  0.00  0.00    +0.000 A 
ATOM     23  C   UNL     1      -1.619  12.025  19.344  0.00  0.00    +0.000 A 
ATOM     24  C   UNL     1      -0.528  11.524  18.633  0.00  0.00    +0.000 A 
ATOM     25  C   UNL     1       0.631  11.128  19.303  0.00  0.00    +0.000 A 
ATOM     26  C   UNL     1       0.697  11.265  20.695  0.00  0.00    +0.000 A 
BRANCH  21  28
ATOM     27  C   UNL     1      -1.490  12.749  23.282  0.00  0.00    +0.000 C 
ATOM     28  O   UNL     1      -0.444  11.928  22.773  0.00  0.00    +0.000 OA
ENDBRANCH  21  28
ENDBRANCH  20  25
ENDBRANCH  19  20
ENDBRANCH  18  19
ENDBRANCH  17  18
ENDBRANCH  16  17
ENDBRANCH   1  16
TORSDOF 8
ENDMDL
MODEL 8
REMARK VINA RESULT:      -7.5      2.225      4.478
REMARK  Name = 
REMARK  9 active torsions:
REMARK  status: ('A' for Active; 'I' for Inactive)
REMARK    1  A    between atoms: C_1  and  O_2
REMARK    2  A    between atoms: O_2  and  C_3
REMARK    3  A    between atoms: C_7  and  O_8
REMARK    4  A    between atoms: O_8  and  C_9
REMARK    5  A    between atoms: C_9  and  C_10
REMARK    6  A    between atoms: C_10  and  C_11
REMARK    7  A    between atoms: C_11  and  C_12
REMARK    8  A    between atoms: C_12  and  O_13
REMARK    9  A    between atoms: O_13  and  C_14
REMARK                            x       y       z     vdW  Elec       q    Type
REMARK                         _______ _______ _______ _____ _____    ______ ____
ROOT
ATOM      1  O   UNL     1       4.433   6.192  19.227  0.00  0.00    +0.000 OA
ENDROOT
BRANCH   1   2
ATOM      2  C   UNL     1       4.615   4.850  18.814  0.00  0.00    +0.000 A 
ATOM      3  C   UNL     1       5.633   4.506  17.892  0.00  0.00    +0.000 A 
ATOM      4  C   UNL     1       6.920   4.984  17.542  0.00  0.00    +0.000 A 
ATOM      5  C   UNL     1       6.935   4.900  16.168  0.00  0.00    +0.000 A 
ATOM      6  O   UNL     1       6.027   3.971  15.759  0.00  0.00    +0.000 OA
ATOM      7  C   UNL     1       5.272   3.663  16.851  0.00  0.00    +0.000 A 
ATOM      8  C   UNL     1       4.213   2.787  16.900  0.00  0.00    +0.000 A 
ATOM      9  C   UNL     1       3.371   2.938  18.002  0.00  0.00    +0.000 A 
ATOM     10  O   UNL     1       2.236   2.113  17.994  0.00  0.00    +0.000 OA
ATOM     11  C   UNL     1       1.134   2.480  18.724  0.00  0.00    +0.000 A 
ATOM     12  O   UNL     1       0.005   2.077  18.488  0.00  0.00    +0.000 OA
ATOM     13  C   UNL     1       1.373   3.376  19.893  0.00  0.00    +0.000 A 
ATOM     14  C   UNL     1       2.485   4.098  19.976  0.00  0.00    +0.000 A 
ATOM     15  C   UNL     1       3.521   3.966  18.947  0.00  0.00    +0.000 A 
ENDBRANCH   1   2
BRANCH   1  16
ATOM     16  C   UNL     1       3.839   6.905  18.110  0.00  0.00    +0.000 C 
BRANCH  16  17
ATOM     17  C   UNL     1       2.397   7.358  18.265  0.00  0.00    +0.000 C 
BRANCH  17  18
ATOM     18  C   UNL     1       2.231   8.830  17.816  0.00  0.00    +0.000 C 
BRANCH  18  19
ATOM     19  C   UNL     1       1.285   9.648  18.700  0.00  0.00    +0.000 C 
BRANCH  19  20
ATOM     20  O   UNL     1       1.057   8.969  19.936  0.00  0.00    +0.000 OA
BRANCH  20  25
ATOM     21  C   UNL     1      -1.187  11.387  21.660  0.00  0.00    +0.000 A 
ATOM     22  C   UNL     1      -1.064  10.895  22.959  0.00  0.00    +0.000 A 
ATOM     23  C   UNL     1      -0.273   9.775  23.216  0.00  0.00    +0.000 A 
ATOM     24  C   UNL     1       0.409   9.151  22.172  0.00  0.00    +0.000 A 
ATOM     25  C   UNL     1       0.310   9.643  20.870  0.00  0.00    +0.000 A 
ATOM     26  C   UNL     1      -0.502  10.756  20.618  0.00  0.00    +0.000 A 
BRANCH  21  28
ATOM     27  C   UNL     1      -2.392  12.842  20.213  0.00  0.00    +0.000 C 
ATOM     28  O   UNL     1      -1.994  12.487  21.533  0.00  0.00    +0.000 OA
ENDBRANCH  21  28
ENDBRANCH  20  25
ENDBRANCH  19  20
ENDBRANCH  18  19
ENDBRANCH  17  18
ENDBRANCH  16  17
ENDBRANCH   1  16
TORSDOF 8
ENDMDL
MODEL 9
REMARK VINA RESULT:      -7.5      5.106      8.321
REMARK  Name = 
REMARK  9 active torsions:
REMARK  status: ('A' for Active; 'I' for Inactive)
REMARK    1  A    between atoms: C_1  and  O_2
REMARK    2  A    between atoms: O_2  and  C_3
REMARK    3  A    between atoms: C_7  and  O_8
REMARK    4  A    between atoms: O_8  and  C_9
REMARK    5  A    between atoms: C_9  and  C_10
REMARK    6  A    between atoms: C_10  and  C_11
REMARK    7  A    between atoms: C_11  and  C_12
REMARK    8  A    between atoms: C_12  and  O_13
REMARK    9  A    between atoms: O_13  and  C_14
REMARK                            x       y       z     vdW  Elec       q    Type
REMARK                         _______ _______ _______ _____ _____    ______ ____
ROOT
ATOM      1  O   UNL     1       6.122   4.344  18.392  0.00  0.00    +0.000 OA
ENDROOT
BRANCH   1   2
ATOM      2  C   UNL     1       4.736   4.551  18.185  0.00  0.00    +0.000 A 
ATOM      3  C   UNL     1       4.272   5.664  17.445  0.00  0.00    +0.000 A 
ATOM      4  C   UNL     1       4.741   6.468  16.376  0.00  0.00    +0.000 A 
ATOM      5  C   UNL     1       4.382   7.744  16.749  0.00  0.00    +0.000 A 
ATOM      6  O   UNL     1       3.340   7.687  17.624  0.00  0.00    +0.000 OA
ATOM      7  C   UNL     1       3.217   6.381  17.992  0.00  0.00    +0.000 A 
ATOM      8  C   UNL     1       2.311   5.858  18.884  0.00  0.00    +0.000 A 
ATOM      9  C   UNL     1       2.633   4.596  19.384  0.00  0.00    +0.000 A 
ATOM     10  O   UNL     1       1.761   4.113  20.372  0.00  0.00    +0.000 OA
ATOM     11  C   UNL     1       2.205   3.156  21.251  0.00  0.00    +0.000 A 
ATOM     12  O   UNL     1       1.699   2.963  22.346  0.00  0.00    +0.000 OA
ATOM     13  C   UNL     1       3.330   2.293  20.788  0.00  0.00    +0.000 A 
ATOM     14  C   UNL     1       4.115   2.681  19.789  0.00  0.00    +0.000 A 
ATOM     15  C   UNL     1       3.837   3.937  19.086  0.00  0.00    +0.000 A 
ENDBRANCH   1   2
BRANCH   1  16
ATOM     16  C   UNL     1       6.591   5.423  19.243  0.00  0.00    +0.000 C 
BRANCH  16  17
ATOM     17  C   UNL     1       7.967   5.995  18.942  0.00  0.00    +0.000 C 
BRANCH  17  18
ATOM     18  C   UNL     1       7.851   7.326  18.162  0.00  0.00    +0.000 C 
BRANCH  18  19
ATOM     19  C   UNL     1       8.543   8.510  18.843  0.00  0.00    +0.000 C 
BRANCH  19  20
ATOM     20  O   UNL     1       8.691   9.590  17.921  0.00  0.00    +0.000 OA
BRANCH  20  25
ATOM     21  C   UNL     1       9.845  13.100  18.374  0.00  0.00    +0.000 A 
ATOM     22  C   UNL     1      10.419  12.969  19.639  0.00  0.00    +0.000 A 
ATOM     23  C   UNL     1      10.382  11.744  20.305  0.00  0.00    +0.000 A 
ATOM     24  C   UNL     1       9.780  10.641  19.700  0.00  0.00    +0.000 A 
ATOM     25  C   UNL     1       9.218  10.752  18.427  0.00  0.00    +0.000 A 
ATOM     26  C   UNL     1       9.243  11.991  17.773  0.00  0.00    +0.000 A 
BRANCH  21  28
ATOM     27  C   UNL     1      10.751  15.296  18.515  0.00  0.00    +0.000 C 
ATOM     28  O   UNL     1       9.941  14.351  17.824  0.00  0.00    +0.000 OA
ENDBRANCH  21  28
ENDBRANCH  20  25
ENDBRANCH  19  20
ENDBRANCH  18  19
ENDBRANCH  17  18
ENDBRANCH  16  17
ENDBRANCH   1  16
TORSDOF 8
ENDMDL
