MODEL 1
REMARK VINA RESULT:      -7.0      0.000      0.000
REMARK  Name = 
REMARK  8 active torsions:
REMARK  status: ('A' for Active; 'I' for Inactive)
REMARK    1  A    between atoms: C_1  and  C_2
REMARK    2  A    between atoms: C_2  and  O_3
REMARK    3  A    between atoms: O_3  and  C_4
REMARK    4  A    between atoms: C_4  and  C_6
REMARK    5  A    between atoms: N_10  and  C_11
REMARK    6  A    between atoms: C_11  and  C_12
REMARK    7  A    between atoms: C_12  and  O_14
REMARK    8  A    between atoms: O_14  and  C_15
REMARK                            x       y       z     vdW  Elec       q    Type
REMARK                         _______ _______ _______ _____ _____    ______ ____
ROOT
ATOM      1  C   UNL     1       5.470   4.851  16.841  0.00  0.00    +0.000 C 
ATOM      2  C   UNL     1       4.524   4.897  17.796  0.00  0.00    +0.000 C 
ATOM      3  C   UNL     1       4.332   3.715  18.716  0.00  0.00    +0.000 C 
ATOM      4  O   UNL     1       4.877   2.631  18.625  0.00  0.00    +0.000 OA
ATOM      5  N   UNL     1       3.461   4.166  19.706  0.00  0.00    +0.000 N 
ATOM      6  C   UNL     1       3.043   5.485  19.454  0.00  0.00    +0.000 A 
ATOM      7  C   UNL     1       2.181   6.269  20.203  0.00  0.00    +0.000 A 
ATOM      8  C   UNL     1       1.899   7.559  19.741  0.00  0.00    +0.000 A 
ATOM      9  C   UNL     1       2.443   8.016  18.535  0.00  0.00    +0.000 A 
ATOM     10 BR   UNL     1       2.043   9.761  17.925  0.00  0.00    +0.000 Br
ATOM     11  C   UNL     1       3.294   7.210  17.777  0.00  0.00    +0.000 A 
ATOM     12  C   UNL     1       3.630   5.961  18.272  0.00  0.00    +0.000 A 
ENDROOT
BRANCH   1  13
ATOM     13  C   UNL     1       5.875   6.035  16.065  0.00  0.00    +0.000 C 
ATOM     14  O   UNL     1       5.154   6.604  15.264  0.00  0.00    +0.000 OA
BRANCH  13  15
ATOM     15  O   UNL     1       7.166   6.341  16.334  0.00  0.00    +0.000 OA
BRANCH  15  17
ATOM     16  C   UNL     1       7.955   6.514  18.720  0.00  0.00    +0.000 C 
ATOM     17  C   UNL     1       7.390   7.188  17.477  0.00  0.00    +0.000 C 
ENDBRANCH  15  17
ENDBRANCH  13  15
ENDBRANCH   1  13
BRANCH   5  18
ATOM     18  C   UNL     1       3.093   3.386  20.871  0.00  0.00    +0.000 C 
BRANCH  18  19
ATOM     19  C   UNL     1       1.790   2.598  20.813  0.00  0.00    +0.000 C 
ATOM     20  O   UNL     1       0.966   2.630  21.723  0.00  0.00    +0.000 OA
BRANCH  19  21
ATOM     21  O   UNL     1       1.634   1.884  19.666  0.00  0.00    +0.000 OA
ATOM     22  C   UNL     1       0.671   2.443  18.768  0.00  0.00    +0.000 C 
ENDBRANCH  19  21
ENDBRANCH  18  19
ENDBRANCH   5  18
TORSDOF 6
ENDMDL
MODEL 2
REMARK VINA RESULT:      -7.0      3.131      6.113
REMARK  Name = 
REMARK  8 active torsions:
REMARK  status: ('A' for Active; 'I' for Inactive)
REMARK    1  A    between atoms: C_1  and  C_2
REMARK    2  A    between atoms: C_2  and  O_3
REMARK    3  A    between atoms: O_3  and  C_4
REMARK    4  A    between atoms: C_4  and  C_6
REMARK    5  A    between atoms: N_10  and  C_11
REMARK    6  A    between atoms: C_11  and  C_12
REMARK    7  A    between atoms: C_12  and  O_14
REMARK    8  A    between atoms: O_14  and  C_15
REMARK                            x       y       z     vdW  Elec       q    Type
REMARK                         _______ _______ _______ _____ _____    ______ ____
ROOT
ATOM      1  C   UNL     1       3.459   7.773  17.717  0.00  0.00    +0.000 C 
ATOM      2  C   UNL     1       3.894   6.555  17.349  0.00  0.00    +0.000 C 
ATOM      3  C   UNL     1       5.217   6.417  16.635  0.00  0.00    +0.000 C 
ATOM      4  O   UNL     1       5.922   7.325  16.234  0.00  0.00    +0.000 OA
ATOM      5  N   UNL     1       5.471   5.047  16.606  0.00  0.00    +0.000 N 
ATOM      6  C   UNL     1       4.406   4.320  17.169  0.00  0.00    +0.000 A 
ATOM      7  C   UNL     1       4.287   2.948  17.315  0.00  0.00    +0.000 A 
ATOM      8  C   UNL     1       3.117   2.449  17.897  0.00  0.00    +0.000 A 
ATOM      9  C   UNL     1       2.086   3.318  18.276  0.00  0.00    +0.000 A 
ATOM     10 BR   UNL     1       0.510   2.622  19.055  0.00  0.00    +0.000 Br
ATOM     11  C   UNL     1       2.208   4.697  18.106  0.00  0.00    +0.000 A 
ATOM     12  C   UNL     1       3.396   5.195  17.597  0.00  0.00    +0.000 A 
ENDROOT
BRANCH   1  13
ATOM     13  C   UNL     1       2.307   7.969  18.613  0.00  0.00    +0.000 C 
ATOM     14  O   UNL     1       2.268   7.580  19.767  0.00  0.00    +0.000 OA
BRANCH  13  15
ATOM     15  O   UNL     1       1.301   8.579  17.942  0.00  0.00    +0.000 OA
BRANCH  15  17
ATOM     16  C   UNL     1      -0.211  10.128  19.230  0.00  0.00    +0.000 C 
ATOM     17  C   UNL     1       1.007   9.932  18.338  0.00  0.00    +0.000 C 
ENDBRANCH  15  17
ENDBRANCH  13  15
ENDBRANCH   1  13
BRANCH   5  18
ATOM     18  C   UNL     1       6.704   4.466  16.114  0.00  0.00    +0.000 C 
BRANCH  18  19
ATOM     19  C   UNL     1       6.938   4.474  14.608  0.00  0.00    +0.000 C 
ATOM     20  O   UNL     1       6.362   3.695  13.853  0.00  0.00    +0.000 OA
BRANCH  19  21
ATOM     21  O   UNL     1       7.820   5.423  14.197  0.00  0.00    +0.000 OA
ATOM     22  C   UNL     1       8.049   5.421  12.784  0.00  0.00    +0.000 C 
ENDBRANCH  19  21
ENDBRANCH  18  19
ENDBRANCH   5  18
TORSDOF 6
ENDMDL
MODEL 3
REMARK VINA RESULT:      -7.0      1.096      1.676
REMARK  Name = 
REMARK  8 active torsions:
REMARK  status: ('A' for Active; 'I' for Inactive)
REMARK    1  A    between atoms: C_1  and  C_2
REMARK    2  A    between atoms: C_2  and  O_3
REMARK    3  A    between atoms: O_3  and  C_4
REMARK    4  A    between atoms: C_4  and  C_6
REMARK    5  A    between atoms: N_10  and  C_11
REMARK    6  A    between atoms: C_11  and  C_12
REMARK    7  A    between atoms: C_12  and  O_14
REMARK    8  A    between atoms: O_14  and  C_15
REMARK                            x       y       z     vdW  Elec       q    Type
REMARK                         _______ _______ _______ _____ _____    ______ ____
ROOT
ATOM      1  C   UNL     1       5.316   5.238  17.301  0.00  0.00    +0.000 C 
ATOM      2  C   UNL     1       4.321   5.330  18.201  0.00  0.00    +0.000 C 
ATOM      3  C   UNL     1       4.093   4.205  19.181  0.00  0.00    +0.000 C 
ATOM      4  O   UNL     1       4.653   3.125  19.187  0.00  0.00    +0.000 OA
ATOM      5  N   UNL     1       3.167   4.705  20.095  0.00  0.00    +0.000 N 
ATOM      6  C   UNL     1       2.750   6.000  19.740  0.00  0.00    +0.000 A 
ATOM      7  C   UNL     1       1.842   6.818  20.394  0.00  0.00    +0.000 A 
ATOM      8  C   UNL     1       1.572   8.072  19.838  0.00  0.00    +0.000 A 
ATOM      9  C   UNL     1       2.174   8.461  18.635  0.00  0.00    +0.000 A 
ATOM     10 BR   UNL     1       1.789  10.160  17.898  0.00  0.00    +0.000 Br
ATOM     11  C   UNL     1       3.070   7.622  17.974  0.00  0.00    +0.000 A 
ATOM     12  C   UNL     1       3.393   6.410  18.563  0.00  0.00    +0.000 A 
ENDROOT
BRANCH   1  13
ATOM     13  C   UNL     1       5.749   6.377  16.474  0.00  0.00    +0.000 C 
ATOM     14  O   UNL     1       6.376   7.330  16.904  0.00  0.00    +0.000 OA
BRANCH  13  15
ATOM     15  O   UNL     1       5.294   6.227  15.208  0.00  0.00    +0.000 OA
BRANCH  15  17
ATOM     16  C   UNL     1       7.004   4.781  14.056  0.00  0.00    +0.000 C 
ATOM     17  C   UNL     1       5.586   4.965  14.577  0.00  0.00    +0.000 C 
ENDBRANCH  15  17
ENDBRANCH  13  15
ENDBRANCH   1  13
BRANCH   5  18
ATOM     18  C   UNL     1       2.747   3.994  21.286  0.00  0.00    +0.000 C 
BRANCH  18  19
ATOM     19  C   UNL     1       1.468   3.169  21.204  0.00  0.00    +0.000 C 
ATOM     20  O   UNL     1       1.148   2.371  22.081  0.00  0.00    +0.000 OA
BRANCH  19  21
ATOM     21  O   UNL     1       0.729   3.417  20.091  0.00  0.00    +0.000 OA
ATOM     22  C   UNL     1       0.862   2.415  19.078  0.00  0.00    +0.000 C 
ENDBRANCH  19  21
ENDBRANCH  18  19
ENDBRANCH   5  18
TORSDOF 6
ENDMDL
MODEL 4
REMARK VINA RESULT:      -6.9      3.090      5.864
REMARK  Name = 
REMARK  8 active torsions:
REMARK  status: ('A' for Active; 'I' for Inactive)
REMARK    1  A    between atoms: C_1  and  C_2
REMARK    2  A    between atoms: C_2  and  O_3
REMARK    3  A    between atoms: O_3  and  C_4
REMARK    4  A    between atoms: C_4  and  C_6
REMARK    5  A    between atoms: N_10  and  C_11
REMARK    6  A    between atoms: C_11  and  C_12
REMARK    7  A    between atoms: C_12  and  O_14
REMARK    8  A    between atoms: O_14  and  C_15
REMARK                            x       y       z     vdW  Elec       q    Type
REMARK                         _______ _______ _______ _____ _____    ______ ____
ROOT
ATOM      1  C   UNL     1       3.377   7.839  17.755  0.00  0.00    +0.000 C 
ATOM      2  C   UNL     1       3.847   6.629  17.402  0.00  0.00    +0.000 C 
ATOM      3  C   UNL     1       5.198   6.517  16.737  0.00  0.00    +0.000 C 
ATOM      4  O   UNL     1       5.900   7.438  16.362  0.00  0.00    +0.000 OA
ATOM      5  N   UNL     1       5.478   5.152  16.718  0.00  0.00    +0.000 N 
ATOM      6  C   UNL     1       4.408   4.405  17.242  0.00  0.00    +0.000 A 
ATOM      7  C   UNL     1       4.310   3.030  17.384  0.00  0.00    +0.000 A 
ATOM      8  C   UNL     1       3.129   2.509  17.922  0.00  0.00    +0.000 A 
ATOM      9  C   UNL     1       2.069   3.358  18.264  0.00  0.00    +0.000 A 
ATOM     10 BR   UNL     1       0.479   2.632  18.985  0.00  0.00    +0.000 Br
ATOM     11  C   UNL     1       2.170   4.739  18.098  0.00  0.00    +0.000 A 
ATOM     12  C   UNL     1       3.367   5.260  17.632  0.00  0.00    +0.000 A 
ENDROOT
BRANCH   1  13
ATOM     13  C   UNL     1       2.189   8.012  18.608  0.00  0.00    +0.000 C 
ATOM     14  O   UNL     1       1.146   8.516  18.229  0.00  0.00    +0.000 OA
BRANCH  13  15
ATOM     15  O   UNL     1       2.461   7.592  19.866  0.00  0.00    +0.000 OA
BRANCH  15  17
ATOM     16  C   UNL     1       1.285   8.744  21.772  0.00  0.00    +0.000 C 
ATOM     17  C   UNL     1       1.351   7.588  20.784  0.00  0.00    +0.000 C 
ENDBRANCH  15  17
ENDBRANCH  13  15
ENDBRANCH   1  13
BRANCH   5  18
ATOM     18  C   UNL     1       6.739   4.595  16.270  0.00  0.00    +0.000 C 
BRANCH  18  19
ATOM     19  C   UNL     1       7.016   4.583  14.771  0.00  0.00    +0.000 C 
ATOM     20  O   UNL     1       7.771   5.392  14.240  0.00  0.00    +0.000 OA
BRANCH  19  21
ATOM     21  O   UNL     1       6.365   3.593  14.104  0.00  0.00    +0.000 OA
ATOM     22  C   UNL     1       6.450   3.709  12.680  0.00  0.00    +0.000 C 
ENDBRANCH  19  21
ENDBRANCH  18  19
ENDBRANCH   5  18
TORSDOF 6
ENDMDL
MODEL 5
REMARK VINA RESULT:      -6.7      1.210      1.546
REMARK  Name = 
REMARK  8 active torsions:
REMARK  status: ('A' for Active; 'I' for Inactive)
REMARK    1  A    between atoms: C_1  and  C_2
REMARK    2  A    between atoms: C_2  and  O_3
REMARK    3  A    between atoms: O_3  and  C_4
REMARK    4  A    between atoms: C_4  and  C_6
REMARK    5  A    between atoms: N_10  and  C_11
REMARK    6  A    between atoms: C_11  and  C_12
REMARK    7  A    between atoms: C_12  and  O_14
REMARK    8  A    between atoms: O_14  and  C_15
REMARK                            x       y       z     vdW  Elec       q    Type
REMARK                         _______ _______ _______ _____ _____    ______ ____
ROOT
ATOM      1  C   UNL     1       5.026   5.164  16.186  0.00  0.00    +0.000 C 
ATOM      2  C   UNL     1       4.106   4.951  17.143  0.00  0.00    +0.000 C 
ATOM      3  C   UNL     1       3.869   3.551  17.654  0.00  0.00    +0.000 C 
ATOM      4  O   UNL     1       4.351   2.526  17.209  0.00  0.00    +0.000 OA
ATOM      5  N   UNL     1       3.048   3.707  18.769  0.00  0.00    +0.000 N 
ATOM      6  C   UNL     1       2.698   5.057  18.958  0.00  0.00    +0.000 A 
ATOM      7  C   UNL     1       1.898   5.605  19.948  0.00  0.00    +0.000 A 
ATOM      8  C   UNL     1       1.678   6.986  19.922  0.00  0.00    +0.000 A 
ATOM      9  C   UNL     1       2.219   7.773  18.899  0.00  0.00    +0.000 A 
ATOM     10 BR   UNL     1       1.903   9.637  18.881  0.00  0.00    +0.000 Br
ATOM     11  C   UNL     1       3.006   7.208  17.895  0.00  0.00    +0.000 A 
ATOM     12  C   UNL     1       3.284   5.852  17.962  0.00  0.00    +0.000 A 
ENDROOT
BRANCH   1  13
ATOM     13  C   UNL     1       5.479   6.512  15.803  0.00  0.00    +0.000 C 
ATOM     14  O   UNL     1       5.025   7.142  14.864  0.00  0.00    +0.000 OA
BRANCH  13  15
ATOM     15  O   UNL     1       6.498   6.901  16.606  0.00  0.00    +0.000 OA
BRANCH  15  17
ATOM     16  C   UNL     1       7.659   6.019  18.660  0.00  0.00    +0.000 C 
ATOM     17  C   UNL     1       7.274   5.841  17.198  0.00  0.00    +0.000 C 
ENDBRANCH  15  17
ENDBRANCH  13  15
ENDBRANCH   1  13
BRANCH   5  18
ATOM     18  C   UNL     1       2.663   2.619  19.646  0.00  0.00    +0.000 C 
BRANCH  18  19
ATOM     19  C   UNL     1       3.559   2.324  20.843  0.00  0.00    +0.000 C 
ATOM     20  O   UNL     1       4.753   2.065  20.717  0.00  0.00    +0.000 OA
BRANCH  19  21
ATOM     21  O   UNL     1       2.915   2.392  22.038  0.00  0.00    +0.000 OA
ATOM     22  C   UNL     1       1.503   2.594  21.918  0.00  0.00    +0.000 C 
ENDBRANCH  19  21
ENDBRANCH  18  19
ENDBRANCH   5  18
TORSDOF 6
ENDMDL
MODEL 6
REMARK VINA RESULT:      -6.7      3.308      6.685
REMARK  Name = 
REMARK  8 active torsions:
REMARK  status: ('A' for Active; 'I' for Inactive)
REMARK    1  A    between atoms: C_1  and  C_2
REMARK    2  A    between atoms: C_2  and  O_3
REMARK    3  A    between atoms: O_3  and  C_4
REMARK    4  A    between atoms: C_4  and  C_6
REMARK    5  A    between atoms: N_10  and  C_11
REMARK    6  A    between atoms: C_11  and  C_12
REMARK    7  A    between atoms: C_12  and  O_14
REMARK    8  A    between atoms: O_14  and  C_15
REMARK                            x       y       z     vdW  Elec       q    Type
REMARK                         _______ _______ _______ _____ _____    ______ ____
ROOT
ATOM      1  C   UNL     1       4.144   3.496  18.496  0.00  0.00    +0.000 C 
ATOM      2  C   UNL     1       5.059   4.265  17.881  0.00  0.00    +0.000 C 
ATOM      3  C   UNL     1       5.924   5.196  18.696  0.00  0.00    +0.000 C 
ATOM      4  O   UNL     1       5.815   5.430  19.885  0.00  0.00    +0.000 OA
ATOM      5  N   UNL     1       6.893   5.658  17.808  0.00  0.00    +0.000 N 
ATOM      6  C   UNL     1       6.675   5.160  16.511  0.00  0.00    +0.000 A 
ATOM      7  C   UNL     1       7.417   5.396  15.366  0.00  0.00    +0.000 A 
ATOM      8  C   UNL     1       6.994   4.798  14.175  0.00  0.00    +0.000 A 
ATOM      9  C   UNL     1       5.830   4.020  14.145  0.00  0.00    +0.000 A 
ATOM     10 BR   UNL     1       5.271   3.225  12.523  0.00  0.00    +0.000 Br
ATOM     11  C   UNL     1       5.078   3.805  15.301  0.00  0.00    +0.000 A 
ATOM     12  C   UNL     1       5.538   4.339  16.494  0.00  0.00    +0.000 A 
ENDROOT
BRANCH   1  13
ATOM     13  C   UNL     1       3.432   2.404  17.811  0.00  0.00    +0.000 C 
ATOM     14  O   UNL     1       3.820   1.249  17.785  0.00  0.00    +0.000 OA
BRANCH  13  15
ATOM     15  O   UNL     1       2.339   2.892  17.178  0.00  0.00    +0.000 OA
BRANCH  15  17
ATOM     16  C   UNL     1       0.598   2.687  18.986  0.00  0.00    +0.000 C 
ATOM     17  C   UNL     1       1.374   3.562  18.011  0.00  0.00    +0.000 C 
ENDBRANCH  15  17
ENDBRANCH  13  15
ENDBRANCH   1  13
BRANCH   5  18
ATOM     18  C   UNL     1       8.011   6.494  18.200  0.00  0.00    +0.000 C 
BRANCH  18  19
ATOM     19  C   UNL     1       7.898   7.992  17.946  0.00  0.00    +0.000 C 
ATOM     20  O   UNL     1       7.159   8.454  17.081  0.00  0.00    +0.000 OA
BRANCH  19  21
ATOM     21  O   UNL     1       8.673   8.746  18.770  0.00  0.00    +0.000 OA
ATOM     22  C   UNL     1       8.866  10.087  18.310  0.00  0.00    +0.000 C 
ENDBRANCH  19  21
ENDBRANCH  18  19
ENDBRANCH   5  18
TORSDOF 6
ENDMDL
MODEL 7
REMARK VINA RESULT:      -6.7      3.060      5.975
REMARK  Name = 
REMARK  8 active torsions:
REMARK  status: ('A' for Active; 'I' for Inactive)
REMARK    1  A    between atoms: C_1  and  C_2
REMARK    2  A    between atoms: C_2  and  O_3
REMARK    3  A    between atoms: O_3  and  C_4
REMARK    4  A    between atoms: C_4  and  C_6
REMARK    5  A    between atoms: N_10  and  C_11
REMARK    6  A    between atoms: C_11  and  C_12
REMARK    7  A    between atoms: C_12  and  O_14
REMARK    8  A    between atoms: O_14  and  C_15
REMARK                            x       y       z     vdW  Elec       q    Type
REMARK                         _______ _______ _______ _____ _____    ______ ____
ROOT
ATOM      1  C   UNL     1       3.157   7.919  17.574  0.00  0.00    +0.000 C 
ATOM      2  C   UNL     1       3.676   6.685  17.451  0.00  0.00    +0.000 C 
ATOM      3  C   UNL     1       4.906   6.472  16.602  0.00  0.00    +0.000 C 
ATOM      4  O   UNL     1       5.449   7.298  15.892  0.00  0.00    +0.000 OA
ATOM      5  N   UNL     1       5.307   5.164  16.868  0.00  0.00    +0.000 N 
ATOM      6  C   UNL     1       4.410   4.525  17.744  0.00  0.00    +0.000 A 
ATOM      7  C   UNL     1       4.466   3.231  18.234  0.00  0.00    +0.000 A 
ATOM      8  C   UNL     1       3.441   2.808  19.088  0.00  0.00    +0.000 A 
ATOM      9  C   UNL     1       2.376   3.663  19.396  0.00  0.00    +0.000 A 
ATOM     10 BR   UNL     1       0.998   3.069  20.546  0.00  0.00    +0.000 Br
ATOM     11  C   UNL     1       2.318   4.958  18.879  0.00  0.00    +0.000 A 
ATOM     12  C   UNL     1       3.370   5.399  18.093  0.00  0.00    +0.000 A 
ENDROOT
BRANCH   1  13
ATOM     13  C   UNL     1       2.112   8.248  18.558  0.00  0.00    +0.000 C 
ATOM     14  O   UNL     1       2.184   7.978  19.744  0.00  0.00    +0.000 OA
BRANCH  13  15
ATOM     15  O   UNL     1       1.058   8.826  17.934  0.00  0.00    +0.000 OA
BRANCH  15  17
ATOM     16  C   UNL     1      -0.874  10.440  18.018  0.00  0.00    +0.000 C 
ATOM     17  C   UNL     1       0.318   9.790  18.707  0.00  0.00    +0.000 C 
ENDBRANCH  15  17
ENDBRANCH  13  15
ENDBRANCH   1  13
BRANCH   5  18
ATOM     18  C   UNL     1       6.526   4.573  16.352  0.00  0.00    +0.000 C 
BRANCH  18  19
ATOM     19  C   UNL     1       6.779   4.669  14.852  0.00  0.00    +0.000 C 
ATOM     20  O   UNL     1       7.718   5.310  14.388  0.00  0.00    +0.000 OA
BRANCH  19  21
ATOM     21  O   UNL     1       5.884   3.974  14.102  0.00  0.00    +0.000 OA
ATOM     22  C   UNL     1       6.362   3.649  12.792  0.00  0.00    +0.000 C 
ENDBRANCH  19  21
ENDBRANCH  18  19
ENDBRANCH   5  18
TORSDOF 6
ENDMDL
MODEL 8
REMARK VINA RESULT:      -6.6      2.968      5.811
REMARK  Name = 
REMARK  8 active torsions:
REMARK  status: ('A' for Active; 'I' for Inactive)
REMARK    1  A    between atoms: C_1  and  C_2
REMARK    2  A    between atoms: C_2  and  O_3
REMARK    3  A    between atoms: O_3  and  C_4
REMARK    4  A    between atoms: C_4  and  C_6
REMARK    5  A    between atoms: N_10  and  C_11
REMARK    6  A    between atoms: C_11  and  C_12
REMARK    7  A    between atoms: C_12  and  O_14
REMARK    8  A    between atoms: O_14  and  C_15
REMARK                            x       y       z     vdW  Elec       q    Type
REMARK                         _______ _______ _______ _____ _____    ______ ____
ROOT
ATOM      1  C   UNL     1       3.085   7.670  17.706  0.00  0.00    +0.000 C 
ATOM      2  C   UNL     1       3.468   6.399  17.489  0.00  0.00    +0.000 C 
ATOM      3  C   UNL     1       4.525   6.103  16.452  0.00  0.00    +0.000 C 
ATOM      4  O   UNL     1       5.017   6.897  15.672  0.00  0.00    +0.000 OA
ATOM      5  N   UNL     1       4.846   4.760  16.637  0.00  0.00    +0.000 N 
ATOM      6  C   UNL     1       4.047   4.179  17.639  0.00  0.00    +0.000 A 
ATOM      7  C   UNL     1       4.067   2.873  18.101  0.00  0.00    +0.000 A 
ATOM      8  C   UNL     1       3.158   2.519  19.104  0.00  0.00    +0.000 A 
ATOM      9  C   UNL     1       2.234   3.453  19.587  0.00  0.00    +0.000 A 
ATOM     10 BR   UNL     1       1.010   2.951  20.938  0.00  0.00    +0.000 Br
ATOM     11  C   UNL     1       2.209   4.760  19.099  0.00  0.00    +0.000 A 
ATOM     12  C   UNL     1       3.157   5.129  18.159  0.00  0.00    +0.000 A 
ENDROOT
BRANCH   1  13
ATOM     13  C   UNL     1       2.243   8.063  18.848  0.00  0.00    +0.000 C 
ATOM     14  O   UNL     1       2.437   7.699  19.995  0.00  0.00    +0.000 OA
BRANCH  13  15
ATOM     15  O   UNL     1       1.207   8.821  18.416  0.00  0.00    +0.000 OA
BRANCH  15  17
ATOM     16  C   UNL     1       1.112  11.162  19.341  0.00  0.00    +0.000 C 
ATOM     17  C   UNL     1       0.633   9.717  19.387  0.00  0.00    +0.000 C 
ENDBRANCH  15  17
ENDBRANCH  13  15
ENDBRANCH   1  13
BRANCH   5  18
ATOM     18  C   UNL     1       5.911   4.081  15.926  0.00  0.00    +0.000 C 
BRANCH  18  19
ATOM     19  C   UNL     1       7.326   4.627  16.080  0.00  0.00    +0.000 C 
ATOM     20  O   UNL     1       7.974   4.479  17.112  0.00  0.00    +0.000 OA
BRANCH  19  21
ATOM     21  O   UNL     1       7.787   5.266  14.973  0.00  0.00    +0.000 OA
ATOM     22  C   UNL     1       7.115   4.887  13.768  0.00  0.00    +0.000 C 
ENDBRANCH  19  21
ENDBRANCH  18  19
ENDBRANCH   5  18
TORSDOF 6
ENDMDL
MODEL 9
REMARK VINA RESULT:      -6.6      1.673      5.552
REMARK  Name = 
REMARK  8 active torsions:
REMARK  status: ('A' for Active; 'I' for Inactive)
REMARK    1  A    between atoms: C_1  and  C_2
REMARK    2  A    between atoms: C_2  and  O_3
REMARK    3  A    between atoms: O_3  and  C_4
REMARK    4  A    between atoms: C_4  and  C_6
REMARK    5  A    between atoms: N_10  and  C_11
REMARK    6  A    between atoms: C_11  and  C_12
REMARK    7  A    between atoms: C_12  and  O_14
REMARK    8  A    between atoms: O_14  and  C_15
REMARK                            x       y       z     vdW  Elec       q    Type
REMARK                         _______ _______ _______ _____ _____    ______ ____
ROOT
ATOM      1  C   UNL     1       2.829   2.629  17.867  0.00  0.00    +0.000 C 
ATOM      2  C   UNL     1       3.369   3.847  17.683  0.00  0.00    +0.000 C 
ATOM      3  C   UNL     1       4.439   4.040  16.636  0.00  0.00    +0.000 C 
ATOM      4  O   UNL     1       4.980   3.167  15.983  0.00  0.00    +0.000 OA
ATOM      5  N   UNL     1       4.610   5.420  16.544  0.00  0.00    +0.000 N 
ATOM      6  C   UNL     1       3.802   6.095  17.477  0.00  0.00    +0.000 A 
ATOM      7  C   UNL     1       3.698   7.460  17.691  0.00  0.00    +0.000 A 
ATOM      8  C   UNL     1       2.830   7.902  18.695  0.00  0.00    +0.000 A 
ATOM      9  C   UNL     1       2.126   6.982  19.481  0.00  0.00    +0.000 A 
ATOM     10 BR   UNL     1       0.963   7.600  20.838  0.00  0.00    +0.000 Br
ATOM     11  C   UNL     1       2.253   5.608  19.270  0.00  0.00    +0.000 A 
ATOM     12  C   UNL     1       3.057   5.175  18.229  0.00  0.00    +0.000 A 
ENDROOT
BRANCH   1  13
ATOM     13  C   UNL     1       1.630   2.406  18.693  0.00  0.00    +0.000 C 
ATOM     14  O   UNL     1       0.492   2.611  18.310  0.00  0.00    +0.000 OA
BRANCH  13  15
ATOM     15  O   UNL     1       1.995   2.011  19.936  0.00  0.00    +0.000 OA
BRANCH  15  17
ATOM     16  C   UNL     1       2.203   3.360  22.052  0.00  0.00    +0.000 C 
ATOM     17  C   UNL     1       1.319   2.661  21.029  0.00  0.00    +0.000 C 
ENDBRANCH  15  17
ENDBRANCH  13  15
ENDBRANCH   1  13
BRANCH   5  18
ATOM     18  C   UNL     1       5.466   6.063  15.567  0.00  0.00    +0.000 C 
BRANCH  18  19
ATOM     19  C   UNL     1       6.968   6.048  15.824  0.00  0.00    +0.000 C 
ATOM     20  O   UNL     1       7.723   5.273  15.242  0.00  0.00    +0.000 OA
BRANCH  19  21
ATOM     21  O   UNL     1       7.376   6.973  16.733  0.00  0.00    +0.000 OA
ATOM     22  C   UNL     1       7.543   6.447  18.053  0.00  0.00    +0.000 C 
ENDBRANCH  19  21
ENDBRANCH  18  19
ENDBRANCH   5  18
TORSDOF 6
ENDMDL
