MODEL 1
REMARK VINA RESULT:      -8.1      0.000      0.000
REMARK  Name = 
REMARK  6 active torsions:
REMARK  status: ('A' for Active; 'I' for Inactive)
REMARK    1  A    between atoms: C_1  and  C_2
REMARK    2  A    between atoms: C_4  and  O_5
REMARK    3  A    between atoms: C_12  and  O_13
REMARK    4  A    between atoms: C_15  and  O_16
REMARK    5  A    between atoms: O_16  and  S_17
REMARK    6  A    between atoms: S_17  and  O_20
REMARK                            x       y       z     vdW  Elec       q    Type
REMARK                         _______ _______ _______ _____ _____    ______ ____
ROOT
ATOM      1  C   UNL     1       2.727   8.750  17.583  0.00  0.00    +0.000 C 
ATOM      2  C   UNL     1       2.202   8.099  18.837  0.00  0.00    +0.000 A 
ATOM      3  C   UNL     1       1.371   8.936  19.627  0.00  0.00    +0.000 A 
ATOM      4  C   UNL     1       0.808   8.485  20.810  0.00  0.00    +0.000 A 
ATOM      5  C   UNL     1       1.054   7.200  21.236  0.00  0.00    +0.000 A 
ATOM      6  C   UNL     1       1.874   6.374  20.459  0.00  0.00    +0.000 A 
ATOM      7  O   UNL     1       2.046   5.084  21.002  0.00  0.00    +0.000 OA
ATOM      8  C   UNL     1       2.808   4.109  20.400  0.00  0.00    +0.000 A 
ATOM      9  O   UNL     1       2.938   2.993  20.896  0.00  0.00    +0.000 OA
ATOM     10  C   UNL     1       3.473   4.457  19.127  0.00  0.00    +0.000 A 
ATOM     11  C   UNL     1       4.268   3.468  18.502  0.00  0.00    +0.000 A 
ATOM     12  C   UNL     1       4.922   3.716  17.300  0.00  0.00    +0.000 A 
ATOM     13  C   UNL     1       4.777   4.957  16.713  0.00  0.00    +0.000 A 
ATOM     14  C   UNL     1       4.004   5.945  17.345  0.00  0.00    +0.000 A 
ATOM     15  C   UNL     1       3.321   5.741  18.559  0.00  0.00    +0.000 A 
ATOM     16  C   UNL     1       2.479   6.763  19.249  0.00  0.00    +0.000 A 
ENDROOT
BRANCH   4  17
ATOM     17  O   UNL     1       0.011   9.279  21.573  0.00  0.00    +0.000 OA
ATOM     18  H   UNL     1      -0.655   8.730  22.020  0.00  0.00    +0.000 HD
ENDBRANCH   4  17
BRANCH  11  19
ATOM     19  O   UNL     1       4.461   2.210  19.015  0.00  0.00    +0.000 OA
ATOM     20  H   UNL     1       5.185   2.237  19.679  0.00  0.00    +0.000 HD
ENDBRANCH  11  19
BRANCH  13  21
ATOM     21  O   UNL     1       5.372   5.351  15.542  0.00  0.00    +0.000 OA
BRANCH  21  22
ATOM     22  S   UNL     1       6.816   4.769  15.067  0.00  0.00    +0.000 S 
ATOM     23  O   UNL     1       7.297   5.585  13.972  0.00  0.00    +0.000 OA
ATOM     24  O   UNL     1       7.631   4.466  16.221  0.00  0.00    +0.000 OA
BRANCH  22  25
ATOM     25  O   UNL     1       6.403   3.365  14.388  0.00  0.00    +0.000 OA
ATOM     26  H   UNL     1       5.587   3.050  14.826  0.00  0.00    +0.000 HD
ENDBRANCH  22  25
ENDBRANCH  21  22
ENDBRANCH  13  21
TORSDOF 5
ENDMDL
MODEL 2
REMARK VINA RESULT:      -8.1      0.610      1.171
REMARK  Name = 
REMARK  6 active torsions:
REMARK  status: ('A' for Active; 'I' for Inactive)
REMARK    1  A    between atoms: C_1  and  C_2
REMARK    2  A    between atoms: C_4  and  O_5
REMARK    3  A    between atoms: C_12  and  O_13
REMARK    4  A    between atoms: C_15  and  O_16
REMARK    5  A    between atoms: O_16  and  S_17
REMARK    6  A    between atoms: S_17  and  O_20
REMARK                            x       y       z     vdW  Elec       q    Type
REMARK                         _______ _______ _______ _____ _____    ______ ____
ROOT
ATOM      1  C   UNL     1       2.926   8.438  17.540  0.00  0.00    +0.000 C 
ATOM      2  C   UNL     1       2.333   7.878  18.806  0.00  0.00    +0.000 A 
ATOM      3  C   UNL     1       1.518   8.793  19.525  0.00  0.00    +0.000 A 
ATOM      4  C   UNL     1       0.898   8.430  20.710  0.00  0.00    +0.000 A 
ATOM      5  C   UNL     1       1.068   7.159  21.208  0.00  0.00    +0.000 A 
ATOM      6  C   UNL     1       1.871   6.256  20.502  0.00  0.00    +0.000 A 
ATOM      7  O   UNL     1       1.964   4.990  21.114  0.00  0.00    +0.000 OA
ATOM      8  C   UNL     1       2.698   3.951  20.588  0.00  0.00    +0.000 A 
ATOM      9  O   UNL     1       2.758   2.858  21.143  0.00  0.00    +0.000 OA
ATOM     10  C   UNL     1       3.418   4.202  19.322  0.00  0.00    +0.000 A 
ATOM     11  C   UNL     1       4.183   3.145  18.775  0.00  0.00    +0.000 A 
ATOM     12  C   UNL     1       4.885   3.300  17.585  0.00  0.00    +0.000 A 
ATOM     13  C   UNL     1       4.818   4.515  16.931  0.00  0.00    +0.000 A 
ATOM     14  C   UNL     1       4.074   5.569  17.486  0.00  0.00    +0.000 A 
ATOM     15  C   UNL     1       3.345   5.459  18.686  0.00  0.00    +0.000 A 
ATOM     16  C   UNL     1       2.532   6.554  19.294  0.00  0.00    +0.000 A 
ENDROOT
BRANCH   4  17
ATOM     17  O   UNL     1       0.116   9.299  21.405  0.00  0.00    +0.000 OA
ATOM     18  H   UNL     1       0.437  10.204  21.261  0.00  0.00    +0.000 HD
ENDBRANCH   4  17
BRANCH  11  19
ATOM     19  O   UNL     1       4.300   1.908  19.356  0.00  0.00    +0.000 OA
ATOM     20  H   UNL     1       5.252   1.674  19.434  0.00  0.00    +0.000 HD
ENDBRANCH  11  19
BRANCH  13  21
ATOM     21  O   UNL     1       5.468   4.819  15.763  0.00  0.00    +0.000 OA
BRANCH  21  22
ATOM     22  S   UNL     1       7.050   5.200  15.725  0.00  0.00    +0.000 S 
ATOM     23  O   UNL     1       7.745   4.353  16.670  0.00  0.00    +0.000 OA
ATOM     24  O   UNL     1       7.489   5.353  14.356  0.00  0.00    +0.000 OA
BRANCH  22  25
ATOM     25  O   UNL     1       7.057   6.666  16.397  0.00  0.00    +0.000 OA
ATOM     26  H   UNL     1       7.988   6.914  16.563  0.00  0.00    +0.000 HD
ENDBRANCH  22  25
ENDBRANCH  21  22
ENDBRANCH  13  21
TORSDOF 5
ENDMDL
MODEL 3
REMARK VINA RESULT:      -8.0      0.893      1.068
REMARK  Name = 
REMARK  6 active torsions:
REMARK  status: ('A' for Active; 'I' for Inactive)
REMARK    1  A    between atoms: C_1  and  C_2
REMARK    2  A    between atoms: C_4  and  O_5
REMARK    3  A    between atoms: C_12  and  O_13
REMARK    4  A    between atoms: C_15  and  O_16
REMARK    5  A    between atoms: O_16  and  S_17
REMARK    6  A    between atoms: S_17  and  O_20
REMARK                            x       y       z     vdW  Elec       q    Type
REMARK                         _______ _______ _______ _____ _____    ______ ____
ROOT
ATOM      1  C   UNL     1       2.850   8.747  17.466  0.00  0.00    +0.000 C 
ATOM      2  C   UNL     1       2.170   8.320  18.741  0.00  0.00    +0.000 A 
ATOM      3  C   UNL     1       1.318   9.305  19.308  0.00  0.00    +0.000 A 
ATOM      4  C   UNL     1       0.619   9.066  20.480  0.00  0.00    +0.000 A 
ATOM      5  C   UNL     1       0.745   7.852  21.114  0.00  0.00    +0.000 A 
ATOM      6  C   UNL     1       1.584   6.880  20.557  0.00  0.00    +0.000 A 
ATOM      7  O   UNL     1       1.625   5.682  21.299  0.00  0.00    +0.000 OA
ATOM      8  C   UNL     1       2.382   4.593  20.931  0.00  0.00    +0.000 A 
ATOM      9  O   UNL     1       2.396   3.562  21.596  0.00  0.00    +0.000 OA
ATOM     10  C   UNL     1       3.185   4.712  19.696  0.00  0.00    +0.000 A 
ATOM     11  C   UNL     1       3.975   3.604  19.310  0.00  0.00    +0.000 A 
ATOM     12  C   UNL     1       4.755   3.636  18.159  0.00  0.00    +0.000 A 
ATOM     13  C   UNL     1       4.742   4.778  17.383  0.00  0.00    +0.000 A 
ATOM     14  C   UNL     1       3.973   5.885  17.778  0.00  0.00    +0.000 A 
ATOM     15  C   UNL     1       3.165   5.899  18.932  0.00  0.00    +0.000 A 
ATOM     16  C   UNL     1       2.325   7.052  19.372  0.00  0.00    +0.000 A 
ENDROOT
BRANCH   4  17
ATOM     17  O   UNL     1      -0.199  10.002  21.031  0.00  0.00    +0.000 OA
ATOM     18  H   UNL     1      -0.195   9.903  21.997  0.00  0.00    +0.000 HD
ENDBRANCH   4  17
BRANCH  11  19
ATOM     19  O   UNL     1       4.042   2.432  20.020  0.00  0.00    +0.000 OA
ATOM     20  H   UNL     1       4.985   2.189  20.157  0.00  0.00    +0.000 HD
ENDBRANCH  11  19
BRANCH  13  21
ATOM     21  O   UNL     1       5.469   4.961  16.235  0.00  0.00    +0.000 OA
BRANCH  21  22
ATOM     22  S   UNL     1       7.032   5.412  16.263  0.00  0.00    +0.000 S 
ATOM     23  O   UNL     1       7.098   6.804  16.656  0.00  0.00    +0.000 OA
ATOM     24  O   UNL     1       7.831   4.390  16.902  0.00  0.00    +0.000 OA
BRANCH  22  25
ATOM     25  O   UNL     1       7.410   5.405  14.695  0.00  0.00    +0.000 OA
ATOM     26  H   UNL     1       6.579   5.311  14.188  0.00  0.00    +0.000 HD
ENDBRANCH  22  25
ENDBRANCH  21  22
ENDBRANCH  13  21
TORSDOF 5
ENDMDL
MODEL 4
REMARK VINA RESULT:      -7.6      1.769      4.127
REMARK  Name = 
REMARK  6 active torsions:
REMARK  status: ('A' for Active; 'I' for Inactive)
REMARK    1  A    between atoms: C_1  and  C_2
REMARK    2  A    between atoms: C_4  and  O_5
REMARK    3  A    between atoms: C_12  and  O_13
REMARK    4  A    between atoms: C_15  and  O_16
REMARK    5  A    between atoms: O_16  and  S_17
REMARK    6  A    between atoms: S_17  and  O_20
REMARK                            x       y       z     vdW  Elec       q    Type
REMARK                         _______ _______ _______ _____ _____    ______ ____
ROOT
ATOM      1  C   UNL     1       4.069   2.044  18.577  0.00  0.00    +0.000 C 
ATOM      2  C   UNL     1       3.203   2.856  19.505  0.00  0.00    +0.000 A 
ATOM      3  C   UNL     1       2.613   2.109  20.559  0.00  0.00    +0.000 A 
ATOM      4  C   UNL     1       1.791   2.712  21.497  0.00  0.00    +0.000 A 
ATOM      5  C   UNL     1       1.536   4.061  21.416  0.00  0.00    +0.000 A 
ATOM      6  C   UNL     1       2.117   4.799  20.378  0.00  0.00    +0.000 A 
ATOM      7  O   UNL     1       1.780   6.167  20.406  0.00  0.00    +0.000 OA
ATOM      8  C   UNL     1       2.244   7.077  19.483  0.00  0.00    +0.000 A 
ATOM      9  O   UNL     1       1.935   8.263  19.535  0.00  0.00    +0.000 OA
ATOM     10  C   UNL     1       3.132   6.567  18.417  0.00  0.00    +0.000 A 
ATOM     11  C   UNL     1       3.609   7.489  17.456  0.00  0.00    +0.000 A 
ATOM     12  C   UNL     1       4.452   7.089  16.425  0.00  0.00    +0.000 A 
ATOM     13  C   UNL     1       4.829   5.762  16.356  0.00  0.00    +0.000 A 
ATOM     14  C   UNL     1       4.339   4.845  17.299  0.00  0.00    +0.000 A 
ATOM     15  C   UNL     1       3.486   5.202  18.362  0.00  0.00    +0.000 A 
ATOM     16  C   UNL     1       2.960   4.255  19.390  0.00  0.00    +0.000 A 
ENDROOT
BRANCH   4  17
ATOM     17  O   UNL     1       1.221   2.005  22.510  0.00  0.00    +0.000 OA
ATOM     18  H   UNL     1       1.628   1.123  22.553  0.00  0.00    +0.000 HD
ENDBRANCH   4  17
BRANCH  11  19
ATOM     19  O   UNL     1       3.288   8.823  17.453  0.00  0.00    +0.000 OA
ATOM     20  H   UNL     1       2.309   8.921  17.443  0.00  0.00    +0.000 HD
ENDBRANCH  11  19
BRANCH  13  21
ATOM     21  O   UNL     1       5.638   5.221  15.390  0.00  0.00    +0.000 OA
BRANCH  21  22
ATOM     22  S   UNL     1       7.262   5.259  15.500  0.00  0.00    +0.000 S 
ATOM     23  O   UNL     1       7.684   4.186  16.374  0.00  0.00    +0.000 OA
ATOM     24  O   UNL     1       7.841   5.464  14.191  0.00  0.00    +0.000 OA
BRANCH  22  25
ATOM     25  O   UNL     1       7.508   6.608  16.350  0.00  0.00    +0.000 OA
ATOM     26  H   UNL     1       7.310   6.411  17.287  0.00  0.00    +0.000 HD
ENDBRANCH  22  25
ENDBRANCH  21  22
ENDBRANCH  13  21
TORSDOF 5
ENDMDL
MODEL 5
REMARK VINA RESULT:      -7.5      3.048      7.095
REMARK  Name = 
REMARK  6 active torsions:
REMARK  status: ('A' for Active; 'I' for Inactive)
REMARK    1  A    between atoms: C_1  and  C_2
REMARK    2  A    between atoms: C_4  and  O_5
REMARK    3  A    between atoms: C_12  and  O_13
REMARK    4  A    between atoms: C_15  and  O_16
REMARK    5  A    between atoms: O_16  and  S_17
REMARK    6  A    between atoms: S_17  and  O_20
REMARK                            x       y       z     vdW  Elec       q    Type
REMARK                         _______ _______ _______ _____ _____    ______ ____
ROOT
ATOM      1  C   UNL     1       1.718   3.683  21.474  0.00  0.00    +0.000 C 
ATOM      2  C   UNL     1       2.546   3.569  20.220  0.00  0.00    +0.000 A 
ATOM      3  C   UNL     1       3.046   2.264  19.966  0.00  0.00    +0.000 A 
ATOM      4  C   UNL     1       3.823   1.995  18.851  0.00  0.00    +0.000 A 
ATOM      5  C   UNL     1       4.122   3.005  17.967  0.00  0.00    +0.000 A 
ATOM      6  C   UNL     1       3.630   4.291  18.216  0.00  0.00    +0.000 A 
ATOM      7  O   UNL     1       4.004   5.235  17.237  0.00  0.00    +0.000 OA
ATOM      8  C   UNL     1       3.627   6.557  17.282  0.00  0.00    +0.000 A 
ATOM      9  O   UNL     1       3.966   7.355  16.413  0.00  0.00    +0.000 OA
ATOM     10  C   UNL     1       2.794   6.986  18.425  0.00  0.00    +0.000 A 
ATOM     11  C   UNL     1       2.406   8.345  18.489  0.00  0.00    +0.000 A 
ATOM     12  C   UNL     1       1.619   8.826  19.530  0.00  0.00    +0.000 A 
ATOM     13  C   UNL     1       1.210   7.944  20.510  0.00  0.00    +0.000 A 
ATOM     14  C   UNL     1       1.612   6.599  20.456  0.00  0.00    +0.000 A 
ATOM     15  C   UNL     1       2.405   6.065  19.422  0.00  0.00    +0.000 A 
ATOM     16  C   UNL     1       2.836   4.639  19.326  0.00  0.00    +0.000 A 
ENDROOT
BRANCH   4  17
ATOM     17  O   UNL     1       4.307   0.749  18.599  0.00  0.00    +0.000 OA
ATOM     18  H   UNL     1       3.566   0.121  18.552  0.00  0.00    +0.000 HD
ENDBRANCH   4  17
BRANCH  11  19
ATOM     19  O   UNL     1       2.766   9.285  17.557  0.00  0.00    +0.000 OA
ATOM     20  H   UNL     1       2.115   9.277  16.820  0.00  0.00    +0.000 HD
ENDBRANCH  11  19
BRANCH  13  21
ATOM     21  O   UNL     1       0.448   8.275  21.602  0.00  0.00    +0.000 OA
BRANCH  21  22
ATOM     22  S   UNL     1       0.815   9.534  22.565  0.00  0.00    +0.000 S 
ATOM     23  O   UNL     1       0.810  10.738  21.762  0.00  0.00    +0.000 OA
ATOM     24  O   UNL     1       0.089   9.432  23.811  0.00  0.00    +0.000 OA
BRANCH  22  25
ATOM     25  O   UNL     1       2.371   9.261  22.893  0.00  0.00    +0.000 OA
ATOM     26  H   UNL     1       2.413   8.624  23.634  0.00  0.00    +0.000 HD
ENDBRANCH  22  25
ENDBRANCH  21  22
ENDBRANCH  13  21
TORSDOF 5
ENDMDL
MODEL 6
REMARK VINA RESULT:      -7.4      2.558      6.395
REMARK  Name = 
REMARK  6 active torsions:
REMARK  status: ('A' for Active; 'I' for Inactive)
REMARK    1  A    between atoms: C_1  and  C_2
REMARK    2  A    between atoms: C_4  and  O_5
REMARK    3  A    between atoms: C_12  and  O_13
REMARK    4  A    between atoms: C_15  and  O_16
REMARK    5  A    between atoms: O_16  and  S_17
REMARK    6  A    between atoms: S_17  and  O_20
REMARK                            x       y       z     vdW  Elec       q    Type
REMARK                         _______ _______ _______ _____ _____    ______ ____
ROOT
ATOM      1  C   UNL     1       5.086   7.386  17.078  0.00  0.00    +0.000 C 
ATOM      2  C   UNL     1       4.924   5.925  16.748  0.00  0.00    +0.000 A 
ATOM      3  C   UNL     1       5.741   5.473  15.677  0.00  0.00    +0.000 A 
ATOM      4  C   UNL     1       5.709   4.154  15.253  0.00  0.00    +0.000 A 
ATOM      5  C   UNL     1       4.873   3.256  15.876  0.00  0.00    +0.000 A 
ATOM      6  C   UNL     1       4.068   3.700  16.931  0.00  0.00    +0.000 A 
ATOM      7  O   UNL     1       3.260   2.686  17.485  0.00  0.00    +0.000 OA
ATOM      8  C   UNL     1       2.395   2.900  18.534  0.00  0.00    +0.000 A 
ATOM      9  O   UNL     1       1.706   1.996  18.997  0.00  0.00    +0.000 OA
ATOM     10  C   UNL     1       2.324   4.270  19.085  0.00  0.00    +0.000 A 
ATOM     11  C   UNL     1       1.432   4.507  20.157  0.00  0.00    +0.000 A 
ATOM     12  C   UNL     1       1.310   5.766  20.733  0.00  0.00    +0.000 A 
ATOM     13  C   UNL     1       2.089   6.796  20.242  0.00  0.00    +0.000 A 
ATOM     14  C   UNL     1       2.959   6.564  19.165  0.00  0.00    +0.000 A 
ATOM     15  C   UNL     1       3.119   5.306  18.551  0.00  0.00    +0.000 A 
ATOM     16  C   UNL     1       4.046   5.022  17.415  0.00  0.00    +0.000 A 
ENDROOT
BRANCH   4  17
ATOM     17  O   UNL     1       6.487   3.712  14.229  0.00  0.00    +0.000 OA
ATOM     18  H   UNL     1       7.387   4.064  14.335  0.00  0.00    +0.000 HD
ENDBRANCH   4  17
BRANCH  11  19
ATOM     19  O   UNL     1       0.627   3.541  20.707  0.00  0.00    +0.000 OA
ATOM     20  H   UNL     1       0.926   3.352  21.624  0.00  0.00    +0.000 HD
ENDBRANCH  11  19
BRANCH  13  21
ATOM     21  O   UNL     1       2.066   8.089  20.697  0.00  0.00    +0.000 OA
BRANCH  21  22
ATOM     22  S   UNL     1       0.697   8.969  20.736  0.00  0.00    +0.000 S 
ATOM     23  O   UNL     1       0.463   9.506  19.413  0.00  0.00    +0.000 OA
ATOM     24  O   UNL     1      -0.325   8.262  21.475  0.00  0.00    +0.000 OA
BRANCH  22  25
ATOM     25  O   UNL     1       1.141  10.238  21.627  0.00  0.00    +0.000 OA
ATOM     26  H   UNL     1       0.365  10.827  21.716  0.00  0.00    +0.000 HD
ENDBRANCH  22  25
ENDBRANCH  21  22
ENDBRANCH  13  21
TORSDOF 5
ENDMDL
MODEL 7
REMARK VINA RESULT:      -7.2      2.459      6.563
REMARK  Name = 
REMARK  6 active torsions:
REMARK  status: ('A' for Active; 'I' for Inactive)
REMARK    1  A    between atoms: C_1  and  C_2
REMARK    2  A    between atoms: C_4  and  O_5
REMARK    3  A    between atoms: C_12  and  O_13
REMARK    4  A    between atoms: C_15  and  O_16
REMARK    5  A    between atoms: O_16  and  S_17
REMARK    6  A    between atoms: S_17  and  O_20
REMARK                            x       y       z     vdW  Elec       q    Type
REMARK                         _______ _______ _______ _____ _____    ______ ____
ROOT
ATOM      1  C   UNL     1       5.132   3.235  18.184  0.00  0.00    +0.000 C 
ATOM      2  C   UNL     1       5.129   4.446  17.287  0.00  0.00    +0.000 A 
ATOM      3  C   UNL     1       5.969   4.333  16.148  0.00  0.00    +0.000 A 
ATOM      4  C   UNL     1       6.075   5.361  15.225  0.00  0.00    +0.000 A 
ATOM      5  C   UNL     1       5.356   6.519  15.407  0.00  0.00    +0.000 A 
ATOM      6  C   UNL     1       4.527   6.633  16.529  0.00  0.00    +0.000 A 
ATOM      7  O   UNL     1       3.844   7.864  16.600  0.00  0.00    +0.000 OA
ATOM      8  C   UNL     1       2.975   8.186  17.617  0.00  0.00    +0.000 A 
ATOM      9  O   UNL     1       2.392   9.266  17.650  0.00  0.00    +0.000 OA
ATOM     10  C   UNL     1       2.769   7.177  18.678  0.00  0.00    +0.000 A 
ATOM     11  C   UNL     1       1.885   7.498  19.734  0.00  0.00    +0.000 A 
ATOM     12  C   UNL     1       1.634   6.602  20.767  0.00  0.00    +0.000 A 
ATOM     13  C   UNL     1       2.264   5.373  20.742  0.00  0.00    +0.000 A 
ATOM     14  C   UNL     1       3.156   5.063  19.704  0.00  0.00    +0.000 A 
ATOM     15  C   UNL     1       3.439   5.936  18.635  0.00  0.00    +0.000 A 
ATOM     16  C   UNL     1       4.370   5.632  17.507  0.00  0.00    +0.000 A 
ENDROOT
BRANCH   4  17
ATOM     17  O   UNL     1       6.877   5.262  14.130  0.00  0.00    +0.000 OA
ATOM     18  H   UNL     1       7.036   4.323  13.934  0.00  0.00    +0.000 HD
ENDBRANCH   4  17
BRANCH  11  19
ATOM     19  O   UNL     1       1.217   8.693  19.833  0.00  0.00    +0.000 OA
ATOM     20  H   UNL     1       0.838   8.927  18.956  0.00  0.00    +0.000 HD
ENDBRANCH  11  19
BRANCH  13  21
ATOM     21  O   UNL     1       2.127   4.397  21.696  0.00  0.00    +0.000 OA
BRANCH  21  22
ATOM     22  S   UNL     1       1.617   2.895  21.333  0.00  0.00    +0.000 S 
ATOM     23  O   UNL     1       2.610   2.269  20.486  0.00  0.00    +0.000 OA
ATOM     24  O   UNL     1       1.093   2.251  22.516  0.00  0.00    +0.000 OA
BRANCH  22  25
ATOM     25  O   UNL     1       0.368   3.194  20.356  0.00  0.00    +0.000 OA
ATOM     26  H   UNL     1       0.687   3.125  19.434  0.00  0.00    +0.000 HD
ENDBRANCH  22  25
ENDBRANCH  21  22
ENDBRANCH  13  21
TORSDOF 5
ENDMDL
MODEL 8
REMARK VINA RESULT:      -7.2      2.496      4.343
REMARK  Name = 
REMARK  6 active torsions:
REMARK  status: ('A' for Active; 'I' for Inactive)
REMARK    1  A    between atoms: C_1  and  C_2
REMARK    2  A    between atoms: C_4  and  O_5
REMARK    3  A    between atoms: C_12  and  O_13
REMARK    4  A    between atoms: C_15  and  O_16
REMARK    5  A    between atoms: O_16  and  S_17
REMARK    6  A    between atoms: S_17  and  O_20
REMARK                            x       y       z     vdW  Elec       q    Type
REMARK                         _______ _______ _______ _____ _____    ______ ____
ROOT
ATOM      1  C   UNL     1       3.859   1.262  18.013  0.00  0.00    +0.000 C 
ATOM      2  C   UNL     1       3.375   2.447  18.807  0.00  0.00    +0.000 A 
ATOM      3  C   UNL     1       2.679   2.109  19.998  0.00  0.00    +0.000 A 
ATOM      4  C   UNL     1       2.173   3.087  20.839  0.00  0.00    +0.000 A 
ATOM      5  C   UNL     1       2.343   4.414  20.524  0.00  0.00    +0.000 A 
ATOM      6  C   UNL     1       3.029   4.750  19.351  0.00  0.00    +0.000 A 
ATOM      7  O   UNL     1       3.138   6.140  19.142  0.00  0.00    +0.000 OA
ATOM      8  C   UNL     1       3.776   6.691  18.054  0.00  0.00    +0.000 A 
ATOM      9  O   UNL     1       3.857   7.906  17.901  0.00  0.00    +0.000 OA
ATOM     10  C   UNL     1       4.362   5.759  17.068  0.00  0.00    +0.000 A 
ATOM     11  C   UNL     1       5.014   6.311  15.941  0.00  0.00    +0.000 A 
ATOM     12  C   UNL     1       5.595   5.501  14.971  0.00  0.00    +0.000 A 
ATOM     13  C   UNL     1       5.533   4.131  15.131  0.00  0.00    +0.000 A 
ATOM     14  C   UNL     1       4.869   3.584  16.240  0.00  0.00    +0.000 A 
ATOM     15  C   UNL     1       4.269   4.362  17.249  0.00  0.00    +0.000 A 
ATOM     16  C   UNL     1       3.569   3.813  18.449  0.00  0.00    +0.000 A 
ENDROOT
BRANCH   4  17
ATOM     17  O   UNL     1       1.505   2.773  21.982  0.00  0.00    +0.000 OA
ATOM     18  H   UNL     1       0.616   3.164  21.951  0.00  0.00    +0.000 HD
ENDBRANCH   4  17
BRANCH  11  19
ATOM     19  O   UNL     1       5.123   7.659  15.708  0.00  0.00    +0.000 OA
ATOM     20  H   UNL     1       4.323   7.972  15.231  0.00  0.00    +0.000 HD
ENDBRANCH  11  19
BRANCH  13  21
ATOM     21  O   UNL     1       6.045   3.210  14.252  0.00  0.00    +0.000 OA
BRANCH  21  22
ATOM     22  S   UNL     1       5.985   3.425  12.640  0.00  0.00    +0.000 S 
ATOM     23  O   UNL     1       4.615   3.709  12.269  0.00  0.00    +0.000 OA
ATOM     24  O   UNL     1       7.090   4.252  12.210  0.00  0.00    +0.000 OA
BRANCH  22  25
ATOM     25  O   UNL     1       6.262   1.933  12.094  0.00  0.00    +0.000 OA
ATOM     26  H   UNL     1       7.167   1.678  12.367  0.00  0.00    +0.000 HD
ENDBRANCH  22  25
ENDBRANCH  21  22
ENDBRANCH  13  21
TORSDOF 5
ENDMDL
MODEL 9
REMARK VINA RESULT:      -7.2      2.813      5.318
REMARK  Name = 
REMARK  6 active torsions:
REMARK  status: ('A' for Active; 'I' for Inactive)
REMARK    1  A    between atoms: C_1  and  C_2
REMARK    2  A    between atoms: C_4  and  O_5
REMARK    3  A    between atoms: C_12  and  O_13
REMARK    4  A    between atoms: C_15  and  O_16
REMARK    5  A    between atoms: O_16  and  S_17
REMARK    6  A    between atoms: S_17  and  O_20
REMARK                            x       y       z     vdW  Elec       q    Type
REMARK                         _______ _______ _______ _____ _____    ______ ____
ROOT
ATOM      1  C   UNL     1      -0.148   8.542  22.075  0.00  0.00    +0.000 C 
ATOM      2  C   UNL     1       0.216   9.342  20.851  0.00  0.00    +0.000 A 
ATOM      3  C   UNL     1      -0.382  10.628  20.792  0.00  0.00    +0.000 A 
ATOM      4  C   UNL     1      -0.145  11.487  19.731  0.00  0.00    +0.000 A 
ATOM      5  C   UNL     1       0.687  11.094  18.708  0.00  0.00    +0.000 A 
ATOM      6  C   UNL     1       1.277   9.827  18.763  0.00  0.00    +0.000 A 
ATOM      7  O   UNL     1       2.107   9.545  17.659  0.00  0.00    +0.000 OA
ATOM      8  C   UNL     1       2.790   8.359  17.512  0.00  0.00    +0.000 A 
ATOM      9  O   UNL     1       3.507   8.144  16.540  0.00  0.00    +0.000 OA
ATOM     10  C   UNL     1       2.624   7.345  18.575  0.00  0.00    +0.000 A 
ATOM     11  C   UNL     1       3.312   6.118  18.432  0.00  0.00    +0.000 A 
ATOM     12  C   UNL     1       3.212   5.115  19.391  0.00  0.00    +0.000 A 
ATOM     13  C   UNL     1       2.425   5.341  20.503  0.00  0.00    +0.000 A 
ATOM     14  C   UNL     1       1.727   6.552  20.633  0.00  0.00    +0.000 A 
ATOM     15  C   UNL     1       1.799   7.597  19.692  0.00  0.00    +0.000 A 
ATOM     16  C   UNL     1       1.082   8.902  19.808  0.00  0.00    +0.000 A 
ENDROOT
BRANCH   4  17
ATOM     17  O   UNL     1      -0.713  12.721  19.666  0.00  0.00    +0.000 OA
ATOM     18  H   UNL     1      -0.982  12.902  18.750  0.00  0.00    +0.000 HD
ENDBRANCH   4  17
BRANCH  11  19
ATOM     19  O   UNL     1       4.116   5.815  17.362  0.00  0.00    +0.000 OA
ATOM     20  H   UNL     1       5.017   6.177  17.520  0.00  0.00    +0.000 HD
ENDBRANCH  11  19
BRANCH  13  21
ATOM     21  O   UNL     1       2.218   4.443  21.518  0.00  0.00    +0.000 OA
BRANCH  21  22
ATOM     22  S   UNL     1       1.668   2.936  21.243  0.00  0.00    +0.000 S 
ATOM     23  O   UNL     1       2.604   2.261  20.370  0.00  0.00    +0.000 OA
ATOM     24  O   UNL     1       1.200   2.348  22.478  0.00  0.00    +0.000 OA
BRANCH  22  25
ATOM     25  O   UNL     1       0.371   3.217  20.325  0.00  0.00    +0.000 OA
ATOM     26  H   UNL     1       0.423   2.626  19.547  0.00  0.00    +0.000 HD
ENDBRANCH  22  25
ENDBRANCH  21  22
ENDBRANCH  13  21
TORSDOF 5
ENDMDL
