MODEL 1
REMARK VINA RESULT:      -8.1      0.000      0.000
REMARK  Name = 
REMARK  4 active torsions:
REMARK  status: ('A' for Active; 'I' for Inactive)
REMARK    1  A    between atoms: C_10  and  C_11
REMARK    2  A    between atoms: N_17  and  C_18
REMARK    3  A    between atoms: N_21  and  C_22
REMARK    4  A    between atoms: C_22  and  C_23
REMARK                            x       y       z     vdW  Elec       q    Type
REMARK                         _______ _______ _______ _____ _____    ______ ____
ROOT
ATOM      1  O   UNL     1       1.805   8.143  21.623  0.00  0.00    +0.000 OA
ATOM      2  C   UNL     1       1.881   7.318  20.738  0.00  0.00    +0.000 C 
ATOM      3  N   UNL     1       1.672   6.021  21.084  0.00  0.00    +0.000 N 
ATOM      4  C   UNL     1       1.532   5.010  20.107  0.00  0.00    +0.000 A 
ATOM      5  C   UNL     1       1.071   3.737  20.467  0.00  0.00    +0.000 A 
ATOM      6  C   UNL     1       0.909   2.750  19.491  0.00  0.00    +0.000 A 
ATOM      7  C   UNL     1       1.213   3.029  18.156  0.00  0.00    +0.000 A 
ATOM      8  C   UNL     1       1.693   4.293  17.798  0.00  0.00    +0.000 A 
ATOM      9  C   UNL     1       1.843   5.290  18.777  0.00  0.00    +0.000 A 
ATOM     10  C   UNL     1       2.436   6.634  18.434  0.00  0.00    +0.000 C 
ATOM     11  N   UNL     1       2.120   7.686  19.427  0.00  0.00    +0.000 N 
ATOM     12  H   UNL     1       1.483   5.792  22.071  0.00  0.00    +0.000 HD
ENDROOT
BRANCH  10  13
ATOM     13  C   UNL     1       3.946   6.409  18.344  0.00  0.00    +0.000 A 
ATOM     14  C   UNL     1       4.707   7.000  17.324  0.00  0.00    +0.000 A 
ATOM     15  C   UNL     1       6.081   6.725  17.220  0.00  0.00    +0.000 A 
ATOM     16  C   UNL     1       6.700   5.866  18.131  0.00  0.00    +0.000 A 
ATOM     17  C   UNL     1       5.955   5.281  19.154  0.00  0.00    +0.000 A 
ATOM     18  C   UNL     1       4.594   5.558  19.265  0.00  0.00    +0.000 A 
ENDBRANCH  10  13
BRANCH  11  19
ATOM     19  C   UNL     1       1.995   9.074  18.891  0.00  0.00    +0.000 C 
ATOM     20  C   UNL     1       1.270  10.147  19.733  0.00  0.00    +0.000 C 
ATOM     21  C   UNL     1      -0.266  10.113  19.645  0.00  0.00    +0.000 C 
ATOM     22  N   UNL     1      -0.765  10.037  18.241  0.00  0.00    +0.000 NA
ATOM     23  C   UNL     1      -0.104   8.992  17.417  0.00  0.00    +0.000 C 
ATOM     24  C   UNL     1       1.422   9.121  17.459  0.00  0.00    +0.000 C 
BRANCH  22  25
ATOM     25  C   UNL     1      -2.227   9.803  18.223  0.00  0.00    +0.000 C 
BRANCH  25  26
ATOM     26  C   UNL     1      -2.843  10.240  16.931  0.00  0.00    +0.000 A 
ATOM     27  C   UNL     1      -2.718   9.598  15.717  0.00  0.00    +0.000 A 
ATOM     28  C   UNL     1      -3.435  10.357  14.821  0.00  0.00    +0.000 A 
ATOM     29  C   UNL     1      -3.955  11.414  15.540  0.00  0.00    +0.000 A 
ATOM     30  O   UNL     1      -3.585  11.316  16.797  0.00  0.00    +0.000 OA
ENDBRANCH  25  26
ENDBRANCH  22  25
ENDBRANCH  11  19
TORSDOF 4
ENDMDL
MODEL 2
REMARK VINA RESULT:      -8.1      0.493      1.129
REMARK  Name = 
REMARK  4 active torsions:
REMARK  status: ('A' for Active; 'I' for Inactive)
REMARK    1  A    between atoms: C_10  and  C_11
REMARK    2  A    between atoms: N_17  and  C_18
REMARK    3  A    between atoms: N_21  and  C_22
REMARK    4  A    between atoms: C_22  and  C_23
REMARK                            x       y       z     vdW  Elec       q    Type
REMARK                         _______ _______ _______ _____ _____    ______ ____
ROOT
ATOM      1  O   UNL     1       1.864   8.114  21.617  0.00  0.00    +0.000 OA
ATOM      2  C   UNL     1       1.921   7.286  20.734  0.00  0.00    +0.000 C 
ATOM      3  N   UNL     1       1.688   5.994  21.084  0.00  0.00    +0.000 N 
ATOM      4  C   UNL     1       1.525   4.983  20.110  0.00  0.00    +0.000 A 
ATOM      5  C   UNL     1       1.042   3.720  20.476  0.00  0.00    +0.000 A 
ATOM      6  C   UNL     1       0.856   2.735  19.503  0.00  0.00    +0.000 A 
ATOM      7  C   UNL     1       1.161   3.004  18.165  0.00  0.00    +0.000 A 
ATOM      8  C   UNL     1       1.663   4.258  17.803  0.00  0.00    +0.000 A 
ATOM      9  C   UNL     1       1.837   5.255  18.779  0.00  0.00    +0.000 A 
ATOM     10  C   UNL     1       2.454   6.585  18.430  0.00  0.00    +0.000 C 
ATOM     11  N   UNL     1       2.162   7.646  19.422  0.00  0.00    +0.000 N 
ATOM     12  H   UNL     1       1.499   5.771  22.073  0.00  0.00    +0.000 HD
ENDROOT
BRANCH  10  13
ATOM     13  C   UNL     1       3.959   6.332  18.335  0.00  0.00    +0.000 A 
ATOM     14  C   UNL     1       4.622   5.541  19.285  0.00  0.00    +0.000 A 
ATOM     15  C   UNL     1       6.016   5.378  19.218  0.00  0.00    +0.000 A 
ATOM     16  C   UNL     1       6.751   5.998  18.205  0.00  0.00    +0.000 A 
ATOM     17  C   UNL     1       6.101   6.778  17.250  0.00  0.00    +0.000 A 
ATOM     18  C   UNL     1       4.718   6.936  17.309  0.00  0.00    +0.000 A 
ENDBRANCH  10  13
BRANCH  11  19
ATOM     19  C   UNL     1       2.061   9.035  18.883  0.00  0.00    +0.000 C 
ATOM     20  C   UNL     1       1.361  10.124  19.725  0.00  0.00    +0.000 C 
ATOM     21  C   UNL     1      -0.175  10.120  19.643  0.00  0.00    +0.000 C 
ATOM     22  N   UNL     1      -0.681  10.050  18.241  0.00  0.00    +0.000 NA
ATOM     23  C   UNL     1      -0.044   8.990  17.417  0.00  0.00    +0.000 C 
ATOM     24  C   UNL     1       1.484   9.090  17.452  0.00  0.00    +0.000 C 
BRANCH  22  25
ATOM     25  C   UNL     1      -2.148   9.844  18.229  0.00  0.00    +0.000 C 
BRANCH  25  26
ATOM     26  C   UNL     1      -2.749  10.210  16.909  0.00  0.00    +0.000 A 
ATOM     27  C   UNL     1      -3.752  11.133  16.705  0.00  0.00    +0.000 A 
ATOM     28  C   UNL     1      -3.988  11.132  15.350  0.00  0.00    +0.000 A 
ATOM     29  C   UNL     1      -3.115  10.211  14.808  0.00  0.00    +0.000 A 
ATOM     30  O   UNL     1      -2.387   9.678  15.763  0.00  0.00    +0.000 OA
ENDBRANCH  25  26
ENDBRANCH  22  25
ENDBRANCH  11  19
TORSDOF 4
ENDMDL
MODEL 3
REMARK VINA RESULT:      -7.6      2.116      3.174
REMARK  Name = 
REMARK  4 active torsions:
REMARK  status: ('A' for Active; 'I' for Inactive)
REMARK    1  A    between atoms: C_10  and  C_11
REMARK    2  A    between atoms: N_17  and  C_18
REMARK    3  A    between atoms: N_21  and  C_22
REMARK    4  A    between atoms: C_22  and  C_23
REMARK                            x       y       z     vdW  Elec       q    Type
REMARK                         _______ _______ _______ _____ _____    ______ ____
ROOT
ATOM      1  O   UNL     1       1.712   8.639  20.730  0.00  0.00    +0.000 OA
ATOM      2  C   UNL     1       1.858   7.623  20.086  0.00  0.00    +0.000 C 
ATOM      3  N   UNL     1       1.767   6.447  20.761  0.00  0.00    +0.000 N 
ATOM      4  C   UNL     1       1.713   5.208  20.082  0.00  0.00    +0.000 A 
ATOM      5  C   UNL     1       1.369   4.038  20.771  0.00  0.00    +0.000 A 
ATOM      6  C   UNL     1       1.291   2.822  20.088  0.00  0.00    +0.000 A 
ATOM      7  C   UNL     1       1.565   2.770  18.718  0.00  0.00    +0.000 A 
ATOM      8  C   UNL     1       1.928   3.933  18.034  0.00  0.00    +0.000 A 
ATOM      9  C   UNL     1       1.993   5.160  18.717  0.00  0.00    +0.000 A 
ATOM     10  C   UNL     1       2.463   6.413  18.023  0.00  0.00    +0.000 C 
ATOM     11  N   UNL     1       2.059   7.656  18.719  0.00  0.00    +0.000 N 
ATOM     12  H   UNL     1       1.603   6.467  21.779  0.00  0.00    +0.000 HD
ENDROOT
BRANCH  10  13
ATOM     13  C   UNL     1       3.986   6.302  17.953  0.00  0.00    +0.000 A 
ATOM     14  C   UNL     1       4.706   6.863  16.887  0.00  0.00    +0.000 A 
ATOM     15  C   UNL     1       6.098   6.689  16.808  0.00  0.00    +0.000 A 
ATOM     16  C   UNL     1       6.776   5.962  17.789  0.00  0.00    +0.000 A 
ATOM     17  C   UNL     1       6.072   5.409  18.858  0.00  0.00    +0.000 A 
ATOM     18  C   UNL     1       4.693   5.585  18.944  0.00  0.00    +0.000 A 
ENDBRANCH  10  13
BRANCH  11  19
ATOM     19  C   UNL     1       1.808   8.842  17.846  0.00  0.00    +0.000 C 
ATOM     20  C   UNL     1       2.418  10.207  18.232  0.00  0.00    +0.000 C 
ATOM     21  C   UNL     1       1.636  10.990  19.300  0.00  0.00    +0.000 C 
ATOM     22  N   UNL     1       0.174  11.065  19.009  0.00  0.00    +0.000 NA
ATOM     23  C   UNL     1      -0.445   9.759  18.664  0.00  0.00    +0.000 C 
ATOM     24  C   UNL     1       0.312   9.057  17.532  0.00  0.00    +0.000 C 
BRANCH  22  25
ATOM     25  C   UNL     1      -0.555  11.647  20.160  0.00  0.00    +0.000 C 
BRANCH  25  26
ATOM     26  C   UNL     1       0.003  12.978  20.554  0.00  0.00    +0.000 A 
ATOM     27  C   UNL     1      -0.070  14.137  19.812  0.00  0.00    +0.000 A 
ATOM     28  C   UNL     1       0.580  15.095  20.555  0.00  0.00    +0.000 A 
ATOM     29  C   UNL     1       1.010  14.465  21.705  0.00  0.00    +0.000 A 
ATOM     30  O   UNL     1       0.648  13.202  21.677  0.00  0.00    +0.000 OA
ENDBRANCH  25  26
ENDBRANCH  22  25
ENDBRANCH  11  19
TORSDOF 4
ENDMDL
MODEL 4
REMARK VINA RESULT:      -7.5      1.962      3.192
REMARK  Name = 
REMARK  4 active torsions:
REMARK  status: ('A' for Active; 'I' for Inactive)
REMARK    1  A    between atoms: C_10  and  C_11
REMARK    2  A    between atoms: N_17  and  C_18
REMARK    3  A    between atoms: N_21  and  C_22
REMARK    4  A    between atoms: C_22  and  C_23
REMARK                            x       y       z     vdW  Elec       q    Type
REMARK                         _______ _______ _______ _____ _____    ______ ____
ROOT
ATOM      1  O   UNL     1       1.941   8.652  20.743  0.00  0.00    +0.000 OA
ATOM      2  C   UNL     1       2.009   7.635  20.089  0.00  0.00    +0.000 C 
ATOM      3  N   UNL     1       1.851   6.461  20.755  0.00  0.00    +0.000 N 
ATOM      4  C   UNL     1       1.704   5.236  20.067  0.00  0.00    +0.000 A 
ATOM      5  C   UNL     1       1.295   4.084  20.753  0.00  0.00    +0.000 A 
ATOM      6  C   UNL     1       1.125   2.883  20.061  0.00  0.00    +0.000 A 
ATOM      7  C   UNL     1       1.372   2.825  18.686  0.00  0.00    +0.000 A 
ATOM      8  C   UNL     1       1.800   3.968  18.005  0.00  0.00    +0.000 A 
ATOM      9  C   UNL     1       1.958   5.181  18.698  0.00  0.00    +0.000 A 
ATOM     10  C   UNL     1       2.498   6.407  18.005  0.00  0.00    +0.000 C 
ATOM     11  N   UNL     1       2.188   7.667  18.719  0.00  0.00    +0.000 N 
ATOM     12  H   UNL     1       1.706   6.483  21.776  0.00  0.00    +0.000 HD
ENDROOT
BRANCH  10  13
ATOM     13  C   UNL     1       4.009   6.196  17.909  0.00  0.00    +0.000 A 
ATOM     14  C   UNL     1       4.719   5.559  18.937  0.00  0.00    +0.000 A 
ATOM     15  C   UNL     1       6.116   5.437  18.859  0.00  0.00    +0.000 A 
ATOM     16  C   UNL     1       6.809   5.947  17.758  0.00  0.00    +0.000 A 
ATOM     17  C   UNL     1       6.112   6.574  16.726  0.00  0.00    +0.000 A 
ATOM     18  C   UNL     1       4.726   6.689  16.797  0.00  0.00    +0.000 A 
ENDBRANCH  10  13
BRANCH  11  19
ATOM     19  C   UNL     1       2.002   8.876  17.860  0.00  0.00    +0.000 C 
ATOM     20  C   UNL     1       2.430  10.258  18.398  0.00  0.00    +0.000 C 
ATOM     21  C   UNL     1       1.417  10.931  19.340  0.00  0.00    +0.000 C 
ATOM     22  N   UNL     1       0.026  10.920  18.799  0.00  0.00    +0.000 NA
ATOM     23  C   UNL     1      -0.422   9.593  18.302  0.00  0.00    +0.000 C 
ATOM     24  C   UNL     1       0.571   9.003  17.295  0.00  0.00    +0.000 C 
BRANCH  22  25
ATOM     25  C   UNL     1      -0.933  11.392  19.824  0.00  0.00    +0.000 C 
BRANCH  25  26
ATOM     26  C   UNL     1      -0.773  10.651  21.115  0.00  0.00    +0.000 A 
ATOM     27  C   UNL     1      -0.534  11.217  22.348  0.00  0.00    +0.000 A 
ATOM     28  C   UNL     1      -0.451  10.164  23.230  0.00  0.00    +0.000 A 
ATOM     29  C   UNL     1      -0.646   9.020  22.483  0.00  0.00    +0.000 A 
ATOM     30  O   UNL     1      -0.838   9.343  21.224  0.00  0.00    +0.000 OA
ENDBRANCH  25  26
ENDBRANCH  22  25
ENDBRANCH  11  19
TORSDOF 4
ENDMDL
MODEL 5
REMARK VINA RESULT:      -7.5      1.909      3.130
REMARK  Name = 
REMARK  4 active torsions:
REMARK  status: ('A' for Active; 'I' for Inactive)
REMARK    1  A    between atoms: C_10  and  C_11
REMARK    2  A    between atoms: N_17  and  C_18
REMARK    3  A    between atoms: N_21  and  C_22
REMARK    4  A    between atoms: C_22  and  C_23
REMARK                            x       y       z     vdW  Elec       q    Type
REMARK                         _______ _______ _______ _____ _____    ______ ____
ROOT
ATOM      1  O   UNL     1       1.781   8.619  20.799  0.00  0.00    +0.000 OA
ATOM      2  C   UNL     1       1.901   7.613  20.134  0.00  0.00    +0.000 C 
ATOM      3  N   UNL     1       1.750   6.426  20.777  0.00  0.00    +0.000 N 
ATOM      4  C   UNL     1       1.662   5.207  20.066  0.00  0.00    +0.000 A 
ATOM      5  C   UNL     1       1.259   4.036  20.719  0.00  0.00    +0.000 A 
ATOM      6  C   UNL     1       1.147   2.841  20.005  0.00  0.00    +0.000 A 
ATOM      7  C   UNL     1       1.446   2.810  18.639  0.00  0.00    +0.000 A 
ATOM      8  C   UNL     1       1.869   3.975  17.991  0.00  0.00    +0.000 A 
ATOM      9  C   UNL     1       1.968   5.181  18.707  0.00  0.00    +0.000 A 
ATOM     10  C   UNL     1       2.500   6.431  18.053  0.00  0.00    +0.000 C 
ATOM     11  N   UNL     1       2.130   7.672  18.772  0.00  0.00    +0.000 N 
ATOM     12  H   UNL     1       1.566   6.428  21.791  0.00  0.00    +0.000 HD
ENDROOT
BRANCH  10  13
ATOM     13  C   UNL     1       4.019   6.262  18.010  0.00  0.00    +0.000 A 
ATOM     14  C   UNL     1       4.700   5.568  19.022  0.00  0.00    +0.000 A 
ATOM     15  C   UNL     1       6.102   5.484  18.999  0.00  0.00    +0.000 A 
ATOM     16  C   UNL     1       6.829   6.086  17.969  0.00  0.00    +0.000 A 
ATOM     17  C   UNL     1       6.161   6.769  16.954  0.00  0.00    +0.000 A 
ATOM     18  C   UNL     1       4.771   6.848  16.969  0.00  0.00    +0.000 A 
ENDBRANCH  10  13
BRANCH  11  19
ATOM     19  C   UNL     1       1.944   8.888  17.924  0.00  0.00    +0.000 C 
ATOM     20  C   UNL     1       2.396  10.262  18.464  0.00  0.00    +0.000 C 
ATOM     21  C   UNL     1       1.405  10.940  19.426  0.00  0.00    +0.000 C 
ATOM     22  N   UNL     1       0.006  10.947  18.908  0.00  0.00    +0.000 NA
ATOM     23  C   UNL     1      -0.465   9.629  18.409  0.00  0.00    +0.000 C 
ATOM     24  C   UNL     1       0.506   9.034  17.383  0.00  0.00    +0.000 C 
BRANCH  22  25
ATOM     25  C   UNL     1      -0.931  11.423  19.952  0.00  0.00    +0.000 C 
BRANCH  25  26
ATOM     26  C   UNL     1      -0.498  12.733  20.530  0.00  0.00    +0.000 A 
ATOM     27  C   UNL     1      -0.179  12.968  21.850  0.00  0.00    +0.000 A 
ATOM     28  C   UNL     1       0.147  14.303  21.921  0.00  0.00    +0.000 A 
ATOM     29  C   UNL     1       0.008  14.801  20.641  0.00  0.00    +0.000 A 
ATOM     30  O   UNL     1      -0.376  13.840  19.833  0.00  0.00    +0.000 OA
ENDBRANCH  25  26
ENDBRANCH  22  25
ENDBRANCH  11  19
TORSDOF 4
ENDMDL
MODEL 6
REMARK VINA RESULT:      -7.4      1.251      1.733
REMARK  Name = 
REMARK  4 active torsions:
REMARK  status: ('A' for Active; 'I' for Inactive)
REMARK    1  A    between atoms: C_10  and  C_11
REMARK    2  A    between atoms: N_17  and  C_18
REMARK    3  A    between atoms: N_21  and  C_22
REMARK    4  A    between atoms: C_22  and  C_23
REMARK                            x       y       z     vdW  Elec       q    Type
REMARK                         _______ _______ _______ _____ _____    ______ ____
ROOT
ATOM      1  O   UNL     1       1.775   8.659  20.738  0.00  0.00    +0.000 OA
ATOM      2  C   UNL     1       1.910   7.635  20.104  0.00  0.00    +0.000 C 
ATOM      3  N   UNL     1       1.750   6.466  20.777  0.00  0.00    +0.000 N 
ATOM      4  C   UNL     1       1.679   5.228  20.100  0.00  0.00    +0.000 A 
ATOM      5  C   UNL     1       1.266   4.073  20.779  0.00  0.00    +0.000 A 
ATOM      6  C   UNL     1       1.172   2.858  20.096  0.00  0.00    +0.000 A 
ATOM      7  C   UNL     1       1.497   2.790  18.738  0.00  0.00    +0.000 A 
ATOM      8  C   UNL     1       1.929   3.937  18.066  0.00  0.00    +0.000 A 
ATOM      9  C   UNL     1       2.011   5.163  18.748  0.00  0.00    +0.000 A 
ATOM     10  C   UNL     1       2.552   6.396  18.069  0.00  0.00    +0.000 C 
ATOM     11  N   UNL     1       2.166   7.655  18.746  0.00  0.00    +0.000 N 
ATOM     12  H   UNL     1       1.546   6.496  21.788  0.00  0.00    +0.000 HD
ENDROOT
BRANCH  10  13
ATOM     13  C   UNL     1       4.073   6.231  18.061  0.00  0.00    +0.000 A 
ATOM     14  C   UNL     1       4.732   5.537  19.088  0.00  0.00    +0.000 A 
ATOM     15  C   UNL     1       6.134   5.457  19.096  0.00  0.00    +0.000 A 
ATOM     16  C   UNL     1       6.883   6.062  18.084  0.00  0.00    +0.000 A 
ATOM     17  C   UNL     1       6.237   6.745  17.054  0.00  0.00    +0.000 A 
ATOM     18  C   UNL     1       4.846   6.820  17.038  0.00  0.00    +0.000 A 
ENDBRANCH  10  13
BRANCH  11  19
ATOM     19  C   UNL     1       1.993   8.846  17.860  0.00  0.00    +0.000 C 
ATOM     20  C   UNL     1       2.371  10.245  18.392  0.00  0.00    +0.000 C 
ATOM     21  C   UNL     1       1.307  10.913  19.280  0.00  0.00    +0.000 C 
ATOM     22  N   UNL     1      -0.060  10.865  18.682  0.00  0.00    +0.000 NA
ATOM     23  C   UNL     1      -0.461   9.522  18.189  0.00  0.00    +0.000 C 
ATOM     24  C   UNL     1       0.585   8.936  17.234  0.00  0.00    +0.000 C 
BRANCH  22  25
ATOM     25  C   UNL     1      -1.070  11.334  19.659  0.00  0.00    +0.000 C 
BRANCH  25  26
ATOM     26  C   UNL     1      -2.404  11.551  19.017  0.00  0.00    +0.000 A 
ATOM     27  C   UNL     1      -2.693  11.389  17.679  0.00  0.00    +0.000 A 
ATOM     28  C   UNL     1      -4.025  11.707  17.546  0.00  0.00    +0.000 A 
ATOM     29  C   UNL     1      -4.469  12.043  18.809  0.00  0.00    +0.000 A 
ATOM     30  O   UNL     1      -3.478  11.938  19.667  0.00  0.00    +0.000 OA
ENDBRANCH  25  26
ENDBRANCH  22  25
ENDBRANCH  11  19
TORSDOF 4
ENDMDL
MODEL 7
REMARK VINA RESULT:      -7.3      5.262      8.056
REMARK  Name = 
REMARK  4 active torsions:
REMARK  status: ('A' for Active; 'I' for Inactive)
REMARK    1  A    between atoms: C_10  and  C_11
REMARK    2  A    between atoms: N_17  and  C_18
REMARK    3  A    between atoms: N_21  and  C_22
REMARK    4  A    between atoms: C_22  and  C_23
REMARK                            x       y       z     vdW  Elec       q    Type
REMARK                         _______ _______ _______ _____ _____    ______ ____
ROOT
ATOM      1  O   UNL     1      -3.026  14.560  21.146  0.00  0.00    +0.000 OA
ATOM      2  C   UNL     1      -2.489  13.648  20.557  0.00  0.00    +0.000 C 
ATOM      3  N   UNL     1      -3.293  12.810  19.852  0.00  0.00    +0.000 N 
ATOM      4  C   UNL     1      -2.759  11.846  18.966  0.00  0.00    +0.000 A 
ATOM      5  C   UNL     1      -3.596  11.170  18.069  0.00  0.00    +0.000 A 
ATOM      6  C   UNL     1      -3.058  10.239  17.178  0.00  0.00    +0.000 A 
ATOM      7  C   UNL     1      -1.685   9.974  17.186  0.00  0.00    +0.000 A 
ATOM      8  C   UNL     1      -0.852  10.633  18.095  0.00  0.00    +0.000 A 
ATOM      9  C   UNL     1      -1.391  11.580  18.983  0.00  0.00    +0.000 A 
ATOM     10  C   UNL     1      -0.531  12.243  20.028  0.00  0.00    +0.000 C 
ATOM     11  N   UNL     1      -1.115  13.496  20.561  0.00  0.00    +0.000 N 
ATOM     12  H   UNL     1      -4.312  12.968  19.865  0.00  0.00    +0.000 HD
ENDROOT
BRANCH  10  13
ATOM     13  C   UNL     1      -0.360  11.209  21.141  0.00  0.00    +0.000 A 
ATOM     14  C   UNL     1      -1.180  11.227  22.280  0.00  0.00    +0.000 A 
ATOM     15  C   UNL     1      -0.960  10.310  23.321  0.00  0.00    +0.000 A 
ATOM     16  C   UNL     1       0.071   9.373  23.232  0.00  0.00    +0.000 A 
ATOM     17  C   UNL     1       0.886   9.340  22.100  0.00  0.00    +0.000 A 
ATOM     18  C   UNL     1       0.666  10.243  21.062  0.00  0.00    +0.000 A 
ENDBRANCH  10  13
BRANCH  11  19
ATOM     19  C   UNL     1      -0.139  14.546  20.981  0.00  0.00    +0.000 C 
ATOM     20  C   UNL     1       0.077  15.781  20.080  0.00  0.00    +0.000 C 
ATOM     21  C   UNL     1       1.026  15.559  18.889  0.00  0.00    +0.000 C 
ATOM     22  N   UNL     1       2.302  14.892  19.281  0.00  0.00    +0.000 NA
ATOM     23  C   UNL     1       2.121  13.681  20.125  0.00  0.00    +0.000 C 
ATOM     24  C   UNL     1       1.246  13.973  21.349  0.00  0.00    +0.000 C 
BRANCH  22  25
ATOM     25  C   UNL     1       3.083  14.520  18.079  0.00  0.00    +0.000 C 
BRANCH  25  26
ATOM     26  C   UNL     1       4.498  14.999  18.167  0.00  0.00    +0.000 A 
ATOM     27  C   UNL     1       4.915  16.190  18.721  0.00  0.00    +0.000 A 
ATOM     28  C   UNL     1       6.283  16.210  18.570  0.00  0.00    +0.000 A 
ATOM     29  C   UNL     1       6.618  15.031  17.936  0.00  0.00    +0.000 A 
ATOM     30  O   UNL     1       5.531  14.328  17.710  0.00  0.00    +0.000 OA
ENDBRANCH  25  26
ENDBRANCH  22  25
ENDBRANCH  11  19
TORSDOF 4
ENDMDL
MODEL 8
REMARK VINA RESULT:      -7.3      1.094      1.404
REMARK  Name = 
REMARK  4 active torsions:
REMARK  status: ('A' for Active; 'I' for Inactive)
REMARK    1  A    between atoms: C_10  and  C_11
REMARK    2  A    between atoms: N_17  and  C_18
REMARK    3  A    between atoms: N_21  and  C_22
REMARK    4  A    between atoms: C_22  and  C_23
REMARK                            x       y       z     vdW  Elec       q    Type
REMARK                         _______ _______ _______ _____ _____    ______ ____
ROOT
ATOM      1  O   UNL     1       1.772   8.105  21.692  0.00  0.00    +0.000 OA
ATOM      2  C   UNL     1       1.851   7.305  20.785  0.00  0.00    +0.000 C 
ATOM      3  N   UNL     1       1.640   5.999  21.095  0.00  0.00    +0.000 N 
ATOM      4  C   UNL     1       1.503   5.015  20.090  0.00  0.00    +0.000 A 
ATOM      5  C   UNL     1       1.041   3.733  20.414  0.00  0.00    +0.000 A 
ATOM      6  C   UNL     1       0.881   2.774  19.411  0.00  0.00    +0.000 A 
ATOM      7  C   UNL     1       1.190   3.089  18.084  0.00  0.00    +0.000 A 
ATOM      8  C   UNL     1       1.671   4.362  17.763  0.00  0.00    +0.000 A 
ATOM      9  C   UNL     1       1.819   5.332  18.770  0.00  0.00    +0.000 A 
ATOM     10  C   UNL     1       2.414   6.684  18.465  0.00  0.00    +0.000 C 
ATOM     11  N   UNL     1       2.095   7.708  19.486  0.00  0.00    +0.000 N 
ATOM     12  H   UNL     1       1.448   5.743  22.075  0.00  0.00    +0.000 HD
ENDROOT
BRANCH  10  13
ATOM     13  C   UNL     1       3.924   6.461  18.374  0.00  0.00    +0.000 A 
ATOM     14  C   UNL     1       4.682   7.047  17.350  0.00  0.00    +0.000 A 
ATOM     15  C   UNL     1       6.056   6.773  17.246  0.00  0.00    +0.000 A 
ATOM     16  C   UNL     1       6.678   5.921  18.160  0.00  0.00    +0.000 A 
ATOM     17  C   UNL     1       5.935   5.341  19.188  0.00  0.00    +0.000 A 
ATOM     18  C   UNL     1       4.574   5.616  19.299  0.00  0.00    +0.000 A 
ENDBRANCH  10  13
BRANCH  11  19
ATOM     19  C   UNL     1       1.972   9.111  18.988  0.00  0.00    +0.000 C 
ATOM     20  C   UNL     1       1.107  10.120  19.775  0.00  0.00    +0.000 C 
ATOM     21  C   UNL     1      -0.405  10.029  19.505  0.00  0.00    +0.000 C 
ATOM     22  N   UNL     1      -0.733   9.990  18.049  0.00  0.00    +0.000 NA
ATOM     23  C   UNL     1       0.065   9.004  17.273  0.00  0.00    +0.000 C 
ATOM     24  C   UNL     1       1.569   9.192  17.500  0.00  0.00    +0.000 C 
BRANCH  22  25
ATOM     25  C   UNL     1      -2.171   9.698  17.850  0.00  0.00    +0.000 C 
BRANCH  25  26
ATOM     26  C   UNL     1      -3.038  10.798  18.378  0.00  0.00    +0.000 A 
ATOM     27  C   UNL     1      -4.361  11.010  18.056  0.00  0.00    +0.000 A 
ATOM     28  C   UNL     1      -4.740  12.128  18.762  0.00  0.00    +0.000 A 
ATOM     29  C   UNL     1      -3.628  12.530  19.473  0.00  0.00    +0.000 A 
ATOM     30  O   UNL     1      -2.628  11.715  19.224  0.00  0.00    +0.000 OA
ENDBRANCH  25  26
ENDBRANCH  22  25
ENDBRANCH  11  19
TORSDOF 4
ENDMDL
MODEL 9
REMARK VINA RESULT:      -7.2      1.715      2.091
REMARK  Name = 
REMARK  4 active torsions:
REMARK  status: ('A' for Active; 'I' for Inactive)
REMARK    1  A    between atoms: C_10  and  C_11
REMARK    2  A    between atoms: N_17  and  C_18
REMARK    3  A    between atoms: N_21  and  C_22
REMARK    4  A    between atoms: C_22  and  C_23
REMARK                            x       y       z     vdW  Elec       q    Type
REMARK                         _______ _______ _______ _____ _____    ______ ____
ROOT
ATOM      1  O   UNL     1       1.681   8.682  20.777  0.00  0.00    +0.000 OA
ATOM      2  C   UNL     1       1.831   7.664  20.137  0.00  0.00    +0.000 C 
ATOM      3  N   UNL     1       1.761   6.491  20.819  0.00  0.00    +0.000 N 
ATOM      4  C   UNL     1       1.713   5.248  20.148  0.00  0.00    +0.000 A 
ATOM      5  C   UNL     1       1.392   4.078  20.848  0.00  0.00    +0.000 A 
ATOM      6  C   UNL     1       1.319   2.858  20.173  0.00  0.00    +0.000 A 
ATOM      7  C   UNL     1       1.574   2.800  18.800  0.00  0.00    +0.000 A 
ATOM      8  C   UNL     1       1.915   3.965  18.104  0.00  0.00    +0.000 A 
ATOM      9  C   UNL     1       1.976   5.195  18.780  0.00  0.00    +0.000 A 
ATOM     10  C   UNL     1       2.421   6.450  18.072  0.00  0.00    +0.000 C 
ATOM     11  N   UNL     1       2.012   7.692  18.767  0.00  0.00    +0.000 N 
ATOM     12  H   UNL     1       1.611   6.515  21.839  0.00  0.00    +0.000 HD
ENDROOT
BRANCH  10  13
ATOM     13  C   UNL     1       3.945   6.356  17.983  0.00  0.00    +0.000 A 
ATOM     14  C   UNL     1       4.642   6.901  16.894  0.00  0.00    +0.000 A 
ATOM     15  C   UNL     1       6.034   6.743  16.799  0.00  0.00    +0.000 A 
ATOM     16  C   UNL     1       6.736   6.047  17.785  0.00  0.00    +0.000 A 
ATOM     17  C   UNL     1       6.054   5.510  18.876  0.00  0.00    +0.000 A 
ATOM     18  C   UNL     1       4.674   5.671  18.979  0.00  0.00    +0.000 A 
ENDBRANCH  10  13
BRANCH  11  19
ATOM     19  C   UNL     1       1.736   8.870  17.891  0.00  0.00    +0.000 C 
ATOM     20  C   UNL     1       2.385  10.231  18.228  0.00  0.00    +0.000 C 
ATOM     21  C   UNL     1       1.668  11.040  19.322  0.00  0.00    +0.000 C 
ATOM     22  N   UNL     1       0.195  11.134  19.103  0.00  0.00    +0.000 NA
ATOM     23  C   UNL     1      -0.460   9.833  18.807  0.00  0.00    +0.000 C 
ATOM     24  C   UNL     1       0.230   9.105  17.649  0.00  0.00    +0.000 C 
BRANCH  22  25
ATOM     25  C   UNL     1      -0.466  11.742  20.280  0.00  0.00    +0.000 C 
BRANCH  25  26
ATOM     26  C   UNL     1      -1.912  12.027  20.019  0.00  0.00    +0.000 A 
ATOM     27  C   UNL     1      -2.550  11.920  18.801  0.00  0.00    +0.000 A 
ATOM     28  C   UNL     1      -3.855  12.288  19.033  0.00  0.00    +0.000 A 
ATOM     29  C   UNL     1      -3.936  12.596  20.376  0.00  0.00    +0.000 A 
ATOM     30  O   UNL     1      -2.760  12.428  20.938  0.00  0.00    +0.000 OA
ENDBRANCH  25  26
ENDBRANCH  22  25
ENDBRANCH  11  19
TORSDOF 4
ENDMDL
