MODEL 1
REMARK VINA RESULT:      -8.8      0.000      0.000
REMARK  Name = 
REMARK  6 active torsions:
REMARK  status: ('A' for Active; 'I' for Inactive)
REMARK    1  A    between atoms: C_1  and  N_2
REMARK    2  A    between atoms: C_5  and  C_6
REMARK    3  A    between atoms: C_13  and  C_14
REMARK    4  A    between atoms: C_14  and  C_15
REMARK    5  A    between atoms: C_15  and  C_16
REMARK    6  A    between atoms: N_18  and  C_19
REMARK                            x       y       z     vdW  Elec       q    Type
REMARK                         _______ _______ _______ _____ _____    ______ ____
ROOT
ATOM      1  C   UNL     1       3.441   1.656  18.838  0.00  0.00    +0.000 C 
ATOM      2  N   UNL     1       3.002   3.046  18.693  0.00  0.00    +0.000 NA
ATOM      3  C   UNL     1       2.363   3.508  19.929  0.00  0.00    +0.000 C 
ATOM      4  C   UNL     1       1.836   4.929  19.765  0.00  0.00    +0.000 C 
ATOM      5  C   UNL     1       2.954   5.906  19.365  0.00  0.00    +0.000 C 
ATOM      6  C   UNL     1       3.710   5.369  18.118  0.00  0.00    +0.000 C 
ATOM      7  C   UNL     1       4.141   3.902  18.339  0.00  0.00    +0.000 C 
ENDROOT
BRANCH   5   8
ATOM      8  C   UNL     1       2.350   7.299  19.234  0.00  0.00    +0.000 A 
ATOM      9  C   UNL     1       1.711   7.878  20.345  0.00  0.00    +0.000 A 
ATOM     10  C   UNL     1       1.040   9.098  20.229  0.00  0.00    +0.000 A 
ATOM     11  C   UNL     1       1.008   9.756  19.003  0.00  0.00    +0.000 A 
ATOM     12 CL   UNL     1       0.143  11.235  18.847  0.00  0.00    +0.000 Cl
ATOM     13  C   UNL     1       1.653   9.212  17.897  0.00  0.00    +0.000 A 
ATOM     14  C   UNL     1       2.317   7.987  18.011  0.00  0.00    +0.000 A 
ENDBRANCH   5   8
BRANCH   6  15
ATOM     15  C   UNL     1       4.924   6.239  17.714  0.00  0.00    +0.000 C 
BRANCH  15  16
ATOM     16  C   UNL     1       6.281   5.613  18.034  0.00  0.00    +0.000 C 
BRANCH  16  17
ATOM     17  C   UNL     1       6.955   5.011  16.818  0.00  0.00    +0.000 C 
ATOM     18  O   UNL     1       8.008   4.392  16.887  0.00  0.00    +0.000 OA
ATOM     19  N   UNL     1       6.221   5.280  15.673  0.00  0.00    +0.000 N 
ATOM     20  H   UNL     1       5.459   5.940  15.760  0.00  0.00    +0.000 HD
BRANCH  19  21
ATOM     21  C   UNL     1       6.490   4.816  14.372  0.00  0.00    +0.000 A 
ATOM     22  C   UNL     1       5.771   3.789  13.762  0.00  0.00    +0.000 A 
ATOM     23  C   UNL     1       6.093   3.373  12.469  0.00  0.00    +0.000 A 
ATOM     24  C   UNL     1       7.138   3.981  11.779  0.00  0.00    +0.000 A 
ATOM     25  C   UNL     1       7.852   5.019  12.375  0.00  0.00    +0.000 A 
ATOM     26  C   UNL     1       7.523   5.442  13.664  0.00  0.00    +0.000 A 
ENDBRANCH  19  21
ENDBRANCH  16  17
ENDBRANCH  15  16
ENDBRANCH   6  15
TORSDOF 5
ENDMDL
MODEL 2
REMARK VINA RESULT:      -8.4      0.776      1.222
REMARK  Name = 
REMARK  6 active torsions:
REMARK  status: ('A' for Active; 'I' for Inactive)
REMARK    1  A    between atoms: C_1  and  N_2
REMARK    2  A    between atoms: C_5  and  C_6
REMARK    3  A    between atoms: C_13  and  C_14
REMARK    4  A    between atoms: C_14  and  C_15
REMARK    5  A    between atoms: C_15  and  C_16
REMARK    6  A    between atoms: N_18  and  C_19
REMARK                            x       y       z     vdW  Elec       q    Type
REMARK                         _______ _______ _______ _____ _____    ______ ____
ROOT
ATOM      1  C   UNL     1       3.708   1.408  17.707  0.00  0.00    +0.000 C 
ATOM      2  N   UNL     1       3.415   2.843  17.738  0.00  0.00    +0.000 NA
ATOM      3  C   UNL     1       2.167   3.090  18.467  0.00  0.00    +0.000 C 
ATOM      4  C   UNL     1       1.813   4.572  18.442  0.00  0.00    +0.000 C 
ATOM      5  C   UNL     1       2.939   5.434  19.038  0.00  0.00    +0.000 C 
ATOM      6  C   UNL     1       4.289   5.100  18.347  0.00  0.00    +0.000 C 
ATOM      7  C   UNL     1       4.532   3.574  18.347  0.00  0.00    +0.000 C 
ENDROOT
BRANCH   5   8
ATOM      8  C   UNL     1       2.503   6.893  18.988  0.00  0.00    +0.000 A 
ATOM      9  C   UNL     1       1.929   7.479  20.130  0.00  0.00    +0.000 A 
ATOM     10  C   UNL     1       1.407   8.775  20.085  0.00  0.00    +0.000 A 
ATOM     11  C   UNL     1       1.460   9.500  18.899  0.00  0.00    +0.000 A 
ATOM     12 CL   UNL     1       0.775  11.077  18.829  0.00  0.00    +0.000 Cl
ATOM     13  C   UNL     1       2.044   8.948  17.763  0.00  0.00    +0.000 A 
ATOM     14  C   UNL     1       2.559   7.649  17.807  0.00  0.00    +0.000 A 
ENDBRANCH   5   8
BRANCH   6  15
ATOM     15  C   UNL     1       5.496   5.845  18.963  0.00  0.00    +0.000 C 
BRANCH  15  16
ATOM     16  C   UNL     1       6.406   6.523  17.940  0.00  0.00    +0.000 C 
BRANCH  16  17
ATOM     17  C   UNL     1       6.910   5.570  16.875  0.00  0.00    +0.000 C 
ATOM     18  O   UNL     1       7.729   4.693  17.111  0.00  0.00    +0.000 OA
ATOM     19  N   UNL     1       6.328   5.858  15.649  0.00  0.00    +0.000 N 
ATOM     20  H   UNL     1       5.794   6.716  15.585  0.00  0.00    +0.000 HD
BRANCH  19  21
ATOM     21  C   UNL     1       6.490   5.140  14.451  0.00  0.00    +0.000 A 
ATOM     22  C   UNL     1       7.541   5.363  13.562  0.00  0.00    +0.000 A 
ATOM     23  C   UNL     1       7.642   4.618  12.386  0.00  0.00    +0.000 A 
ATOM     24  C   UNL     1       6.689   3.646  12.091  0.00  0.00    +0.000 A 
ATOM     25  C   UNL     1       5.644   3.407  12.981  0.00  0.00    +0.000 A 
ATOM     26  C   UNL     1       5.550   4.144  14.162  0.00  0.00    +0.000 A 
ENDBRANCH  19  21
ENDBRANCH  16  17
ENDBRANCH  15  16
ENDBRANCH   6  15
TORSDOF 5
ENDMDL
MODEL 3
REMARK VINA RESULT:      -8.4      0.310      1.014
REMARK  Name = 
REMARK  6 active torsions:
REMARK  status: ('A' for Active; 'I' for Inactive)
REMARK    1  A    between atoms: C_1  and  N_2
REMARK    2  A    between atoms: C_5  and  C_6
REMARK    3  A    between atoms: C_13  and  C_14
REMARK    4  A    between atoms: C_14  and  C_15
REMARK    5  A    between atoms: C_15  and  C_16
REMARK    6  A    between atoms: N_18  and  C_19
REMARK                            x       y       z     vdW  Elec       q    Type
REMARK                         _______ _______ _______ _____ _____    ______ ____
ROOT
ATOM      1  C   UNL     1       3.884   1.523  19.092  0.00  0.00    +0.000 C 
ATOM      2  N   UNL     1       3.301   2.860  18.964  0.00  0.00    +0.000 NA
ATOM      3  C   UNL     1       2.791   3.317  20.261  0.00  0.00    +0.000 C 
ATOM      4  C   UNL     1       2.115   4.677  20.126  0.00  0.00    +0.000 C 
ATOM      5  C   UNL     1       3.073   5.731  19.546  0.00  0.00    +0.000 C 
ATOM      6  C   UNL     1       3.703   5.210  18.226  0.00  0.00    +0.000 C 
ATOM      7  C   UNL     1       4.296   3.798  18.431  0.00  0.00    +0.000 C 
ENDROOT
BRANCH   5   8
ATOM      8  C   UNL     1       2.328   7.057  19.456  0.00  0.00    +0.000 A 
ATOM      9  C   UNL     1       2.364   7.785  18.254  0.00  0.00    +0.000 A 
ATOM     10  C   UNL     1       1.796   9.060  18.171  0.00  0.00    +0.000 A 
ATOM     11  C   UNL     1       1.180   9.616  19.289  0.00  0.00    +0.000 A 
ATOM     12 CL   UNL     1       0.522  11.203  19.202  0.00  0.00    +0.000 Cl
ATOM     13  C   UNL     1       1.113   8.903  20.481  0.00  0.00    +0.000 A 
ATOM     14  C   UNL     1       1.688   7.631  20.566  0.00  0.00    +0.000 A 
ENDBRANCH   5   8
BRANCH   6  15
ATOM     15  C   UNL     1       4.765   6.166  17.632  0.00  0.00    +0.000 C 
BRANCH  15  16
ATOM     16  C   UNL     1       6.210   5.757  17.918  0.00  0.00    +0.000 C 
BRANCH  16  17
ATOM     17  C   UNL     1       6.880   5.094  16.732  0.00  0.00    +0.000 C 
ATOM     18  O   UNL     1       7.921   4.459  16.834  0.00  0.00    +0.000 OA
ATOM     19  N   UNL     1       6.159   5.329  15.571  0.00  0.00    +0.000 N 
ATOM     20  H   UNL     1       5.409   6.007  15.626  0.00  0.00    +0.000 HD
BRANCH  19  21
ATOM     21  C   UNL     1       6.429   4.809  14.292  0.00  0.00    +0.000 A 
ATOM     22  C   UNL     1       5.691   3.775  13.716  0.00  0.00    +0.000 A 
ATOM     23  C   UNL     1       6.014   3.301  12.444  0.00  0.00    +0.000 A 
ATOM     24  C   UNL     1       7.079   3.857  11.741  0.00  0.00    +0.000 A 
ATOM     25  C   UNL     1       7.813   4.899  12.303  0.00  0.00    +0.000 A 
ATOM     26  C   UNL     1       7.483   5.381  13.570  0.00  0.00    +0.000 A 
ENDBRANCH  19  21
ENDBRANCH  16  17
ENDBRANCH  15  16
ENDBRANCH   6  15
TORSDOF 5
ENDMDL
MODEL 4
REMARK VINA RESULT:      -8.4      0.780      1.567
REMARK  Name = 
REMARK  6 active torsions:
REMARK  status: ('A' for Active; 'I' for Inactive)
REMARK    1  A    between atoms: C_1  and  N_2
REMARK    2  A    between atoms: C_5  and  C_6
REMARK    3  A    between atoms: C_13  and  C_14
REMARK    4  A    between atoms: C_14  and  C_15
REMARK    5  A    between atoms: C_15  and  C_16
REMARK    6  A    between atoms: N_18  and  C_19
REMARK                            x       y       z     vdW  Elec       q    Type
REMARK                         _______ _______ _______ _____ _____    ______ ____
ROOT
ATOM      1  C   UNL     1       3.778   1.159  18.080  0.00  0.00    +0.000 C 
ATOM      2  N   UNL     1       3.410   2.577  18.047  0.00  0.00    +0.000 NA
ATOM      3  C   UNL     1       2.216   2.809  18.865  0.00  0.00    +0.000 C 
ATOM      4  C   UNL     1       1.780   4.268  18.779  0.00  0.00    +0.000 C 
ATOM      5  C   UNL     1       2.902   5.222  19.220  0.00  0.00    +0.000 C 
ATOM      6  C   UNL     1       4.206   4.910  18.436  0.00  0.00    +0.000 C 
ATOM      7  C   UNL     1       4.532   3.402  18.510  0.00  0.00    +0.000 C 
ENDROOT
BRANCH   5   8
ATOM      8  C   UNL     1       2.383   6.651  19.118  0.00  0.00    +0.000 A 
ATOM      9  C   UNL     1       2.476   7.330  17.890  0.00  0.00    +0.000 A 
ATOM     10  C   UNL     1       2.124   8.678  17.789  0.00  0.00    +0.000 A 
ATOM     11  C   UNL     1       1.669   9.360  18.913  0.00  0.00    +0.000 A 
ATOM     12 CL   UNL     1       1.280  11.033  18.801  0.00  0.00    +0.000 Cl
ATOM     13  C   UNL     1       1.548   8.702  20.133  0.00  0.00    +0.000 A 
ATOM     14  C   UNL     1       1.908   7.354  20.235  0.00  0.00    +0.000 A 
ENDBRANCH   5   8
BRANCH   6  15
ATOM     15  C   UNL     1       5.417   5.754  18.897  0.00  0.00    +0.000 C 
BRANCH  15  16
ATOM     16  C   UNL     1       6.115   6.520  17.773  0.00  0.00    +0.000 C 
BRANCH  16  17
ATOM     17  C   UNL     1       6.729   5.609  16.730  0.00  0.00    +0.000 C 
ATOM     18  O   UNL     1       7.650   4.845  16.983  0.00  0.00    +0.000 OA
ATOM     19  N   UNL     1       6.111   5.791  15.502  0.00  0.00    +0.000 N 
ATOM     20  H   UNL     1       5.476   6.574  15.419  0.00  0.00    +0.000 HD
BRANCH  19  21
ATOM     21  C   UNL     1       6.357   5.067  14.321  0.00  0.00    +0.000 A 
ATOM     22  C   UNL     1       7.438   5.321  13.478  0.00  0.00    +0.000 A 
ATOM     23  C   UNL     1       7.622   4.568  12.317  0.00  0.00    +0.000 A 
ATOM     24  C   UNL     1       6.722   3.557  11.991  0.00  0.00    +0.000 A 
ATOM     25  C   UNL     1       5.647   3.286  12.835  0.00  0.00    +0.000 A 
ATOM     26  C   UNL     1       5.469   4.032  14.001  0.00  0.00    +0.000 A 
ENDBRANCH  19  21
ENDBRANCH  16  17
ENDBRANCH  15  16
ENDBRANCH   6  15
TORSDOF 5
ENDMDL
MODEL 5
REMARK VINA RESULT:      -8.0      1.315      1.399
REMARK  Name = 
REMARK  6 active torsions:
REMARK  status: ('A' for Active; 'I' for Inactive)
REMARK    1  A    between atoms: C_1  and  N_2
REMARK    2  A    between atoms: C_5  and  C_6
REMARK    3  A    between atoms: C_13  and  C_14
REMARK    4  A    between atoms: C_14  and  C_15
REMARK    5  A    between atoms: C_15  and  C_16
REMARK    6  A    between atoms: N_18  and  C_19
REMARK                            x       y       z     vdW  Elec       q    Type
REMARK                         _______ _______ _______ _____ _____    ______ ____
ROOT
ATOM      1  C   UNL     1       3.323   2.269  19.500  0.00  0.00    +0.000 C 
ATOM      2  N   UNL     1       2.695   3.592  19.453  0.00  0.00    +0.000 NA
ATOM      3  C   UNL     1       2.429   4.075  20.812  0.00  0.00    +0.000 C 
ATOM      4  C   UNL     1       1.710   5.418  20.776  0.00  0.00    +0.000 C 
ATOM      5  C   UNL     1       2.517   6.473  20.001  0.00  0.00    +0.000 C 
ATOM      6  C   UNL     1       2.899   5.928  18.598  0.00  0.00    +0.000 C 
ATOM      7  C   UNL     1       3.552   4.533  18.720  0.00  0.00    +0.000 C 
ENDROOT
BRANCH   5   8
ATOM      8  C   UNL     1       1.739   7.783  20.022  0.00  0.00    +0.000 A 
ATOM      9  C   UNL     1       0.948   8.094  21.142  0.00  0.00    +0.000 A 
ATOM     10  C   UNL     1       0.127   9.225  21.147  0.00  0.00    +0.000 A 
ATOM     11  C   UNL     1       0.094  10.060  20.033  0.00  0.00    +0.000 A 
ATOM     12 CL   UNL     1      -0.952  11.426  20.018  0.00  0.00    +0.000 Cl
ATOM     13  C   UNL     1       0.886   9.783  18.924  0.00  0.00    +0.000 A 
ATOM     14  C   UNL     1       1.701   8.647  18.917  0.00  0.00    +0.000 A 
ENDBRANCH   5   8
BRANCH   6  15
ATOM     15  C   UNL     1       3.808   6.886  17.793  0.00  0.00    +0.000 C 
BRANCH  15  16
ATOM     16  C   UNL     1       5.153   6.284  17.385  0.00  0.00    +0.000 C 
BRANCH  16  17
ATOM     17  C   UNL     1       5.327   6.193  15.882  0.00  0.00    +0.000 C 
ATOM     18  O   UNL     1       5.065   7.123  15.131  0.00  0.00    +0.000 OA
ATOM     19  N   UNL     1       5.795   4.938  15.522  0.00  0.00    +0.000 N 
ATOM     20  H   UNL     1       5.809   4.229  16.243  0.00  0.00    +0.000 HD
BRANCH  19  21
ATOM     21  C   UNL     1       6.151   4.511  14.230  0.00  0.00    +0.000 A 
ATOM     22  C   UNL     1       5.399   3.599  13.491  0.00  0.00    +0.000 A 
ATOM     23  C   UNL     1       5.811   3.213  12.214  0.00  0.00    +0.000 A 
ATOM     24  C   UNL     1       6.980   3.737  11.670  0.00  0.00    +0.000 A 
ATOM     25  C   UNL     1       7.730   4.661  12.395  0.00  0.00    +0.000 A 
ATOM     26  C   UNL     1       7.312   5.055  13.667  0.00  0.00    +0.000 A 
ENDBRANCH  19  21
ENDBRANCH  16  17
ENDBRANCH  15  16
ENDBRANCH   6  15
TORSDOF 5
ENDMDL
MODEL 6
REMARK VINA RESULT:      -8.0      4.409      6.794
REMARK  Name = 
REMARK  6 active torsions:
REMARK  status: ('A' for Active; 'I' for Inactive)
REMARK    1  A    between atoms: C_1  and  N_2
REMARK    2  A    between atoms: C_5  and  C_6
REMARK    3  A    between atoms: C_13  and  C_14
REMARK    4  A    between atoms: C_14  and  C_15
REMARK    5  A    between atoms: C_15  and  C_16
REMARK    6  A    between atoms: N_18  and  C_19
REMARK                            x       y       z     vdW  Elec       q    Type
REMARK                         _______ _______ _______ _____ _____    ______ ____
ROOT
ATOM      1  C   UNL     1       7.759   5.151  13.112  0.00  0.00    +0.000 C 
ATOM      2  N   UNL     1       6.732   5.170  14.157  0.00  0.00    +0.000 NA
ATOM      3  C   UNL     1       6.319   3.802  14.487  0.00  0.00    +0.000 C 
ATOM      4  C   UNL     1       5.199   3.813  15.520  0.00  0.00    +0.000 C 
ATOM      5  C   UNL     1       5.618   4.550  16.803  0.00  0.00    +0.000 C 
ATOM      6  C   UNL     1       6.161   5.963  16.453  0.00  0.00    +0.000 C 
ATOM      7  C   UNL     1       7.235   5.868  15.346  0.00  0.00    +0.000 C 
ENDROOT
BRANCH   5   8
ATOM      8  C   UNL     1       4.452   4.504  17.784  0.00  0.00    +0.000 A 
ATOM      9  C   UNL     1       4.458   3.547  18.814  0.00  0.00    +0.000 A 
ATOM     10  C   UNL     1       3.354   3.395  19.657  0.00  0.00    +0.000 A 
ATOM     11  C   UNL     1       2.234   4.203  19.481  0.00  0.00    +0.000 A 
ATOM     12 CL   UNL     1       0.855   3.985  20.487  0.00  0.00    +0.000 Cl
ATOM     13  C   UNL     1       2.217   5.171  18.483  0.00  0.00    +0.000 A 
ATOM     14  C   UNL     1       3.319   5.318  17.636  0.00  0.00    +0.000 A 
ENDBRANCH   5   8
BRANCH   6  15
ATOM     15  C   UNL     1       6.707   6.732  17.679  0.00  0.00    +0.000 C 
BRANCH  15  16
ATOM     16  C   UNL     1       7.147   8.165  17.378  0.00  0.00    +0.000 C 
BRANCH  16  17
ATOM     17  C   UNL     1       8.278   8.634  18.269  0.00  0.00    +0.000 C 
ATOM     18  O   UNL     1       8.867   7.885  19.037  0.00  0.00    +0.000 OA
ATOM     19  N   UNL     1       8.510   9.990  18.087  0.00  0.00    +0.000 N 
ATOM     20  H   UNL     1       7.833  10.501  17.536  0.00  0.00    +0.000 HD
BRANCH  19  21
ATOM     21  C   UNL     1       9.530  10.756  18.680  0.00  0.00    +0.000 A 
ATOM     22  C   UNL     1      10.627  11.247  17.973  0.00  0.00    +0.000 A 
ATOM     23  C   UNL     1      11.607  11.999  18.623  0.00  0.00    +0.000 A 
ATOM     24  C   UNL     1      11.497  12.262  19.986  0.00  0.00    +0.000 A 
ATOM     25  C   UNL     1      10.396  11.788  20.697  0.00  0.00    +0.000 A 
ATOM     26  C   UNL     1       9.410  11.046  20.045  0.00  0.00    +0.000 A 
ENDBRANCH  19  21
ENDBRANCH  16  17
ENDBRANCH  15  16
ENDBRANCH   6  15
TORSDOF 5
ENDMDL
MODEL 7
REMARK VINA RESULT:      -7.9      4.280      6.748
REMARK  Name = 
REMARK  6 active torsions:
REMARK  status: ('A' for Active; 'I' for Inactive)
REMARK    1  A    between atoms: C_1  and  N_2
REMARK    2  A    between atoms: C_5  and  C_6
REMARK    3  A    between atoms: C_13  and  C_14
REMARK    4  A    between atoms: C_14  and  C_15
REMARK    5  A    between atoms: C_15  and  C_16
REMARK    6  A    between atoms: N_18  and  C_19
REMARK                            x       y       z     vdW  Elec       q    Type
REMARK                         _______ _______ _______ _____ _____    ______ ____
ROOT
ATOM      1  C   UNL     1       7.776   5.306  13.454  0.00  0.00    +0.000 C 
ATOM      2  N   UNL     1       6.708   5.222  14.453  0.00  0.00    +0.000 NA
ATOM      3  C   UNL     1       6.278   3.830  14.619  0.00  0.00    +0.000 C 
ATOM      4  C   UNL     1       5.117   3.738  15.602  0.00  0.00    +0.000 C 
ATOM      5  C   UNL     1       5.485   4.332  16.972  0.00  0.00    +0.000 C 
ATOM      6  C   UNL     1       6.046   5.770  16.796  0.00  0.00    +0.000 C 
ATOM      7  C   UNL     1       7.163   5.787  15.730  0.00  0.00    +0.000 C 
ENDROOT
BRANCH   5   8
ATOM      8  C   UNL     1       4.281   4.190  17.895  0.00  0.00    +0.000 A 
ATOM      9  C   UNL     1       4.294   3.203  18.896  0.00  0.00    +0.000 A 
ATOM     10  C   UNL     1       3.163   2.963  19.680  0.00  0.00    +0.000 A 
ATOM     11  C   UNL     1       2.008   3.713  19.476  0.00  0.00    +0.000 A 
ATOM     12 CL   UNL     1       0.599   3.386  20.408  0.00  0.00    +0.000 Cl
ATOM     13  C   UNL     1       1.981   4.710  18.506  0.00  0.00    +0.000 A 
ATOM     14  C   UNL     1       3.110   4.945  17.717  0.00  0.00    +0.000 A 
ENDBRANCH   5   8
BRANCH   6  15
ATOM     15  C   UNL     1       6.544   6.401  18.118  0.00  0.00    +0.000 C 
BRANCH  15  16
ATOM     16  C   UNL     1       7.975   6.935  18.060  0.00  0.00    +0.000 C 
BRANCH  16  17
ATOM     17  C   UNL     1       8.040   8.449  18.050  0.00  0.00    +0.000 C 
ATOM     18  O   UNL     1       7.320   9.134  17.337  0.00  0.00    +0.000 OA
ATOM     19  N   UNL     1       9.015   8.899  18.928  0.00  0.00    +0.000 N 
ATOM     20  H   UNL     1       9.634   8.203  19.323  0.00  0.00    +0.000 HD
BRANCH  19  21
ATOM     21  C   UNL     1       9.309  10.238  19.245  0.00  0.00    +0.000 A 
ATOM     22  C   UNL     1       9.206  10.758  20.535  0.00  0.00    +0.000 A 
ATOM     23  C   UNL     1       9.508  12.099  20.781  0.00  0.00    +0.000 A 
ATOM     24  C   UNL     1       9.913  12.927  19.738  0.00  0.00    +0.000 A 
ATOM     25  C   UNL     1      10.032  12.412  18.449  0.00  0.00    +0.000 A 
ATOM     26  C   UNL     1       9.741  11.069  18.204  0.00  0.00    +0.000 A 
ENDBRANCH  19  21
ENDBRANCH  16  17
ENDBRANCH  15  16
ENDBRANCH   6  15
TORSDOF 5
ENDMDL
MODEL 8
REMARK VINA RESULT:      -7.9      3.387      7.636
REMARK  Name = 
REMARK  6 active torsions:
REMARK  status: ('A' for Active; 'I' for Inactive)
REMARK    1  A    between atoms: C_1  and  N_2
REMARK    2  A    between atoms: C_5  and  C_6
REMARK    3  A    between atoms: C_13  and  C_14
REMARK    4  A    between atoms: C_14  and  C_15
REMARK    5  A    between atoms: C_15  and  C_16
REMARK    6  A    between atoms: N_18  and  C_19
REMARK                            x       y       z     vdW  Elec       q    Type
REMARK                         _______ _______ _______ _____ _____    ______ ____
ROOT
ATOM      1  C   UNL     1       2.058   3.023  21.514  0.00  0.00    +0.000 C 
ATOM      2  N   UNL     1       3.016   3.340  20.451  0.00  0.00    +0.000 NA
ATOM      3  C   UNL     1       2.943   2.334  19.387  0.00  0.00    +0.000 C 
ATOM      4  C   UNL     1       3.987   2.611  18.311  0.00  0.00    +0.000 C 
ATOM      5  C   UNL     1       3.819   4.015  17.707  0.00  0.00    +0.000 C 
ATOM      6  C   UNL     1       3.784   5.081  18.837  0.00  0.00    +0.000 C 
ATOM      7  C   UNL     1       2.758   4.684  19.921  0.00  0.00    +0.000 C 
ENDROOT
BRANCH   5   8
ATOM      8  C   UNL     1       4.886   4.207  16.637  0.00  0.00    +0.000 A 
ATOM      9  C   UNL     1       6.188   4.575  17.022  0.00  0.00    +0.000 A 
ATOM     10  C   UNL     1       7.159   4.878  16.065  0.00  0.00    +0.000 A 
ATOM     11  C   UNL     1       6.841   4.810  14.712  0.00  0.00    +0.000 A 
ATOM     12 CL   UNL     1       8.022   5.229  13.532  0.00  0.00    +0.000 Cl
ATOM     13  C   UNL     1       5.566   4.426  14.308  0.00  0.00    +0.000 A 
ATOM     14  C   UNL     1       4.592   4.131  15.267  0.00  0.00    +0.000 A 
ENDBRANCH   5   8
BRANCH   6  15
ATOM     15  C   UNL     1       3.507   6.513  18.322  0.00  0.00    +0.000 C 
BRANCH  15  16
ATOM     16  C   UNL     1       2.437   7.269  19.109  0.00  0.00    +0.000 C 
BRANCH  16  17
ATOM     17  C   UNL     1       1.971   8.530  18.411  0.00  0.00    +0.000 C 
ATOM     18  O   UNL     1       2.248   8.779  17.246  0.00  0.00    +0.000 OA
ATOM     19  N   UNL     1       1.230   9.321  19.277  0.00  0.00    +0.000 N 
ATOM     20  H   UNL     1       1.227   9.053  20.253  0.00  0.00    +0.000 HD
BRANCH  19  21
ATOM     21  C   UNL     1       0.569  10.522  18.964  0.00  0.00    +0.000 A 
ATOM     22  C   UNL     1       1.146  11.780  19.136  0.00  0.00    +0.000 A 
ATOM     23  C   UNL     1       0.432  12.935  18.809  0.00  0.00    +0.000 A 
ATOM     24  C   UNL     1      -0.864  12.837  18.310  0.00  0.00    +0.000 A 
ATOM     25  C   UNL     1      -1.442  11.584  18.121  0.00  0.00    +0.000 A 
ATOM     26  C   UNL     1      -0.725  10.429  18.438  0.00  0.00    +0.000 A 
ENDBRANCH  19  21
ENDBRANCH  16  17
ENDBRANCH  15  16
ENDBRANCH   6  15
TORSDOF 5
ENDMDL
MODEL 9
REMARK VINA RESULT:      -7.9      4.296      6.735
REMARK  Name = 
REMARK  6 active torsions:
REMARK  status: ('A' for Active; 'I' for Inactive)
REMARK    1  A    between atoms: C_1  and  N_2
REMARK    2  A    between atoms: C_5  and  C_6
REMARK    3  A    between atoms: C_13  and  C_14
REMARK    4  A    between atoms: C_14  and  C_15
REMARK    5  A    between atoms: C_15  and  C_16
REMARK    6  A    between atoms: N_18  and  C_19
REMARK                            x       y       z     vdW  Elec       q    Type
REMARK                         _______ _______ _______ _____ _____    ______ ____
ROOT
ATOM      1  C   UNL     1       7.862   5.052  12.899  0.00  0.00    +0.000 C 
ATOM      2  N   UNL     1       6.832   5.097  13.939  0.00  0.00    +0.000 NA
ATOM      3  C   UNL     1       6.313   3.750  14.198  0.00  0.00    +0.000 C 
ATOM      4  C   UNL     1       5.189   3.795  15.226  0.00  0.00    +0.000 C 
ATOM      5  C   UNL     1       5.653   4.433  16.546  0.00  0.00    +0.000 C 
ATOM      6  C   UNL     1       6.305   5.815  16.271  0.00  0.00    +0.000 C 
ATOM      7  C   UNL     1       7.377   5.695  15.165  0.00  0.00    +0.000 C 
ENDROOT
BRANCH   5   8
ATOM      8  C   UNL     1       4.480   4.427  17.519  0.00  0.00    +0.000 A 
ATOM      9  C   UNL     1       3.563   5.493  17.496  0.00  0.00    +0.000 A 
ATOM     10  C   UNL     1       2.547   5.584  18.452  0.00  0.00    +0.000 A 
ATOM     11  C   UNL     1       2.434   4.606  19.436  0.00  0.00    +0.000 A 
ATOM     12 CL   UNL     1       1.213   4.741  20.641  0.00  0.00    +0.000 Cl
ATOM     13  C   UNL     1       3.316   3.531  19.462  0.00  0.00    +0.000 A 
ATOM     14  C   UNL     1       4.337   3.445  18.511  0.00  0.00    +0.000 A 
ENDBRANCH   5   8
BRANCH   6  15
ATOM     15  C   UNL     1       6.899   6.478  17.536  0.00  0.00    +0.000 C 
BRANCH  15  16
ATOM     16  C   UNL     1       7.130   7.983  17.409  0.00  0.00    +0.000 C 
BRANCH  16  17
ATOM     17  C   UNL     1       8.238   8.489  18.310  0.00  0.00    +0.000 C 
ATOM     18  O   UNL     1       8.834   7.762  19.092  0.00  0.00    +0.000 OA
ATOM     19  N   UNL     1       8.439   9.848  18.117  0.00  0.00    +0.000 N 
ATOM     20  H   UNL     1       7.756  10.338  17.553  0.00  0.00    +0.000 HD
BRANCH  19  21
ATOM     21  C   UNL     1       9.431  10.645  18.715  0.00  0.00    +0.000 A 
ATOM     22  C   UNL     1       9.447  10.956  20.074  0.00  0.00    +0.000 A 
ATOM     23  C   UNL     1      10.460  11.757  20.604  0.00  0.00    +0.000 A 
ATOM     24  C   UNL     1      11.462  12.254  19.776  0.00  0.00    +0.000 A 
ATOM     25  C   UNL     1      11.463  11.937  18.420  0.00  0.00    +0.000 A 
ATOM     26  C   UNL     1      10.456  11.127  17.892  0.00  0.00    +0.000 A 
ENDBRANCH  19  21
ENDBRANCH  16  17
ENDBRANCH  15  16
ENDBRANCH   6  15
TORSDOF 5
ENDMDL
