MODEL 1
REMARK VINA RESULT:      -7.8      0.000      0.000
REMARK  Name = 
REMARK  3 active torsions:
REMARK  status: ('A' for Active; 'I' for Inactive)
REMARK    1  A    between atoms: C_1  and  C_2
REMARK    2  A    between atoms: C_2  and  N_3
REMARK    3  A    between atoms: C_12  and  C_13
REMARK                            x       y       z     vdW  Elec       q    Type
REMARK                         _______ _______ _______ _____ _____    ______ ____
ROOT
ATOM      1  N   UNL     1       0.343   8.596  21.830  0.00  0.00    +0.000 N 
ATOM      2  C   UNL     1       1.184   8.123  20.840  0.00  0.00    +0.000 C 
ATOM      3  O   UNL     1       1.548   8.859  19.929  0.00  0.00    +0.000 OA
ATOM      4  N   UNL     1       1.471   6.789  20.973  0.00  0.00    +0.000 N 
ATOM      5  C   UNL     1       2.254   6.124  20.058  0.00  0.00    +0.000 A 
ATOM      6  N   UNL     1       2.180   4.759  19.981  0.00  0.00    +0.000 NA
ATOM      7  C   UNL     1       2.951   4.481  18.949  0.00  0.00    +0.000 A 
ATOM      8  C   UNL     1       3.259   3.270  18.266  0.00  0.00    +0.000 A 
ATOM      9  C   UNL     1       4.098   3.293  17.209  0.00  0.00    +0.000 A 
ATOM     10  C   UNL     1       4.720   4.533  16.734  0.00  0.00    +0.000 A 
ATOM     11  C   UNL     1       4.404   5.675  17.377  0.00  0.00    +0.000 A 
ATOM     12  N   UNL     1       3.531   5.650  18.463  0.00  0.00    +0.000 N 
ATOM     13  N   UNL     1       3.103   6.685  19.202  0.00  0.00    +0.000 NA
ATOM     14  H   UNL     1       0.345   8.129  22.724  0.00  0.00    +0.000 HD
ATOM     15  H   UNL     1       0.877   6.201  21.523  0.00  0.00    +0.000 HD
ENDROOT
BRANCH  10  16
ATOM     16  C   UNL     1       5.644   4.599  15.592  0.00  0.00    +0.000 A 
ATOM     17  C   UNL     1       5.409   3.866  14.425  0.00  0.00    +0.000 A 
ATOM     18  C   UNL     1       6.299   3.960  13.355  0.00  0.00    +0.000 A 
ATOM     19  C   UNL     1       7.405   4.785  13.486  0.00  0.00    +0.000 A 
ATOM     20  N   UNL     1       7.672   5.502  14.599  0.00  0.00    +0.000 NA
ATOM     21  C   UNL     1       6.788   5.394  15.622  0.00  0.00    +0.000 A 
ENDBRANCH  10  16
BRANCH   1  23
ATOM     22  C   UNL     1      -0.814  10.429  23.041  0.00  0.00    +0.000 C 
ATOM     23  C   UNL     1      -0.139   9.966  21.761  0.00  0.00    +0.000 C 
ENDBRANCH   1  23
TORSDOF 2
ENDMDL
MODEL 2
REMARK VINA RESULT:      -7.3      2.030      8.058
REMARK  Name = 
REMARK  3 active torsions:
REMARK  status: ('A' for Active; 'I' for Inactive)
REMARK    1  A    between atoms: C_1  and  C_2
REMARK    2  A    between atoms: C_2  and  N_3
REMARK    3  A    between atoms: C_12  and  C_13
REMARK                            x       y       z     vdW  Elec       q    Type
REMARK                         _______ _______ _______ _____ _____    ______ ____
ROOT
ATOM      1  N   UNL     1       6.244   3.989  14.568  0.00  0.00    +0.000 N 
ATOM      2  C   UNL     1       5.509   4.803  15.410  0.00  0.00    +0.000 C 
ATOM      3  O   UNL     1       5.618   6.022  15.347  0.00  0.00    +0.000 OA
ATOM      4  N   UNL     1       4.754   4.097  16.312  0.00  0.00    +0.000 N 
ATOM      5  C   UNL     1       3.991   4.731  17.266  0.00  0.00    +0.000 A 
ATOM      6  N   UNL     1       3.598   4.035  18.378  0.00  0.00    +0.000 NA
ATOM      7  C   UNL     1       3.005   4.959  19.107  0.00  0.00    +0.000 A 
ATOM      8  C   UNL     1       2.438   4.950  20.413  0.00  0.00    +0.000 A 
ATOM      9  C   UNL     1       1.893   6.078  20.915  0.00  0.00    +0.000 A 
ATOM     10  C   UNL     1       1.854   7.330  20.153  0.00  0.00    +0.000 A 
ATOM     11  C   UNL     1       2.410   7.331  18.926  0.00  0.00    +0.000 A 
ATOM     12  N   UNL     1       2.981   6.167  18.413  0.00  0.00    +0.000 N 
ATOM     13  N   UNL     1       3.584   5.997  17.226  0.00  0.00    +0.000 NA
ATOM     14  H   UNL     1       5.898   3.061  14.377  0.00  0.00    +0.000 HD
ATOM     15  H   UNL     1       4.980   3.146  16.520  0.00  0.00    +0.000 HD
ENDROOT
BRANCH  10  16
ATOM     16  C   UNL     1       1.263   8.577  20.660  0.00  0.00    +0.000 A 
ATOM     17  C   UNL     1       0.737   9.538  19.791  0.00  0.00    +0.000 A 
ATOM     18  C   UNL     1       0.172  10.705  20.305  0.00  0.00    +0.000 A 
ATOM     19  C   UNL     1       0.153  10.880  21.680  0.00  0.00    +0.000 A 
ATOM     20  N   UNL     1       0.657   9.980  22.552  0.00  0.00    +0.000 NA
ATOM     21  C   UNL     1       1.197   8.853  22.025  0.00  0.00    +0.000 A 
ENDBRANCH  10  16
BRANCH   1  23
ATOM     22  C   UNL     1       6.997   4.097  12.205  0.00  0.00    +0.000 C 
ATOM     23  C   UNL     1       7.177   4.590  13.630  0.00  0.00    +0.000 C 
ENDBRANCH   1  23
TORSDOF 2
ENDMDL
MODEL 3
REMARK VINA RESULT:      -7.2      2.076      8.064
REMARK  Name = 
REMARK  3 active torsions:
REMARK  status: ('A' for Active; 'I' for Inactive)
REMARK    1  A    between atoms: C_1  and  C_2
REMARK    2  A    between atoms: C_2  and  N_3
REMARK    3  A    between atoms: C_12  and  C_13
REMARK                            x       y       z     vdW  Elec       q    Type
REMARK                         _______ _______ _______ _____ _____    ______ ____
ROOT
ATOM      1  N   UNL     1       6.422   4.120  14.552  0.00  0.00    +0.000 N 
ATOM      2  C   UNL     1       5.658   4.910  15.390  0.00  0.00    +0.000 C 
ATOM      3  O   UNL     1       5.756   6.132  15.354  0.00  0.00    +0.000 OA
ATOM      4  N   UNL     1       4.886   4.180  16.257  0.00  0.00    +0.000 N 
ATOM      5  C   UNL     1       4.092   4.787  17.202  0.00  0.00    +0.000 A 
ATOM      6  N   UNL     1       3.676   4.065  18.289  0.00  0.00    +0.000 NA
ATOM      7  C   UNL     1       3.055   4.969  19.020  0.00  0.00    +0.000 A 
ATOM      8  C   UNL     1       2.454   4.928  20.311  0.00  0.00    +0.000 A 
ATOM      9  C   UNL     1       1.884   6.040  20.820  0.00  0.00    +0.000 A 
ATOM     10  C   UNL     1       1.853   7.307  20.083  0.00  0.00    +0.000 A 
ATOM     11  C   UNL     1       2.442   7.338  18.871  0.00  0.00    +0.000 A 
ATOM     12  N   UNL     1       3.037   6.190  18.351  0.00  0.00    +0.000 N 
ATOM     13  N   UNL     1       3.673   6.049  17.177  0.00  0.00    +0.000 NA
ATOM     14  H   UNL     1       6.091   3.193  14.333  0.00  0.00    +0.000 HD
ATOM     15  H   UNL     1       5.116   3.226  16.452  0.00  0.00    +0.000 HD
ENDROOT
BRANCH  10  16
ATOM     16  C   UNL     1       1.236   8.538  20.599  0.00  0.00    +0.000 A 
ATOM     17  C   UNL     1       0.820   8.639  21.929  0.00  0.00    +0.000 A 
ATOM     18  C   UNL     1       0.250   9.825  22.391  0.00  0.00    +0.000 A 
ATOM     19  C   UNL     1       0.108  10.879  21.502  0.00  0.00    +0.000 A 
ATOM     20  N   UNL     1       0.489  10.819  20.208  0.00  0.00    +0.000 NA
ATOM     21  C   UNL     1       1.044   9.655  19.788  0.00  0.00    +0.000 A 
ENDBRANCH  10  16
BRANCH   1  23
ATOM     22  C   UNL     1       7.186   4.343  12.200  0.00  0.00    +0.000 C 
ATOM     23  C   UNL     1       7.375   4.749  13.652  0.00  0.00    +0.000 C 
ENDBRANCH   1  23
TORSDOF 2
ENDMDL
MODEL 4
REMARK VINA RESULT:      -7.2      1.614      1.737
REMARK  Name = 
REMARK  3 active torsions:
REMARK  status: ('A' for Active; 'I' for Inactive)
REMARK    1  A    between atoms: C_1  and  C_2
REMARK    2  A    between atoms: C_2  and  N_3
REMARK    3  A    between atoms: C_12  and  C_13
REMARK                            x       y       z     vdW  Elec       q    Type
REMARK                         _______ _______ _______ _____ _____    ______ ____
ROOT
ATOM      1  N   UNL     1       0.605   9.789  19.970  0.00  0.00    +0.000 N 
ATOM      2  C   UNL     1       1.441   9.140  19.081  0.00  0.00    +0.000 C 
ATOM      3  O   UNL     1       1.643   9.604  17.964  0.00  0.00    +0.000 OA
ATOM      4  N   UNL     1       1.918   7.949  19.567  0.00  0.00    +0.000 N 
ATOM      5  C   UNL     1       2.728   7.134  18.810  0.00  0.00    +0.000 A 
ATOM      6  N   UNL     1       2.839   5.809  19.141  0.00  0.00    +0.000 NA
ATOM      7  C   UNL     1       3.576   5.324  18.163  0.00  0.00    +0.000 A 
ATOM      8  C   UNL     1       4.007   4.007  17.833  0.00  0.00    +0.000 A 
ATOM      9  C   UNL     1       4.768   3.806  16.736  0.00  0.00    +0.000 A 
ATOM     10  C   UNL     1       5.180   4.909  15.862  0.00  0.00    +0.000 A 
ATOM     11  C   UNL     1       4.750   6.147  16.174  0.00  0.00    +0.000 A 
ATOM     12  N   UNL     1       3.957   6.351  17.302  0.00  0.00    +0.000 N 
ATOM     13  N   UNL     1       3.436   7.505  17.748  0.00  0.00    +0.000 NA
ATOM     14  H   UNL     1       0.727   9.617  20.956  0.00  0.00    +0.000 HD
ATOM     15  H   UNL     1       1.446   7.490  20.320  0.00  0.00    +0.000 HD
ENDROOT
BRANCH  10  16
ATOM     16  C   UNL     1       6.015   4.733  14.664  0.00  0.00    +0.000 A 
ATOM     17  C   UNL     1       5.651   3.841  13.651  0.00  0.00    +0.000 A 
ATOM     18  C   UNL     1       6.459   3.707  12.521  0.00  0.00    +0.000 A 
ATOM     19  C   UNL     1       7.613   4.469  12.440  0.00  0.00    +0.000 A 
ATOM     20  N   UNL     1       8.003   5.335  13.400  0.00  0.00    +0.000 NA
ATOM     21  C   UNL     1       7.197   5.448  14.485  0.00  0.00    +0.000 A 
ENDBRANCH  10  16
BRANCH   1  23
ATOM     22  C   UNL     1      -1.465  10.771  19.011  0.00  0.00    +0.000 C 
ATOM     23  C   UNL     1      -0.066  11.010  19.555  0.00  0.00    +0.000 C 
ENDBRANCH   1  23
TORSDOF 2
ENDMDL
MODEL 5
REMARK VINA RESULT:      -7.2      1.838      2.303
REMARK  Name = 
REMARK  3 active torsions:
REMARK  status: ('A' for Active; 'I' for Inactive)
REMARK    1  A    between atoms: C_1  and  C_2
REMARK    2  A    between atoms: C_2  and  N_3
REMARK    3  A    between atoms: C_12  and  C_13
REMARK                            x       y       z     vdW  Elec       q    Type
REMARK                         _______ _______ _______ _____ _____    ______ ____
ROOT
ATOM      1  N   UNL     1      -0.920  10.949  20.120  0.00  0.00    +0.000 N 
ATOM      2  C   UNL     1       0.034  10.189  19.469  0.00  0.00    +0.000 C 
ATOM      3  O   UNL     1       0.258  10.362  18.276  0.00  0.00    +0.000 OA
ATOM      4  N   UNL     1       0.599   9.233  20.274  0.00  0.00    +0.000 N 
ATOM      5  C   UNL     1       1.535   8.347  19.793  0.00  0.00    +0.000 A 
ATOM      6  N   UNL     1       1.761   7.180  20.473  0.00  0.00    +0.000 NA
ATOM      7  C   UNL     1       2.605   6.542  19.688  0.00  0.00    +0.000 A 
ATOM      8  C   UNL     1       3.189   5.245  19.740  0.00  0.00    +0.000 A 
ATOM      9  C   UNL     1       4.035   4.851  18.765  0.00  0.00    +0.000 A 
ATOM     10  C   UNL     1       4.388   5.723  17.641  0.00  0.00    +0.000 A 
ATOM     11  C   UNL     1       3.813   6.941  17.592  0.00  0.00    +0.000 A 
ATOM     12  N   UNL     1       2.933   7.342  18.595  0.00  0.00    +0.000 N 
ATOM     13  N   UNL     1       2.268   8.504  18.695  0.00  0.00    +0.000 NA
ATOM     14  H   UNL     1      -0.845  11.058  21.120  0.00  0.00    +0.000 HD
ATOM     15  H   UNL     1       0.130   8.939  21.107  0.00  0.00    +0.000 HD
ENDROOT
BRANCH  10  16
ATOM     16  C   UNL     1       5.311   5.335  16.564  0.00  0.00    +0.000 A 
ATOM     17  C   UNL     1       4.950   4.383  15.606  0.00  0.00    +0.000 A 
ATOM     18  C   UNL     1       5.844   4.046  14.590  0.00  0.00    +0.000 A 
ATOM     19  C   UNL     1       7.080   4.671  14.564  0.00  0.00    +0.000 A 
ATOM     20  N   UNL     1       7.470   5.590  15.474  0.00  0.00    +0.000 NA
ATOM     21  C   UNL     1       6.579   5.901  16.449  0.00  0.00    +0.000 A 
ENDBRANCH  10  16
BRANCH   1  23
ATOM     22  C   UNL     1      -1.286  13.364  19.674  0.00  0.00    +0.000 C 
ATOM     23  C   UNL     1      -1.686  11.930  19.368  0.00  0.00    +0.000 C 
ENDBRANCH   1  23
TORSDOF 2
ENDMDL
MODEL 6
REMARK VINA RESULT:      -7.1      3.405      4.939
REMARK  Name = 
REMARK  3 active torsions:
REMARK  status: ('A' for Active; 'I' for Inactive)
REMARK    1  A    between atoms: C_1  and  C_2
REMARK    2  A    between atoms: C_2  and  N_3
REMARK    3  A    between atoms: C_12  and  C_13
REMARK                            x       y       z     vdW  Elec       q    Type
REMARK                         _______ _______ _______ _____ _____    ______ ____
ROOT
ATOM      1  N   UNL     1      -0.959  12.732  21.835  0.00  0.00    +0.000 N 
ATOM      2  C   UNL     1      -0.350  11.506  21.642  0.00  0.00    +0.000 C 
ATOM      3  O   UNL     1      -0.054  10.801  22.600  0.00  0.00    +0.000 OA
ATOM      4  N   UNL     1      -0.076  11.246  20.323  0.00  0.00    +0.000 N 
ATOM      5  C   UNL     1       0.572  10.096  19.935  0.00  0.00    +0.000 A 
ATOM      6  N   UNL     1       1.188  10.057  18.712  0.00  0.00    +0.000 NA
ATOM      7  C   UNL     1       1.788   8.885  18.724  0.00  0.00    +0.000 A 
ATOM      8  C   UNL     1       2.667   8.234  17.811  0.00  0.00    +0.000 A 
ATOM      9  C   UNL     1       3.143   7.005  18.100  0.00  0.00    +0.000 A 
ATOM     10  C   UNL     1       2.779   6.298  19.332  0.00  0.00    +0.000 A 
ATOM     11  C   UNL     1       1.962   6.932  20.196  0.00  0.00    +0.000 A 
ATOM     12  N   UNL     1       1.479   8.205  19.900  0.00  0.00    +0.000 N 
ATOM     13  N   UNL     1       0.674   8.978  20.647  0.00  0.00    +0.000 NA
ATOM     14  H   UNL     1      -1.507  13.119  21.081  0.00  0.00    +0.000 HD
ATOM     15  H   UNL     1      -0.034  11.996  19.663  0.00  0.00    +0.000 HD
ENDROOT
BRANCH  10  16
ATOM     16  C   UNL     1       3.269   4.956  19.680  0.00  0.00    +0.000 A 
ATOM     17  C   UNL     1       2.541   4.114  20.527  0.00  0.00    +0.000 A 
ATOM     18  C   UNL     1       3.028   2.842  20.827  0.00  0.00    +0.000 A 
ATOM     19  C   UNL     1       4.236   2.449  20.273  0.00  0.00    +0.000 A 
ATOM     20  N   UNL     1       4.972   3.235  19.457  0.00  0.00    +0.000 NA
ATOM     21  C   UNL     1       4.473   4.465  19.180  0.00  0.00    +0.000 A 
ENDBRANCH  10  16
BRANCH   1  23
ATOM     22  C   UNL     1      -2.678  13.135  23.580  0.00  0.00    +0.000 C 
ATOM     23  C   UNL     1      -1.212  13.197  23.189  0.00  0.00    +0.000 C 
ENDBRANCH   1  23
TORSDOF 2
ENDMDL
MODEL 7
REMARK VINA RESULT:      -7.0      1.214      1.697
REMARK  Name = 
REMARK  3 active torsions:
REMARK  status: ('A' for Active; 'I' for Inactive)
REMARK    1  A    between atoms: C_1  and  C_2
REMARK    2  A    between atoms: C_2  and  N_3
REMARK    3  A    between atoms: C_12  and  C_13
REMARK                            x       y       z     vdW  Elec       q    Type
REMARK                         _______ _______ _______ _____ _____    ______ ____
ROOT
ATOM      1  N   UNL     1      -0.490  10.167  22.059  0.00  0.00    +0.000 N 
ATOM      2  C   UNL     1       0.342   9.505  21.176  0.00  0.00    +0.000 C 
ATOM      3  O   UNL     1       0.705  10.047  20.138  0.00  0.00    +0.000 OA
ATOM      4  N   UNL     1       0.622   8.219  21.565  0.00  0.00    +0.000 N 
ATOM      5  C   UNL     1       1.395   7.384  20.792  0.00  0.00    +0.000 A 
ATOM      6  N   UNL     1       1.312   6.030  20.983  0.00  0.00    +0.000 NA
ATOM      7  C   UNL     1       2.075   5.552  20.021  0.00  0.00    +0.000 A 
ATOM      8  C   UNL     1       2.372   4.230  19.585  0.00  0.00    +0.000 A 
ATOM      9  C   UNL     1       3.205   4.040  18.539  0.00  0.00    +0.000 A 
ATOM     10  C   UNL     1       3.831   5.160  17.829  0.00  0.00    +0.000 A 
ATOM     11  C   UNL     1       3.526   6.407  18.240  0.00  0.00    +0.000 A 
ATOM     12  N   UNL     1       2.659   6.600  19.314  0.00  0.00    +0.000 N 
ATOM     13  N   UNL     1       2.242   7.762  19.840  0.00  0.00    +0.000 NA
ATOM     14  H   UNL     1      -0.486   9.883  23.027  0.00  0.00    +0.000 HD
ATOM     15  H   UNL     1       0.028   7.754  22.222  0.00  0.00    +0.000 HD
ENDROOT
BRANCH  10  16
ATOM     16  C   UNL     1       4.748   4.996  16.692  0.00  0.00    +0.000 A 
ATOM     17  C   UNL     1       5.167   3.730  16.273  0.00  0.00    +0.000 A 
ATOM     18  C   UNL     1       6.028   3.608  15.183  0.00  0.00    +0.000 A 
ATOM     19  C   UNL     1       6.451   4.762  14.544  0.00  0.00    +0.000 A 
ATOM     20  N   UNL     1       6.077   6.004  14.922  0.00  0.00    +0.000 NA
ATOM     21  C   UNL     1       5.236   6.092  15.983  0.00  0.00    +0.000 A 
ENDBRANCH  10  16
BRANCH   1  23
ATOM     22  C   UNL     1      -1.962  12.049  22.734  0.00  0.00    +0.000 C 
ATOM     23  C   UNL     1      -0.965  11.500  21.728  0.00  0.00    +0.000 C 
ENDBRANCH   1  23
TORSDOF 2
ENDMDL
MODEL 8
REMARK VINA RESULT:      -6.9      2.756      8.112
REMARK  Name = 
REMARK  3 active torsions:
REMARK  status: ('A' for Active; 'I' for Inactive)
REMARK    1  A    between atoms: C_1  and  C_2
REMARK    2  A    between atoms: C_2  and  N_3
REMARK    3  A    between atoms: C_12  and  C_13
REMARK                            x       y       z     vdW  Elec       q    Type
REMARK                         _______ _______ _______ _____ _____    ______ ____
ROOT
ATOM      1  N   UNL     1       5.804   4.099  16.534  0.00  0.00    +0.000 N 
ATOM      2  C   UNL     1       5.016   5.196  16.828  0.00  0.00    +0.000 C 
ATOM      3  O   UNL     1       5.145   6.241  16.199  0.00  0.00    +0.000 OA
ATOM      4  N   UNL     1       4.183   4.986  17.897  0.00  0.00    +0.000 N 
ATOM      5  C   UNL     1       3.356   5.977  18.373  0.00  0.00    +0.000 A 
ATOM      6  N   UNL     1       2.867   5.884  19.649  0.00  0.00    +0.000 NA
ATOM      7  C   UNL     1       2.231   7.028  19.802  0.00  0.00    +0.000 A 
ATOM      8  C   UNL     1       1.563   7.627  20.908  0.00  0.00    +0.000 A 
ATOM      9  C   UNL     1       0.994   8.843  20.769  0.00  0.00    +0.000 A 
ATOM     10  C   UNL     1       1.032   9.580  19.502  0.00  0.00    +0.000 A 
ATOM     11  C   UNL     1       1.683   9.011  18.469  0.00  0.00    +0.000 A 
ATOM     12  N   UNL     1       2.277   7.759  18.617  0.00  0.00    +0.000 N 
ATOM     13  N   UNL     1       2.969   7.060  17.704  0.00  0.00    +0.000 NA
ATOM     14  H   UNL     1       5.462   3.183  16.783  0.00  0.00    +0.000 HD
ATOM     15  H   UNL     1       4.380   4.254  18.551  0.00  0.00    +0.000 HD
ENDROOT
BRANCH  10  16
ATOM     16  C   UNL     1       0.418  10.902  19.307  0.00  0.00    +0.000 A 
ATOM     17  C   UNL     1      -0.725  11.063  18.518  0.00  0.00    +0.000 A 
ATOM     18  C   UNL     1      -1.289  12.330  18.364  0.00  0.00    +0.000 A 
ATOM     19  C   UNL     1      -0.688  13.403  19.002  0.00  0.00    +0.000 A 
ATOM     20  N   UNL     1       0.421  13.291  19.764  0.00  0.00    +0.000 NA
ATOM     21  C   UNL     1       0.946  12.047  19.900  0.00  0.00    +0.000 A 
ENDBRANCH  10  16
BRANCH   1  23
ATOM     22  C   UNL     1       6.287   3.889  14.108  0.00  0.00    +0.000 C 
ATOM     23  C   UNL     1       6.816   4.205  15.496  0.00  0.00    +0.000 C 
ENDBRANCH   1  23
TORSDOF 2
ENDMDL
MODEL 9
REMARK VINA RESULT:      -6.9      2.272      3.310
REMARK  Name = 
REMARK  3 active torsions:
REMARK  status: ('A' for Active; 'I' for Inactive)
REMARK    1  A    between atoms: C_1  and  C_2
REMARK    2  A    between atoms: C_2  and  N_3
REMARK    3  A    between atoms: C_12  and  C_13
REMARK                            x       y       z     vdW  Elec       q    Type
REMARK                         _______ _______ _______ _____ _____    ______ ____
ROOT
ATOM      1  N   UNL     1      -1.619  11.923  20.779  0.00  0.00    +0.000 N 
ATOM      2  C   UNL     1      -0.733  11.090  20.122  0.00  0.00    +0.000 C 
ATOM      3  O   UNL     1      -0.562  11.194  18.913  0.00  0.00    +0.000 OA
ATOM      4  N   UNL     1      -0.171  10.149  20.947  0.00  0.00    +0.000 N 
ATOM      5  C   UNL     1       0.700   9.198  20.468  0.00  0.00    +0.000 A 
ATOM      6  N   UNL     1       0.907   8.055  21.194  0.00  0.00    +0.000 NA
ATOM      7  C   UNL     1       1.682   7.342  20.403  0.00  0.00    +0.000 A 
ATOM      8  C   UNL     1       2.211   6.023  20.493  0.00  0.00    +0.000 A 
ATOM      9  C   UNL     1       2.989   5.543  19.500  0.00  0.00    +0.000 A 
ATOM     10  C   UNL     1       3.323   6.343  18.317  0.00  0.00    +0.000 A 
ATOM     11  C   UNL     1       2.801   7.583  18.235  0.00  0.00    +0.000 A 
ATOM     12  N   UNL     1       1.990   8.072  19.257  0.00  0.00    +0.000 N 
ATOM     13  N   UNL     1       1.384   9.267  19.329  0.00  0.00    +0.000 NA
ATOM     14  H   UNL     1      -1.489  12.077  21.768  0.00  0.00    +0.000 HD
ATOM     15  H   UNL     1      -0.611   9.916  21.815  0.00  0.00    +0.000 HD
ENDROOT
BRANCH  10  16
ATOM     16  C   UNL     1       4.173   5.861  17.218  0.00  0.00    +0.000 A 
ATOM     17  C   UNL     1       4.312   4.496  16.952  0.00  0.00    +0.000 A 
ATOM     18  C   UNL     1       5.117   4.072  15.895  0.00  0.00    +0.000 A 
ATOM     19  C   UNL     1       5.766   5.031  15.133  0.00  0.00    +0.000 A 
ATOM     20  N   UNL     1       5.664   6.358  15.362  0.00  0.00    +0.000 NA
ATOM     21  C   UNL     1       4.873   6.742  16.395  0.00  0.00    +0.000 A 
ENDBRANCH  10  16
BRANCH   1  23
ATOM     22  C   UNL     1      -3.803  12.463  19.729  0.00  0.00    +0.000 C 
ATOM     23  C   UNL     1      -2.377  12.901  20.016  0.00  0.00    +0.000 C 
ENDBRANCH   1  23
TORSDOF 2
ENDMDL
