MODEL 1
REMARK VINA RESULT:      -7.0      0.000      0.000
REMARK  Name = 
REMARK  11 active torsions:
REMARK  status: ('A' for Active; 'I' for Inactive)
REMARK    1  A    between atoms: C_1  and  C_2
REMARK    2  A    between atoms: C_2  and  N_3
REMARK    3  A    between atoms: N_3  and  C_4
REMARK    4  A    between atoms: N_3  and  C_6
REMARK    5  A    between atoms: C_4  and  C_5
REMARK    6  A    between atoms: C_6  and  C_7
REMARK    7  A    between atoms: C_7  and  N_8
REMARK    8  A    between atoms: C_13  and  N_14
REMARK    9  A    between atoms: N_14  and  C_15
REMARK   10  A    between atoms: C_15  and  C_16
REMARK   11  A    between atoms: C_16  and  N_17
REMARK                            x       y       z     vdW  Elec       q    Type
REMARK                         _______ _______ _______ _____ _____    ______ ____
ROOT
ATOM      1  N   UNL     1       2.675   8.268  18.067  0.00  0.00    +0.000 N 
ATOM      2  N   UNL     1       3.507   7.911  17.057  0.00  0.00    +0.000 NA
ATOM      3  C   UNL     1       3.847   6.645  17.348  0.00  0.00    +0.000 A 
ATOM      4  C   UNL     1       3.226   6.199  18.533  0.00  0.00    +0.000 A 
ATOM      5  C   UNL     1       3.265   4.978  19.223  0.00  0.00    +0.000 A 
ATOM      6  C   UNL     1       2.501   4.838  20.405  0.00  0.00    +0.000 A 
ATOM      7  C   UNL     1       1.834   5.983  20.892  0.00  0.00    +0.000 A 
ATOM      8  C   UNL     1       1.793   7.204  20.203  0.00  0.00    +0.000 A 
ATOM      9  C   UNL     1       2.491   7.275  19.000  0.00  0.00    +0.000 A 
ATOM     10  S   UNL     1       4.276   3.709  18.491  0.00  0.00    +0.000 S 
ATOM     11  C   UNL     1       5.018   4.484  17.025  0.00  0.00    +0.000 A 
ATOM     12  C   UNL     1       5.916   3.692  16.290  0.00  0.00    +0.000 A 
ATOM     13  C   UNL     1       6.535   4.187  15.138  0.00  0.00    +0.000 A 
ATOM     14  C   UNL     1       6.261   5.482  14.703  0.00  0.00    +0.000 A 
ATOM     15  C   UNL     1       5.376   6.285  15.419  0.00  0.00    +0.000 A 
ATOM     16  C   UNL     1       4.754   5.801  16.579  0.00  0.00    +0.000 A 
ENDROOT
BRANCH   6  17
ATOM     17  N   UNL     1       2.509   3.635  21.148  0.00  0.00    +0.000 N 
ATOM     18  H   UNL     1       3.353   3.084  20.971  0.00  0.00    +0.000 HD
BRANCH  17  19
ATOM     19  C   UNL     1       1.296   2.808  21.075  0.00  0.00    +0.000 C 
BRANCH  19  20
ATOM     20  C   UNL     1       0.746   2.694  19.642  0.00  0.00    +0.000 C 
BRANCH  20  21
ATOM     21  N   UNL     1       1.395   1.646  18.850  0.00  0.00    +0.000 NA
ATOM     22  H   UNL     1       1.121   1.735  17.872  0.00  0.00    +0.000 HD
ATOM     23  H   UNL     1       1.044   0.739  19.160  0.00  0.00    +0.000 HD
ENDBRANCH  20  21
ENDBRANCH  19  20
ENDBRANCH  17  19
ENDBRANCH   6  17
BRANCH   1  24
ATOM     24  C   UNL     1       2.102   9.609  18.098  0.00  0.00    +0.000 C 
BRANCH  24  25
ATOM     25  C   UNL     1       0.580   9.608  17.884  0.00  0.00    +0.000 C 
BRANCH  25  26
ATOM     26  N   UNL     1      -0.244  10.057  19.039  0.00  0.00    +0.000 NA
BRANCH  26  28
ATOM     27  C   UNL     1       0.568  10.485  21.408  0.00  0.00    +0.000 C 
ATOM     28  C   UNL     1       0.592  10.884  19.933  0.00  0.00    +0.000 C 
ENDBRANCH  26  28
BRANCH  26  29
ATOM     29  C   UNL     1      -1.520  10.687  18.672  0.00  0.00    +0.000 C 
ATOM     30  C   UNL     1      -2.219  10.125  17.437  0.00  0.00    +0.000 C 
ENDBRANCH  26  29
ENDBRANCH  25  26
ENDBRANCH  24  25
ENDBRANCH   1  24
TORSDOF 9
ENDMDL
MODEL 2
REMARK VINA RESULT:      -6.8      1.772      6.123
REMARK  Name = 
REMARK  11 active torsions:
REMARK  status: ('A' for Active; 'I' for Inactive)
REMARK    1  A    between atoms: C_1  and  C_2
REMARK    2  A    between atoms: C_2  and  N_3
REMARK    3  A    between atoms: N_3  and  C_4
REMARK    4  A    between atoms: N_3  and  C_6
REMARK    5  A    between atoms: C_4  and  C_5
REMARK    6  A    between atoms: C_6  and  C_7
REMARK    7  A    between atoms: C_7  and  N_8
REMARK    8  A    between atoms: C_13  and  N_14
REMARK    9  A    between atoms: N_14  and  C_15
REMARK   10  A    between atoms: C_15  and  C_16
REMARK   11  A    between atoms: C_16  and  N_17
REMARK                            x       y       z     vdW  Elec       q    Type
REMARK                         _______ _______ _______ _____ _____    ______ ____
ROOT
ATOM      1  N   UNL     1       4.159   6.828  17.079  0.00  0.00    +0.000 N 
ATOM      2  N   UNL     1       3.514   8.015  17.190  0.00  0.00    +0.000 NA
ATOM      3  C   UNL     1       2.751   7.870  18.285  0.00  0.00    +0.000 A 
ATOM      4  C   UNL     1       2.918   6.598  18.870  0.00  0.00    +0.000 A 
ATOM      5  C   UNL     1       2.355   5.994  20.005  0.00  0.00    +0.000 A 
ATOM      6  C   UNL     1       2.748   4.677  20.341  0.00  0.00    +0.000 A 
ATOM      7  C   UNL     1       3.599   3.998  19.442  0.00  0.00    +0.000 A 
ATOM      8  C   UNL     1       4.163   4.601  18.309  0.00  0.00    +0.000 A 
ATOM      9  C   UNL     1       3.815   5.926  18.058  0.00  0.00    +0.000 A 
ATOM     10  S   UNL     1       1.205   6.994  20.923  0.00  0.00    +0.000 S 
ATOM     11  C   UNL     1       1.090   8.552  19.994  0.00  0.00    +0.000 A 
ATOM     12  C   UNL     1       0.189   9.508  20.493  0.00  0.00    +0.000 A 
ATOM     13  C   UNL     1       0.030  10.745  19.862  0.00  0.00    +0.000 A 
ATOM     14  C   UNL     1       0.774  11.044  18.723  0.00  0.00    +0.000 A 
ATOM     15  C   UNL     1       1.671  10.110  18.209  0.00  0.00    +0.000 A 
ATOM     16  C   UNL     1       1.834   8.863  18.832  0.00  0.00    +0.000 A 
ENDROOT
BRANCH   6  17
ATOM     17  N   UNL     1       2.207   4.013  21.466  0.00  0.00    +0.000 N 
ATOM     18  H   UNL     1       2.910   3.862  22.194  0.00  0.00    +0.000 HD
BRANCH  17  19
ATOM     19  C   UNL     1       1.430   2.793  21.200  0.00  0.00    +0.000 C 
BRANCH  19  20
ATOM     20  C   UNL     1       0.631   2.878  19.887  0.00  0.00    +0.000 C 
BRANCH  20  21
ATOM     21  N   UNL     1       0.970   1.824  18.927  0.00  0.00    +0.000 NA
ATOM     22  H   UNL     1       1.811   2.084  18.413  0.00  0.00    +0.000 HD
ATOM     23  H   UNL     1       0.223   1.762  18.234  0.00  0.00    +0.000 HD
ENDBRANCH  20  21
ENDBRANCH  19  20
ENDBRANCH  17  19
ENDBRANCH   6  17
BRANCH   1  24
ATOM     24  C   UNL     1       5.086   6.604  15.976  0.00  0.00    +0.000 C 
BRANCH  24  25
ATOM     25  C   UNL     1       6.539   6.437  16.448  0.00  0.00    +0.000 C 
BRANCH  25  26
ATOM     26  N   UNL     1       7.156   5.104  16.208  0.00  0.00    +0.000 NA
BRANCH  26  28
ATOM     27  C   UNL     1       7.672   5.567  18.652  0.00  0.00    +0.000 C 
ATOM     28  C   UNL     1       7.678   4.579  17.487  0.00  0.00    +0.000 C 
ENDBRANCH  26  28
BRANCH  26  29
ATOM     29  C   UNL     1       6.299   4.154  15.485  0.00  0.00    +0.000 C 
ATOM     30  C   UNL     1       6.532   4.044  13.981  0.00  0.00    +0.000 C 
ENDBRANCH  26  29
ENDBRANCH  25  26
ENDBRANCH  24  25
ENDBRANCH   1  24
TORSDOF 9
ENDMDL
MODEL 3
REMARK VINA RESULT:      -6.7      1.953      4.875
REMARK  Name = 
REMARK  11 active torsions:
REMARK  status: ('A' for Active; 'I' for Inactive)
REMARK    1  A    between atoms: C_1  and  C_2
REMARK    2  A    between atoms: C_2  and  N_3
REMARK    3  A    between atoms: N_3  and  C_4
REMARK    4  A    between atoms: N_3  and  C_6
REMARK    5  A    between atoms: C_4  and  C_5
REMARK    6  A    between atoms: C_6  and  C_7
REMARK    7  A    between atoms: C_7  and  N_8
REMARK    8  A    between atoms: C_13  and  N_14
REMARK    9  A    between atoms: N_14  and  C_15
REMARK   10  A    between atoms: C_15  and  C_16
REMARK   11  A    between atoms: C_16  and  N_17
REMARK                            x       y       z     vdW  Elec       q    Type
REMARK                         _______ _______ _______ _____ _____    ______ ____
ROOT
ATOM      1  N   UNL     1       2.698   7.739  18.194  0.00  0.00    +0.000 N 
ATOM      2  N   UNL     1       2.173   6.951  19.165  0.00  0.00    +0.000 NA
ATOM      3  C   UNL     1       2.914   5.832  19.112  0.00  0.00    +0.000 A 
ATOM      4  C   UNL     1       3.909   5.914  18.116  0.00  0.00    +0.000 A 
ATOM      5  C   UNL     1       4.907   5.022  17.696  0.00  0.00    +0.000 A 
ATOM      6  C   UNL     1       5.779   5.416  16.653  0.00  0.00    +0.000 A 
ATOM      7  C   UNL     1       5.516   6.644  16.010  0.00  0.00    +0.000 A 
ATOM      8  C   UNL     1       4.519   7.537  16.429  0.00  0.00    +0.000 A 
ATOM      9  C   UNL     1       3.736   7.148  17.513  0.00  0.00    +0.000 A 
ATOM     10  S   UNL     1       4.975   3.472  18.568  0.00  0.00    +0.000 S 
ATOM     11  C   UNL     1       3.602   3.539  19.756  0.00  0.00    +0.000 A 
ATOM     12  C   UNL     1       3.405   2.393  20.544  0.00  0.00    +0.000 A 
ATOM     13  C   UNL     1       2.384   2.342  21.498  0.00  0.00    +0.000 A 
ATOM     14  C   UNL     1       1.547   3.441  21.679  0.00  0.00    +0.000 A 
ATOM     15  C   UNL     1       1.723   4.587  20.906  0.00  0.00    +0.000 A 
ATOM     16  C   UNL     1       2.741   4.646  19.942  0.00  0.00    +0.000 A 
ENDROOT
BRANCH   6  17
ATOM     17  N   UNL     1       6.796   4.555  16.181  0.00  0.00    +0.000 N 
ATOM     18  H   UNL     1       7.669   4.675  16.701  0.00  0.00    +0.000 HD
BRANCH  17  19
ATOM     19  C   UNL     1       7.027   4.544  14.729  0.00  0.00    +0.000 C 
BRANCH  19  20
ATOM     20  C   UNL     1       5.918   3.802  13.961  0.00  0.00    +0.000 C 
BRANCH  20  21
ATOM     21  N   UNL     1       6.356   3.279  12.664  0.00  0.00    +0.000 NA
ATOM     22  H   UNL     1       7.058   3.900  12.262  0.00  0.00    +0.000 HD
ATOM     23  H   UNL     1       5.563   3.296  12.022  0.00  0.00    +0.000 HD
ENDBRANCH  20  21
ENDBRANCH  19  20
ENDBRANCH  17  19
ENDBRANCH   6  17
BRANCH   1  24
ATOM     24  C   UNL     1       2.131   9.059  17.943  0.00  0.00    +0.000 C 
BRANCH  24  25
ATOM     25  C   UNL     1       0.866   9.328  18.774  0.00  0.00    +0.000 C 
BRANCH  25  26
ATOM     26  N   UNL     1       0.887  10.552  19.620  0.00  0.00    +0.000 NA
BRANCH  26  28
ATOM     27  C   UNL     1      -1.227  10.873  18.249  0.00  0.00    +0.000 C 
ATOM     28  C   UNL     1      -0.146  11.490  19.135  0.00  0.00    +0.000 C 
ENDBRANCH  26  28
BRANCH  26  29
ATOM     29  C   UNL     1       0.822  10.297  21.066  0.00  0.00    +0.000 C 
ATOM     30  C   UNL     1       0.246   8.948  21.488  0.00  0.00    +0.000 C 
ENDBRANCH  26  29
ENDBRANCH  25  26
ENDBRANCH  24  25
ENDBRANCH   1  24
TORSDOF 9
ENDMDL
MODEL 4
REMARK VINA RESULT:      -6.7      0.474      1.396
REMARK  Name = 
REMARK  11 active torsions:
REMARK  status: ('A' for Active; 'I' for Inactive)
REMARK    1  A    between atoms: C_1  and  C_2
REMARK    2  A    between atoms: C_2  and  N_3
REMARK    3  A    between atoms: N_3  and  C_4
REMARK    4  A    between atoms: N_3  and  C_6
REMARK    5  A    between atoms: C_4  and  C_5
REMARK    6  A    between atoms: C_6  and  C_7
REMARK    7  A    between atoms: C_7  and  N_8
REMARK    8  A    between atoms: C_13  and  N_14
REMARK    9  A    between atoms: N_14  and  C_15
REMARK   10  A    between atoms: C_15  and  C_16
REMARK   11  A    between atoms: C_16  and  N_17
REMARK                            x       y       z     vdW  Elec       q    Type
REMARK                         _______ _______ _______ _____ _____    ______ ____
ROOT
ATOM      1  N   UNL     1       2.530   8.321  18.132  0.00  0.00    +0.000 N 
ATOM      2  N   UNL     1       3.379   7.974  17.133  0.00  0.00    +0.000 NA
ATOM      3  C   UNL     1       3.749   6.721  17.440  0.00  0.00    +0.000 A 
ATOM      4  C   UNL     1       3.132   6.273  18.626  0.00  0.00    +0.000 A 
ATOM      5  C   UNL     1       3.197   5.061  19.331  0.00  0.00    +0.000 A 
ATOM      6  C   UNL     1       2.428   4.915  20.510  0.00  0.00    +0.000 A 
ATOM      7  C   UNL     1       1.728   6.047  20.978  0.00  0.00    +0.000 A 
ATOM      8  C   UNL     1       1.661   7.259  20.274  0.00  0.00    +0.000 A 
ATOM      9  C   UNL     1       2.365   7.334  19.076  0.00  0.00    +0.000 A 
ATOM     10  S   UNL     1       4.247   3.811  18.622  0.00  0.00    +0.000 S 
ATOM     11  C   UNL     1       4.979   4.588  17.152  0.00  0.00    +0.000 A 
ATOM     12  C   UNL     1       5.903   3.811  16.433  0.00  0.00    +0.000 A 
ATOM     13  C   UNL     1       6.517   4.309  15.279  0.00  0.00    +0.000 A 
ATOM     14  C   UNL     1       6.212   5.591  14.827  0.00  0.00    +0.000 A 
ATOM     15  C   UNL     1       5.301   6.379  15.527  0.00  0.00    +0.000 A 
ATOM     16  C   UNL     1       4.683   5.892  16.688  0.00  0.00    +0.000 A 
ENDROOT
BRANCH   6  17
ATOM     17  N   UNL     1       2.463   3.722  21.267  0.00  0.00    +0.000 N 
ATOM     18  H   UNL     1       3.340   3.211  21.133  0.00  0.00    +0.000 HD
BRANCH  17  19
ATOM     19  C   UNL     1       1.296   2.835  21.151  0.00  0.00    +0.000 C 
BRANCH  19  20
ATOM     20  C   UNL     1       0.770   2.738  19.707  0.00  0.00    +0.000 C 
BRANCH  20  21
ATOM     21  N   UNL     1       1.359   1.634  18.944  0.00  0.00    +0.000 NA
ATOM     22  H   UNL     1       0.900   1.561  18.036  0.00  0.00    +0.000 HD
ATOM     23  H   UNL     1       1.161   0.759  19.432  0.00  0.00    +0.000 HD
ENDBRANCH  20  21
ENDBRANCH  19  20
ENDBRANCH  17  19
ENDBRANCH   6  17
BRANCH   1  24
ATOM     24  C   UNL     1       1.922   9.646  18.144  0.00  0.00    +0.000 C 
BRANCH  24  25
ATOM     25  C   UNL     1       0.393   9.595  18.290  0.00  0.00    +0.000 C 
BRANCH  25  26
ATOM     26  N   UNL     1      -0.290  10.902  18.493  0.00  0.00    +0.000 NA
BRANCH  26  28
ATOM     27  C   UNL     1      -2.508   9.902  17.763  0.00  0.00    +0.000 C 
ATOM     28  C   UNL     1      -1.448  10.986  17.579  0.00  0.00    +0.000 C 
ENDBRANCH  26  28
BRANCH  26  29
ATOM     29  C   UNL     1      -0.616  11.210  19.892  0.00  0.00    +0.000 C 
ATOM     30  C   UNL     1      -0.348  10.104  20.907  0.00  0.00    +0.000 C 
ENDBRANCH  26  29
ENDBRANCH  25  26
ENDBRANCH  24  25
ENDBRANCH   1  24
TORSDOF 9
ENDMDL
MODEL 5
REMARK VINA RESULT:      -6.6      0.700      1.123
REMARK  Name = 
REMARK  11 active torsions:
REMARK  status: ('A' for Active; 'I' for Inactive)
REMARK    1  A    between atoms: C_1  and  C_2
REMARK    2  A    between atoms: C_2  and  N_3
REMARK    3  A    between atoms: N_3  and  C_4
REMARK    4  A    between atoms: N_3  and  C_6
REMARK    5  A    between atoms: C_4  and  C_5
REMARK    6  A    between atoms: C_6  and  C_7
REMARK    7  A    between atoms: C_7  and  N_8
REMARK    8  A    between atoms: C_13  and  N_14
REMARK    9  A    between atoms: N_14  and  C_15
REMARK   10  A    between atoms: C_15  and  C_16
REMARK   11  A    between atoms: C_16  and  N_17
REMARK                            x       y       z     vdW  Elec       q    Type
REMARK                         _______ _______ _______ _____ _____    ______ ____
ROOT
ATOM      1  N   UNL     1       2.736   8.280  17.987  0.00  0.00    +0.000 N 
ATOM      2  N   UNL     1       3.552   7.890  16.977  0.00  0.00    +0.000 NA
ATOM      3  C   UNL     1       3.861   6.619  17.280  0.00  0.00    +0.000 A 
ATOM      4  C   UNL     1       3.238   6.203  18.474  0.00  0.00    +0.000 A 
ATOM      5  C   UNL     1       3.250   4.989  19.178  0.00  0.00    +0.000 A 
ATOM      6  C   UNL     1       2.490   4.883  20.367  0.00  0.00    +0.000 A 
ATOM      7  C   UNL     1       1.855   6.050  20.844  0.00  0.00    +0.000 A 
ATOM      8  C   UNL     1       1.842   7.263  20.141  0.00  0.00    +0.000 A 
ATOM      9  C   UNL     1       2.533   7.303  18.933  0.00  0.00    +0.000 A 
ATOM     10  S   UNL     1       4.223   3.687  18.455  0.00  0.00    +0.000 S 
ATOM     11  C   UNL     1       4.975   4.426  16.975  0.00  0.00    +0.000 A 
ATOM     12  C   UNL     1       5.847   3.602  16.244  0.00  0.00    +0.000 A 
ATOM     13  C   UNL     1       6.471   4.067  15.082  0.00  0.00    +0.000 A 
ATOM     14  C   UNL     1       6.227   5.364  14.634  0.00  0.00    +0.000 A 
ATOM     15  C   UNL     1       5.368   6.198  15.345  0.00  0.00    +0.000 A 
ATOM     16  C   UNL     1       4.741   5.743  16.515  0.00  0.00    +0.000 A 
ENDROOT
BRANCH   6  17
ATOM     17  N   UNL     1       2.473   3.689  21.124  0.00  0.00    +0.000 N 
ATOM     18  H   UNL     1       3.299   3.113  20.944  0.00  0.00    +0.000 HD
BRANCH  17  19
ATOM     19  C   UNL     1       1.236   2.896  21.073  0.00  0.00    +0.000 C 
BRANCH  19  20
ATOM     20  C   UNL     1       0.737   2.674  19.634  0.00  0.00    +0.000 C 
BRANCH  20  21
ATOM     21  N   UNL     1       1.437   1.595  18.932  0.00  0.00    +0.000 NA
ATOM     22  H   UNL     1       0.832   1.204  18.211  0.00  0.00    +0.000 HD
ATOM     23  H   UNL     1       1.615   0.838  19.594  0.00  0.00    +0.000 HD
ENDBRANCH  20  21
ENDBRANCH  19  20
ENDBRANCH  17  19
ENDBRANCH   6  17
BRANCH   1  24
ATOM     24  C   UNL     1       2.198   9.635  18.006  0.00  0.00    +0.000 C 
BRANCH  24  25
ATOM     25  C   UNL     1       0.664   9.662  18.109  0.00  0.00    +0.000 C 
BRANCH  25  26
ATOM     26  N   UNL     1       0.062  10.939  18.578  0.00  0.00    +0.000 NA
BRANCH  26  28
ATOM     27  C   UNL     1      -0.325  10.024  20.916  0.00  0.00    +0.000 C 
ATOM     28  C   UNL     1      -0.912  10.646  19.650  0.00  0.00    +0.000 C 
ENDBRANCH  26  28
BRANCH  26  29
ATOM     29  C   UNL     1       1.036  11.981  18.933  0.00  0.00    +0.000 C 
ATOM     30  C   UNL     1       0.478  13.387  19.133  0.00  0.00    +0.000 C 
ENDBRANCH  26  29
ENDBRANCH  25  26
ENDBRANCH  24  25
ENDBRANCH   1  24
TORSDOF 9
ENDMDL
MODEL 6
REMARK VINA RESULT:      -6.5      1.825      4.797
REMARK  Name = 
REMARK  11 active torsions:
REMARK  status: ('A' for Active; 'I' for Inactive)
REMARK    1  A    between atoms: C_1  and  C_2
REMARK    2  A    between atoms: C_2  and  N_3
REMARK    3  A    between atoms: N_3  and  C_4
REMARK    4  A    between atoms: N_3  and  C_6
REMARK    5  A    between atoms: C_4  and  C_5
REMARK    6  A    between atoms: C_6  and  C_7
REMARK    7  A    between atoms: C_7  and  N_8
REMARK    8  A    between atoms: C_13  and  N_14
REMARK    9  A    between atoms: N_14  and  C_15
REMARK   10  A    between atoms: C_15  and  C_16
REMARK   11  A    between atoms: C_16  and  N_17
REMARK                            x       y       z     vdW  Elec       q    Type
REMARK                         _______ _______ _______ _____ _____    ______ ____
ROOT
ATOM      1  N   UNL     1       2.573   7.686  18.389  0.00  0.00    +0.000 N 
ATOM      2  N   UNL     1       2.135   6.872  19.381  0.00  0.00    +0.000 NA
ATOM      3  C   UNL     1       2.877   5.762  19.242  0.00  0.00    +0.000 A 
ATOM      4  C   UNL     1       3.786   5.874  18.171  0.00  0.00    +0.000 A 
ATOM      5  C   UNL     1       4.753   5.000  17.650  0.00  0.00    +0.000 A 
ATOM      6  C   UNL     1       5.534   5.424  16.549  0.00  0.00    +0.000 A 
ATOM      7  C   UNL     1       5.211   6.664  15.958  0.00  0.00    +0.000 A 
ATOM      8  C   UNL     1       4.246   7.539  16.477  0.00  0.00    +0.000 A 
ATOM      9  C   UNL     1       3.556   7.119  17.612  0.00  0.00    +0.000 A 
ATOM     10  S   UNL     1       4.902   3.432  18.479  0.00  0.00    +0.000 S 
ATOM     11  C   UNL     1       3.631   3.461  19.776  0.00  0.00    +0.000 A 
ATOM     12  C   UNL     1       3.506   2.296  20.551  0.00  0.00    +0.000 A 
ATOM     13  C   UNL     1       2.567   2.216  21.584  0.00  0.00    +0.000 A 
ATOM     14  C   UNL     1       1.740   3.303  21.857  0.00  0.00    +0.000 A 
ATOM     15  C   UNL     1       1.844   4.467  21.099  0.00  0.00    +0.000 A 
ATOM     16  C   UNL     1       2.780   4.556  20.057  0.00  0.00    +0.000 A 
ENDROOT
BRANCH   6  17
ATOM     17  N   UNL     1       6.515   4.583  15.976  0.00  0.00    +0.000 N 
ATOM     18  H   UNL     1       7.423   5.050  15.906  0.00  0.00    +0.000 HD
BRANCH  17  19
ATOM     19  C   UNL     1       6.151   3.910  14.720  0.00  0.00    +0.000 C 
BRANCH  19  20
ATOM     20  C   UNL     1       6.983   4.406  13.524  0.00  0.00    +0.000 C 
BRANCH  20  21
ATOM     21  N   UNL     1       7.872   5.523  13.854  0.00  0.00    +0.000 NA
ATOM     22  H   UNL     1       7.401   6.406  13.659  0.00  0.00    +0.000 HD
ATOM     23  H   UNL     1       8.681   5.490  13.232  0.00  0.00    +0.000 HD
ENDBRANCH  20  21
ENDBRANCH  19  20
ENDBRANCH  17  19
ENDBRANCH   6  17
BRANCH   1  24
ATOM     24  C   UNL     1       1.979   9.006  18.214  0.00  0.00    +0.000 C 
BRANCH  24  25
ATOM     25  C   UNL     1       1.329   9.539  19.502  0.00  0.00    +0.000 C 
BRANCH  25  26
ATOM     26  N   UNL     1      -0.123   9.851  19.422  0.00  0.00    +0.000 NA
BRANCH  26  28
ATOM     27  C   UNL     1      -0.062   9.894  21.961  0.00  0.00    +0.000 C 
ATOM     28  C   UNL     1      -0.535  10.542  20.661  0.00  0.00    +0.000 C 
ENDBRANCH  26  28
BRANCH  26  29
ATOM     29  C   UNL     1      -0.532  10.546  18.193  0.00  0.00    +0.000 C 
ATOM     30  C   UNL     1      -1.833  10.073  17.551  0.00  0.00    +0.000 C 
ENDBRANCH  26  29
ENDBRANCH  25  26
ENDBRANCH  24  25
ENDBRANCH   1  24
TORSDOF 9
ENDMDL
MODEL 7
REMARK VINA RESULT:      -6.5      2.059      4.804
REMARK  Name = 
REMARK  11 active torsions:
REMARK  status: ('A' for Active; 'I' for Inactive)
REMARK    1  A    between atoms: C_1  and  C_2
REMARK    2  A    between atoms: C_2  and  N_3
REMARK    3  A    between atoms: N_3  and  C_4
REMARK    4  A    between atoms: N_3  and  C_6
REMARK    5  A    between atoms: C_4  and  C_5
REMARK    6  A    between atoms: C_6  and  C_7
REMARK    7  A    between atoms: C_7  and  N_8
REMARK    8  A    between atoms: C_13  and  N_14
REMARK    9  A    between atoms: N_14  and  C_15
REMARK   10  A    between atoms: C_15  and  C_16
REMARK   11  A    between atoms: C_16  and  N_17
REMARK                            x       y       z     vdW  Elec       q    Type
REMARK                         _______ _______ _______ _____ _____    ______ ____
ROOT
ATOM      1  N   UNL     1       2.544   7.665  18.139  0.00  0.00    +0.000 N 
ATOM      2  N   UNL     1       1.897   6.860  19.017  0.00  0.00    +0.000 NA
ATOM      3  C   UNL     1       2.692   5.782  19.115  0.00  0.00    +0.000 A 
ATOM      4  C   UNL     1       3.841   5.907  18.308  0.00  0.00    +0.000 A 
ATOM      5  C   UNL     1       4.941   5.065  18.086  0.00  0.00    +0.000 A 
ATOM      6  C   UNL     1       5.962   5.495  17.206  0.00  0.00    +0.000 A 
ATOM      7  C   UNL     1       5.755   6.702  16.503  0.00  0.00    +0.000 A 
ATOM      8  C   UNL     1       4.656   7.544  16.725  0.00  0.00    +0.000 A 
ATOM      9  C   UNL     1       3.715   7.124  17.661  0.00  0.00    +0.000 A 
ATOM     10  S   UNL     1       4.933   3.530  18.986  0.00  0.00    +0.000 S 
ATOM     11  C   UNL     1       3.370   3.535  19.913  0.00  0.00    +0.000 A 
ATOM     12  C   UNL     1       3.096   2.387  20.675  0.00  0.00    +0.000 A 
ATOM     13  C   UNL     1       1.926   2.292  21.436  0.00  0.00    +0.000 A 
ATOM     14  C   UNL     1       1.016   3.346  21.446  0.00  0.00    +0.000 A 
ATOM     15  C   UNL     1       1.267   4.492  20.696  0.00  0.00    +0.000 A 
ATOM     16  C   UNL     1       2.435   4.597  19.924  0.00  0.00    +0.000 A 
ENDROOT
BRANCH   6  17
ATOM     17  N   UNL     1       7.089   4.685  16.935  0.00  0.00    +0.000 N 
ATOM     18  H   UNL     1       6.819   3.769  16.567  0.00  0.00    +0.000 HD
BRANCH  17  19
ATOM     19  C   UNL     1       8.087   4.566  18.009  0.00  0.00    +0.000 C 
BRANCH  19  20
ATOM     20  C   UNL     1       8.090   5.785  18.948  0.00  0.00    +0.000 C 
BRANCH  20  21
ATOM     21  N   UNL     1       7.990   5.429  20.366  0.00  0.00    +0.000 NA
ATOM     22  H   UNL     1       7.444   6.135  20.860  0.00  0.00    +0.000 HD
ATOM     23  H   UNL     1       8.925   5.457  20.776  0.00  0.00    +0.000 HD
ENDBRANCH  20  21
ENDBRANCH  19  20
ENDBRANCH  17  19
ENDBRANCH   6  17
BRANCH   1  24
ATOM     24  C   UNL     1       1.965   8.951  17.767  0.00  0.00    +0.000 C 
BRANCH  24  25
ATOM     25  C   UNL     1       1.129   9.574  18.897  0.00  0.00    +0.000 C 
BRANCH  25  26
ATOM     26  N   UNL     1       0.259  10.718  18.514  0.00  0.00    +0.000 NA
BRANCH  26  28
ATOM     27  C   UNL     1      -1.827  10.008  17.249  0.00  0.00    +0.000 C 
ATOM     28  C   UNL     1      -1.154  10.293  18.591  0.00  0.00    +0.000 C 
ENDBRANCH  26  28
BRANCH  26  29
ATOM     29  C   UNL     1       0.541  11.968  19.233  0.00  0.00    +0.000 C 
ATOM     30  C   UNL     1      -0.533  13.049  19.155  0.00  0.00    +0.000 C 
ENDBRANCH  26  29
ENDBRANCH  25  26
ENDBRANCH  24  25
ENDBRANCH   1  24
TORSDOF 9
ENDMDL
MODEL 8
REMARK VINA RESULT:      -6.5      1.786      4.795
REMARK  Name = 
REMARK  11 active torsions:
REMARK  status: ('A' for Active; 'I' for Inactive)
REMARK    1  A    between atoms: C_1  and  C_2
REMARK    2  A    between atoms: C_2  and  N_3
REMARK    3  A    between atoms: N_3  and  C_4
REMARK    4  A    between atoms: N_3  and  C_6
REMARK    5  A    between atoms: C_4  and  C_5
REMARK    6  A    between atoms: C_6  and  C_7
REMARK    7  A    between atoms: C_7  and  N_8
REMARK    8  A    between atoms: C_13  and  N_14
REMARK    9  A    between atoms: N_14  and  C_15
REMARK   10  A    between atoms: C_15  and  C_16
REMARK   11  A    between atoms: C_16  and  N_17
REMARK                            x       y       z     vdW  Elec       q    Type
REMARK                         _______ _______ _______ _____ _____    ______ ____
ROOT
ATOM      1  N   UNL     1       2.743   7.850  18.202  0.00  0.00    +0.000 N 
ATOM      2  N   UNL     1       2.200   7.075  19.173  0.00  0.00    +0.000 NA
ATOM      3  C   UNL     1       2.884   5.922  19.088  0.00  0.00    +0.000 A 
ATOM      4  C   UNL     1       3.861   5.971  18.072  0.00  0.00    +0.000 A 
ATOM      5  C   UNL     1       4.805   5.037  17.619  0.00  0.00    +0.000 A 
ATOM      6  C   UNL     1       5.673   5.403  16.563  0.00  0.00    +0.000 A 
ATOM      7  C   UNL     1       5.457   6.652  15.942  0.00  0.00    +0.000 A 
ATOM      8  C   UNL     1       4.515   7.587  16.395  0.00  0.00    +0.000 A 
ATOM      9  C   UNL     1       3.736   7.220  17.490  0.00  0.00    +0.000 A 
ATOM     10  S   UNL     1       4.815   3.473  18.468  0.00  0.00    +0.000 S 
ATOM     11  C   UNL     1       3.472   3.590  19.686  0.00  0.00    +0.000 A 
ATOM     12  C   UNL     1       3.236   2.443  20.462  0.00  0.00    +0.000 A 
ATOM     13  C   UNL     1       2.233   2.428  21.437  0.00  0.00    +0.000 A 
ATOM     14  C   UNL     1       1.455   3.563  21.651  0.00  0.00    +0.000 A 
ATOM     15  C   UNL     1       1.671   4.711  20.891  0.00  0.00    +0.000 A 
ATOM     16  C   UNL     1       2.670   4.734  19.906  0.00  0.00    +0.000 A 
ENDROOT
BRANCH   6  17
ATOM     17  N   UNL     1       6.637   4.501  16.057  0.00  0.00    +0.000 N 
ATOM     18  H   UNL     1       7.557   4.939  15.964  0.00  0.00    +0.000 HD
BRANCH  17  19
ATOM     19  C   UNL     1       6.266   3.753  14.846  0.00  0.00    +0.000 C 
BRANCH  19  20
ATOM     20  C   UNL     1       6.792   4.416  13.561  0.00  0.00    +0.000 C 
BRANCH  20  21
ATOM     21  N   UNL     1       7.869   5.382  13.800  0.00  0.00    +0.000 NA
ATOM     22  H   UNL     1       8.773   4.925  13.681  0.00  0.00    +0.000 HD
ATOM     23  H   UNL     1       7.828   5.679  14.775  0.00  0.00    +0.000 HD
ENDBRANCH  20  21
ENDBRANCH  19  20
ENDBRANCH  17  19
ENDBRANCH   6  17
BRANCH   1  24
ATOM     24  C   UNL     1       2.236   9.200  17.980  0.00  0.00    +0.000 C 
BRANCH  24  25
ATOM     25  C   UNL     1       0.700   9.264  17.980  0.00  0.00    +0.000 C 
BRANCH  25  26
ATOM     26  N   UNL     1       0.081  10.145  19.007  0.00  0.00    +0.000 NA
BRANCH  26  28
ATOM     27  C   UNL     1       0.677  12.602  18.766  0.00  0.00    +0.000 C 
ATOM     28  C   UNL     1       1.025  11.231  19.341  0.00  0.00    +0.000 C 
ENDBRANCH  26  28
BRANCH  26  29
ATOM     29  C   UNL     1      -1.270  10.617  18.673  0.00  0.00    +0.000 C 
ATOM     30  C   UNL     1      -1.874  10.077  17.380  0.00  0.00    +0.000 C 
ENDBRANCH  26  29
ENDBRANCH  25  26
ENDBRANCH  24  25
ENDBRANCH   1  24
TORSDOF 9
ENDMDL
MODEL 9
REMARK VINA RESULT:      -6.5      1.955      4.733
REMARK  Name = 
REMARK  11 active torsions:
REMARK  status: ('A' for Active; 'I' for Inactive)
REMARK    1  A    between atoms: C_1  and  C_2
REMARK    2  A    between atoms: C_2  and  N_3
REMARK    3  A    between atoms: N_3  and  C_4
REMARK    4  A    between atoms: N_3  and  C_6
REMARK    5  A    between atoms: C_4  and  C_5
REMARK    6  A    between atoms: C_6  and  C_7
REMARK    7  A    between atoms: C_7  and  N_8
REMARK    8  A    between atoms: C_13  and  N_14
REMARK    9  A    between atoms: N_14  and  C_15
REMARK   10  A    between atoms: C_15  and  C_16
REMARK   11  A    between atoms: C_16  and  N_17
REMARK                            x       y       z     vdW  Elec       q    Type
REMARK                         _______ _______ _______ _____ _____    ______ ____
ROOT
ATOM      1  N   UNL     1       2.466   7.672  18.285  0.00  0.00    +0.000 N 
ATOM      2  N   UNL     1       1.946   6.838  19.219  0.00  0.00    +0.000 NA
ATOM      3  C   UNL     1       2.762   5.771  19.193  0.00  0.00    +0.000 A 
ATOM      4  C   UNL     1       3.799   5.933  18.252  0.00  0.00    +0.000 A 
ATOM      5  C   UNL     1       4.875   5.115  17.875  0.00  0.00    +0.000 A 
ATOM      6  C   UNL     1       5.772   5.580  16.884  0.00  0.00    +0.000 A 
ATOM      7  C   UNL     1       5.460   6.797  16.240  0.00  0.00    +0.000 A 
ATOM      8  C   UNL     1       4.386   7.616  16.616  0.00  0.00    +0.000 A 
ATOM      9  C   UNL     1       3.575   7.160  17.653  0.00  0.00    +0.000 A 
ATOM     10  S   UNL     1       5.002   3.561  18.734  0.00  0.00    +0.000 S 
ATOM     11  C   UNL     1       3.568   3.521  19.849  0.00  0.00    +0.000 A 
ATOM     12  C   UNL     1       3.408   2.353  20.614  0.00  0.00    +0.000 A 
ATOM     13  C   UNL     1       2.344   2.222  21.513  0.00  0.00    +0.000 A 
ATOM     14  C   UNL     1       1.428   3.260  21.660  0.00  0.00    +0.000 A 
ATOM     15  C   UNL     1       1.566   4.426  20.910  0.00  0.00    +0.000 A 
ATOM     16  C   UNL     1       2.626   4.565  20.001  0.00  0.00    +0.000 A 
ENDROOT
BRANCH   6  17
ATOM     17  N   UNL     1       6.867   4.795  16.457  0.00  0.00    +0.000 N 
ATOM     18  H   UNL     1       7.733   5.060  16.932  0.00  0.00    +0.000 HD
BRANCH  17  19
ATOM     19  C   UNL     1       7.061   4.671  15.004  0.00  0.00    +0.000 C 
BRANCH  19  20
ATOM     20  C   UNL     1       5.980   3.802  14.337  0.00  0.00    +0.000 C 
BRANCH  20  21
ATOM     21  N   UNL     1       6.331   3.372  12.981  0.00  0.00    +0.000 NA
ATOM     22  H   UNL     1       6.938   2.555  13.026  0.00  0.00    +0.000 HD
ATOM     23  H   UNL     1       6.881   4.110  12.538  0.00  0.00    +0.000 HD
ENDBRANCH  20  21
ENDBRANCH  19  20
ENDBRANCH  17  19
ENDBRANCH   6  17
BRANCH   1  24
ATOM     24  C   UNL     1       1.826   8.954  18.018  0.00  0.00    +0.000 C 
BRANCH  24  25
ATOM     25  C   UNL     1       1.438   9.702  19.303  0.00  0.00    +0.000 C 
BRANCH  25  26
ATOM     26  N   UNL     1      -0.008   9.693  19.655  0.00  0.00    +0.000 NA
BRANCH  26  28
ATOM     27  C   UNL     1       1.148   9.085  21.834  0.00  0.00    +0.000 C 
ATOM     28  C   UNL     1      -0.157   9.265  21.061  0.00  0.00    +0.000 C 
ENDBRANCH  26  28
BRANCH  26  29
ATOM     29  C   UNL     1      -0.723  10.937  19.337  0.00  0.00    +0.000 C 
ATOM     30  C   UNL     1      -0.740  12.004  20.428  0.00  0.00    +0.000 C 
ENDBRANCH  26  29
ENDBRANCH  25  26
ENDBRANCH  24  25
ENDBRANCH   1  24
TORSDOF 9
ENDMDL
