MODEL 1
REMARK VINA RESULT:      -7.7      0.000      0.000
REMARK  Name = 
REMARK  14 active torsions:
REMARK  status: ('A' for Active; 'I' for Inactive)
REMARK    1  A    between atoms: C_1  and  C_2
REMARK    2  A    between atoms: C_2  and  C_3
REMARK    3  A    between atoms: C_2  and  C_4
REMARK    4  A    between atoms: C_2  and  O_5
REMARK    5  A    between atoms: O_5  and  C_6
REMARK    6  A    between atoms: N_8  and  C_9
REMARK    7  A    between atoms: C_9  and  C_10
REMARK    8  A    between atoms: C_10  and  N_11
REMARK    9  A    between atoms: C_12  and  C_14
REMARK   10  A    between atoms: C_17  and  S_18
REMARK   11  A    between atoms: S_18  and  O_21
REMARK   12  A    between atoms: O_21  and  C_22
REMARK   13  A    between atoms: C_25  and  C_26
REMARK   14  A    between atoms: C_27  and  N_28
REMARK                            x       y       z     vdW  Elec       q    Type
REMARK                         _______ _______ _______ _____ _____    ______ ____
ROOT
ATOM      1  C   UNL     1       2.249   7.726  19.056  0.00  0.00    +0.000 A 
ATOM      2  C   UNL     1       1.760   7.916  20.355  0.00  0.00    +0.000 A 
ATOM      3  C   UNL     1       1.089   9.095  20.690  0.00  0.00    +0.000 A 
ATOM      4  C   UNL     1       0.903  10.093  19.725  0.00  0.00    +0.000 A 
ATOM      5  C   UNL     1       1.423   9.932  18.436  0.00  0.00    +0.000 A 
ATOM      6  C   UNL     1       2.096   8.747  18.104  0.00  0.00    +0.000 A 
ENDROOT
BRANCH   1   8
ATOM      7  N   UNL     1       3.334   5.642  19.728  0.00  0.00    +0.000 N 
ATOM      8  C   UNL     1       2.967   6.470  18.684  0.00  0.00    +0.000 C 
ATOM      9  O   UNL     1       3.195   6.202  17.512  0.00  0.00    +0.000 OA
ATOM     10  H   UNL     1       3.039   5.853  20.672  0.00  0.00    +0.000 HD
BRANCH   7  11
ATOM     11  C   UNL     1       4.026   4.376  19.506  0.00  0.00    +0.000 C 
BRANCH  11  12
ATOM     12  C   UNL     1       5.501   4.564  19.114  0.00  0.00    +0.000 C 
BRANCH  12  15
ATOM     13  C   UNL     1       6.948   4.533  17.141  0.00  0.00    +0.000 C 
ATOM     14  O   UNL     1       7.757   5.275  17.673  0.00  0.00    +0.000 OA
ATOM     15  N   UNL     1       5.809   4.104  17.770  0.00  0.00    +0.000 N 
ATOM     16  H   UNL     1       5.195   3.462  17.284  0.00  0.00    +0.000 HD
BRANCH  13  17
ATOM     17  O   UNL     1       7.054   4.019  15.883  0.00  0.00    +0.000 OA
BRANCH  17  19
ATOM     18  C   UNL     1       5.870   6.100  15.287  0.00  0.00    +0.000 C 
ATOM     19  C   UNL     1       6.432   4.762  14.786  0.00  0.00    +0.000 C 
ATOM     20  C   UNL     1       5.352   3.923  14.085  0.00  0.00    +0.000 C 
ATOM     21  C   UNL     1       7.534   5.086  13.757  0.00  0.00    +0.000 C 
ENDBRANCH  17  19
ENDBRANCH  13  17
ENDBRANCH  12  15
ENDBRANCH  11  12
ENDBRANCH   7  11
ENDBRANCH   1   8
BRANCH   4  22
ATOM     22  S   UNL     1       0.186  11.652  20.236  0.00  0.00    +0.000 S 
ATOM     23  O   UNL     1       0.405  11.717  21.671  0.00  0.00    +0.000 OA
ATOM     24  O   UNL     1       0.729  12.670  19.361  0.00  0.00    +0.000 OA
BRANCH  22  25
ATOM     25  O   UNL     1      -1.420  11.500  19.938  0.00  0.00    +0.000 OA
BRANCH  25  26
ATOM     26  C   UNL     1      -1.869  11.061  18.711  0.00  0.00    +0.000 A 
ATOM     27  C   UNL     1      -2.652   9.904  18.689  0.00  0.00    +0.000 A 
ATOM     28  C   UNL     1      -3.157   9.406  17.474  0.00  0.00    +0.000 A 
ATOM     29  C   UNL     1      -2.919  10.078  16.266  0.00  0.00    +0.000 A 
ATOM     30  C   UNL     1      -2.124  11.227  16.300  0.00  0.00    +0.000 A 
ATOM     31  C   UNL     1      -1.615  11.718  17.508  0.00  0.00    +0.000 A 
BRANCH  29  32
ATOM     32  C   UNL     1      -3.475   9.555  15.007  0.00  0.00    +0.000 C 
ATOM     33  C   UNL     1      -3.474  10.259  13.866  0.00  0.00    +0.000 C 
BRANCH  33  34
ATOM     34  N   UNL     1      -4.061   9.710  12.666  0.00  0.00    +0.000 N 
ATOM     35  O   UNL     1      -3.336   9.498  11.685  0.00  0.00    +0.000 OA
ATOM     36  O   UNL     1      -5.272   9.486  12.719  0.00  0.00    +0.000 OA
ENDBRANCH  33  34
ENDBRANCH  29  32
ENDBRANCH  25  26
ENDBRANCH  22  25
ENDBRANCH   4  22
TORSDOF 11
ENDMDL
MODEL 2
REMARK VINA RESULT:      -7.6      3.923     10.066
REMARK  Name = 
REMARK  14 active torsions:
REMARK  status: ('A' for Active; 'I' for Inactive)
REMARK    1  A    between atoms: C_1  and  C_2
REMARK    2  A    between atoms: C_2  and  C_3
REMARK    3  A    between atoms: C_2  and  C_4
REMARK    4  A    between atoms: C_2  and  O_5
REMARK    5  A    between atoms: O_5  and  C_6
REMARK    6  A    between atoms: N_8  and  C_9
REMARK    7  A    between atoms: C_9  and  C_10
REMARK    8  A    between atoms: C_10  and  N_11
REMARK    9  A    between atoms: C_12  and  C_14
REMARK   10  A    between atoms: C_17  and  S_18
REMARK   11  A    between atoms: S_18  and  O_21
REMARK   12  A    between atoms: O_21  and  C_22
REMARK   13  A    between atoms: C_25  and  C_26
REMARK   14  A    between atoms: C_27  and  N_28
REMARK                            x       y       z     vdW  Elec       q    Type
REMARK                         _______ _______ _______ _____ _____    ______ ____
ROOT
ATOM      1  C   UNL     1       2.009   7.952  18.774  0.00  0.00    +0.000 A 
ATOM      2  C   UNL     1       2.012   7.631  20.137  0.00  0.00    +0.000 A 
ATOM      3  C   UNL     1       2.182   6.307  20.549  0.00  0.00    +0.000 A 
ATOM      4  C   UNL     1       2.349   5.293  19.596  0.00  0.00    +0.000 A 
ATOM      5  C   UNL     1       2.306   5.596  18.231  0.00  0.00    +0.000 A 
ATOM      6  C   UNL     1       2.136   6.927  17.822  0.00  0.00    +0.000 A 
ENDROOT
BRANCH   1   8
ATOM      7  N   UNL     1       1.209  10.220  19.209  0.00  0.00    +0.000 N 
ATOM      8  C   UNL     1       1.830   9.364  18.319  0.00  0.00    +0.000 C 
ATOM      9  O   UNL     1       2.232   9.725  17.221  0.00  0.00    +0.000 OA
ATOM     10  H   UNL     1       0.982   9.904  20.143  0.00  0.00    +0.000 HD
BRANCH   7  11
ATOM     11  C   UNL     1       0.985  11.628  18.901  0.00  0.00    +0.000 C 
BRANCH  11  12
ATOM     12  C   UNL     1      -0.496  11.957  18.655  0.00  0.00    +0.000 C 
BRANCH  12  15
ATOM     13  C   UNL     1      -1.983  12.667  20.465  0.00  0.00    +0.000 C 
ATOM     14  O   UNL     1      -1.882  13.839  20.142  0.00  0.00    +0.000 OA
ATOM     15  N   UNL     1      -1.356  11.655  19.787  0.00  0.00    +0.000 N 
ATOM     16  H   UNL     1      -1.507  10.700  20.088  0.00  0.00    +0.000 HD
BRANCH  13  17
ATOM     17  O   UNL     1      -2.722  12.195  21.509  0.00  0.00    +0.000 OA
BRANCH  17  19
ATOM     18  C   UNL     1      -3.261  12.514  23.895  0.00  0.00    +0.000 C 
ATOM     19  C   UNL     1      -2.154  12.304  22.853  0.00  0.00    +0.000 C 
ATOM     20  C   UNL     1      -1.095  13.416  22.924  0.00  0.00    +0.000 C 
ATOM     21  C   UNL     1      -1.468  10.962  23.180  0.00  0.00    +0.000 C 
ENDBRANCH  17  19
ENDBRANCH  13  17
ENDBRANCH  12  15
ENDBRANCH  11  12
ENDBRANCH   7  11
ENDBRANCH   1   8
BRANCH   4  22
ATOM     22  S   UNL     1       2.397   3.593  20.157  0.00  0.00    +0.000 S 
ATOM     23  O   UNL     1       2.205   3.664  21.596  0.00  0.00    +0.000 OA
ATOM     24  O   UNL     1       1.474   2.851  19.326  0.00  0.00    +0.000 OA
BRANCH  22  25
ATOM     25  O   UNL     1       3.924   3.084  19.837  0.00  0.00    +0.000 OA
BRANCH  25  26
ATOM     26  C   UNL     1       4.603   3.550  18.733  0.00  0.00    +0.000 A 
ATOM     27  C   UNL     1       5.702   4.383  18.958  0.00  0.00    +0.000 A 
ATOM     28  C   UNL     1       6.452   4.884  17.879  0.00  0.00    +0.000 A 
ATOM     29  C   UNL     1       6.140   4.530  16.559  0.00  0.00    +0.000 A 
ATOM     30  C   UNL     1       5.031   3.705  16.346  0.00  0.00    +0.000 A 
ATOM     31  C   UNL     1       4.280   3.213  17.419  0.00  0.00    +0.000 A 
BRANCH  29  32
ATOM     32  C   UNL     1       6.950   5.045  15.443  0.00  0.00    +0.000 C 
ATOM     33  C   UNL     1       6.819   4.599  14.185  0.00  0.00    +0.000 C 
BRANCH  33  34
ATOM     34  N   UNL     1       7.663   5.118  13.133  0.00  0.00    +0.000 N 
ATOM     35  O   UNL     1       8.566   5.912  13.426  0.00  0.00    +0.000 OA
ATOM     36  O   UNL     1       7.409   4.712  11.997  0.00  0.00    +0.000 OA
ENDBRANCH  33  34
ENDBRANCH  29  32
ENDBRANCH  25  26
ENDBRANCH  22  25
ENDBRANCH   4  22
TORSDOF 11
ENDMDL
MODEL 3
REMARK VINA RESULT:      -7.4      3.890     10.073
REMARK  Name = 
REMARK  14 active torsions:
REMARK  status: ('A' for Active; 'I' for Inactive)
REMARK    1  A    between atoms: C_1  and  C_2
REMARK    2  A    between atoms: C_2  and  C_3
REMARK    3  A    between atoms: C_2  and  C_4
REMARK    4  A    between atoms: C_2  and  O_5
REMARK    5  A    between atoms: O_5  and  C_6
REMARK    6  A    between atoms: N_8  and  C_9
REMARK    7  A    between atoms: C_9  and  C_10
REMARK    8  A    between atoms: C_10  and  N_11
REMARK    9  A    between atoms: C_12  and  C_14
REMARK   10  A    between atoms: C_17  and  S_18
REMARK   11  A    between atoms: S_18  and  O_21
REMARK   12  A    between atoms: O_21  and  C_22
REMARK   13  A    between atoms: C_25  and  C_26
REMARK   14  A    between atoms: C_27  and  N_28
REMARK                            x       y       z     vdW  Elec       q    Type
REMARK                         _______ _______ _______ _____ _____    ______ ____
ROOT
ATOM      1  C   UNL     1       1.881   7.511  18.832  0.00  0.00    +0.000 A 
ATOM      2  C   UNL     1       1.869   6.494  17.868  0.00  0.00    +0.000 A 
ATOM      3  C   UNL     1       1.944   5.154  18.257  0.00  0.00    +0.000 A 
ATOM      4  C   UNL     1       2.034   4.823  19.615  0.00  0.00    +0.000 A 
ATOM      5  C   UNL     1       2.089   5.830  20.584  0.00  0.00    +0.000 A 
ATOM      6  C   UNL     1       2.012   7.174  20.189  0.00  0.00    +0.000 A 
ENDROOT
BRANCH   1   8
ATOM      7  N   UNL     1       1.138   9.791  19.306  0.00  0.00    +0.000 N 
ATOM      8  C   UNL     1       1.799   8.948  18.432  0.00  0.00    +0.000 C 
ATOM      9  O   UNL     1       2.309   9.339  17.391  0.00  0.00    +0.000 OA
ATOM     10  H   UNL     1       0.818   9.444  20.201  0.00  0.00    +0.000 HD
BRANCH   7  11
ATOM     11  C   UNL     1       0.999  11.220  19.048  0.00  0.00    +0.000 C 
BRANCH  11  12
ATOM     12  C   UNL     1      -0.415  11.607  18.584  0.00  0.00    +0.000 C 
BRANCH  12  15
ATOM     13  C   UNL     1      -1.507  12.945  20.318  0.00  0.00    +0.000 C 
ATOM     14  O   UNL     1      -0.880  13.942  20.000  0.00  0.00    +0.000 OA
ATOM     15  N   UNL     1      -1.368  11.744  19.673  0.00  0.00    +0.000 N 
ATOM     16  H   UNL     1      -1.942  10.964  19.966  0.00  0.00    +0.000 HD
BRANCH  13  17
ATOM     17  O   UNL     1      -2.423  12.875  21.325  0.00  0.00    +0.000 OA
BRANCH  17  19
ATOM     18  C   UNL     1      -3.026  12.101  23.588  0.00  0.00    +0.000 C 
ATOM     19  C   UNL     1      -1.928  12.685  22.688  0.00  0.00    +0.000 C 
ATOM     20  C   UNL     1      -1.364  13.993  23.266  0.00  0.00    +0.000 C 
ATOM     21  C   UNL     1      -0.786  11.650  22.631  0.00  0.00    +0.000 C 
ENDBRANCH  17  19
ENDBRANCH  13  17
ENDBRANCH  12  15
ENDBRANCH  11  12
ENDBRANCH   7  11
ENDBRANCH   1   8
BRANCH   4  22
ATOM     22  S   UNL     1       2.295   3.108  20.060  0.00  0.00    +0.000 S 
ATOM     23  O   UNL     1       1.875   3.009  21.447  0.00  0.00    +0.000 OA
ATOM     24  O   UNL     1       1.656   2.307  19.037  0.00  0.00    +0.000 OA
BRANCH  22  25
ATOM     25  O   UNL     1       3.918   2.887  19.966  0.00  0.00    +0.000 OA
BRANCH  25  26
ATOM     26  C   UNL     1       4.646   3.445  18.937  0.00  0.00    +0.000 A 
ATOM     27  C   UNL     1       4.407   2.965  17.647  0.00  0.00    +0.000 A 
ATOM     28  C   UNL     1       5.102   3.498  16.546  0.00  0.00    +0.000 A 
ATOM     29  C   UNL     1       6.018   4.546  16.712  0.00  0.00    +0.000 A 
ATOM     30  C   UNL     1       6.257   5.009  18.010  0.00  0.00    +0.000 A 
ATOM     31  C   UNL     1       5.571   4.474  19.106  0.00  0.00    +0.000 A 
BRANCH  29  32
ATOM     32  C   UNL     1       6.719   5.107  15.546  0.00  0.00    +0.000 C 
ATOM     33  C   UNL     1       6.872   4.431  14.397  0.00  0.00    +0.000 C 
BRANCH  33  34
ATOM     34  N   UNL     1       7.596   5.017  13.293  0.00  0.00    +0.000 N 
ATOM     35  O   UNL     1       8.487   5.844  13.532  0.00  0.00    +0.000 OA
ATOM     36  O   UNL     1       7.262   4.633  12.171  0.00  0.00    +0.000 OA
ENDBRANCH  33  34
ENDBRANCH  29  32
ENDBRANCH  25  26
ENDBRANCH  22  25
ENDBRANCH   4  22
TORSDOF 11
ENDMDL
MODEL 4
REMARK VINA RESULT:      -7.4      4.094     10.051
REMARK  Name = 
REMARK  14 active torsions:
REMARK  status: ('A' for Active; 'I' for Inactive)
REMARK    1  A    between atoms: C_1  and  C_2
REMARK    2  A    between atoms: C_2  and  C_3
REMARK    3  A    between atoms: C_2  and  C_4
REMARK    4  A    between atoms: C_2  and  O_5
REMARK    5  A    between atoms: O_5  and  C_6
REMARK    6  A    between atoms: N_8  and  C_9
REMARK    7  A    between atoms: C_9  and  C_10
REMARK    8  A    between atoms: C_10  and  N_11
REMARK    9  A    between atoms: C_12  and  C_14
REMARK   10  A    between atoms: C_17  and  S_18
REMARK   11  A    between atoms: S_18  and  O_21
REMARK   12  A    between atoms: O_21  and  C_22
REMARK   13  A    between atoms: C_25  and  C_26
REMARK   14  A    between atoms: C_27  and  N_28
REMARK                            x       y       z     vdW  Elec       q    Type
REMARK                         _______ _______ _______ _____ _____    ______ ____
ROOT
ATOM      1  C   UNL     1       1.885   8.337  19.013  0.00  0.00    +0.000 A 
ATOM      2  C   UNL     1       1.719   7.892  20.331  0.00  0.00    +0.000 A 
ATOM      3  C   UNL     1       1.874   6.538  20.643  0.00  0.00    +0.000 A 
ATOM      4  C   UNL     1       2.196   5.621  19.635  0.00  0.00    +0.000 A 
ATOM      5  C   UNL     1       2.324   6.047  18.308  0.00  0.00    +0.000 A 
ATOM      6  C   UNL     1       2.168   7.407  18.000  0.00  0.00    +0.000 A 
ENDROOT
BRANCH   1   8
ATOM      7  N   UNL     1       0.905  10.523  19.497  0.00  0.00    +0.000 N 
ATOM      8  C   UNL     1       1.724   9.781  18.666  0.00  0.00    +0.000 C 
ATOM      9  O   UNL     1       2.306  10.264  17.704  0.00  0.00    +0.000 OA
ATOM     10  H   UNL     1       0.523  10.108  20.337  0.00  0.00    +0.000 HD
BRANCH   7  11
ATOM     11  C   UNL     1       0.672  11.947  19.284  0.00  0.00    +0.000 C 
BRANCH  11  12
ATOM     12  C   UNL     1       0.828  12.775  20.571  0.00  0.00    +0.000 C 
BRANCH  12  15
ATOM     13  C   UNL     1      -1.195  12.232  21.837  0.00  0.00    +0.000 C 
ATOM     14  O   UNL     1      -0.840  11.075  21.985  0.00  0.00    +0.000 OA
ATOM     15  N   UNL     1      -0.438  13.161  21.172  0.00  0.00    +0.000 N 
ATOM     16  H   UNL     1      -0.775  14.113  21.113  0.00  0.00    +0.000 HD
BRANCH  13  17
ATOM     17  O   UNL     1      -2.356  12.770  22.308  0.00  0.00    +0.000 OA
BRANCH  17  19
ATOM     18  C   UNL     1      -4.787  12.801  21.887  0.00  0.00    +0.000 C 
ATOM     19  C   UNL     1      -3.391  13.121  21.334  0.00  0.00    +0.000 C 
ATOM     20  C   UNL     1      -3.147  12.427  19.984  0.00  0.00    +0.000 C 
ATOM     21  C   UNL     1      -3.326  14.645  21.112  0.00  0.00    +0.000 C 
ENDBRANCH  17  19
ENDBRANCH  13  17
ENDBRANCH  12  15
ENDBRANCH  11  12
ENDBRANCH   7  11
ENDBRANCH   1   8
BRANCH   4  22
ATOM     22  S   UNL     1       2.223   3.878  20.044  0.00  0.00    +0.000 S 
ATOM     23  O   UNL     1       1.863   3.813  21.450  0.00  0.00    +0.000 OA
ATOM     24  O   UNL     1       1.422   3.200  19.046  0.00  0.00    +0.000 OA
BRANCH  22  25
ATOM     25  O   UNL     1       3.789   3.423  19.863  0.00  0.00    +0.000 OA
BRANCH  25  26
ATOM     26  C   UNL     1       4.506   3.800  18.748  0.00  0.00    +0.000 A 
ATOM     27  C   UNL     1       5.583   4.669  18.939  0.00  0.00    +0.000 A 
ATOM     28  C   UNL     1       6.370   5.084  17.849  0.00  0.00    +0.000 A 
ATOM     29  C   UNL     1       6.115   4.608  16.556  0.00  0.00    +0.000 A 
ATOM     30  C   UNL     1       5.027   3.749  16.375  0.00  0.00    +0.000 A 
ATOM     31  C   UNL     1       4.240   3.341  17.458  0.00  0.00    +0.000 A 
BRANCH  29  32
ATOM     32  C   UNL     1       6.962   5.035  15.430  0.00  0.00    +0.000 C 
ATOM     33  C   UNL     1       6.759   4.621  14.170  0.00  0.00    +0.000 C 
BRANCH  33  34
ATOM     34  N   UNL     1       7.640   5.047  13.109  0.00  0.00    +0.000 N 
ATOM     35  O   UNL     1       8.531   5.869  13.362  0.00  0.00    +0.000 OA
ATOM     36  O   UNL     1       7.430   4.539  12.005  0.00  0.00    +0.000 OA
ENDBRANCH  33  34
ENDBRANCH  29  32
ENDBRANCH  25  26
ENDBRANCH  22  25
ENDBRANCH   4  22
TORSDOF 11
ENDMDL
MODEL 5
REMARK VINA RESULT:      -7.3      4.188     10.085
REMARK  Name = 
REMARK  14 active torsions:
REMARK  status: ('A' for Active; 'I' for Inactive)
REMARK    1  A    between atoms: C_1  and  C_2
REMARK    2  A    between atoms: C_2  and  C_3
REMARK    3  A    between atoms: C_2  and  C_4
REMARK    4  A    between atoms: C_2  and  O_5
REMARK    5  A    between atoms: O_5  and  C_6
REMARK    6  A    between atoms: N_8  and  C_9
REMARK    7  A    between atoms: C_9  and  C_10
REMARK    8  A    between atoms: C_10  and  N_11
REMARK    9  A    between atoms: C_12  and  C_14
REMARK   10  A    between atoms: C_17  and  S_18
REMARK   11  A    between atoms: S_18  and  O_21
REMARK   12  A    between atoms: O_21  and  C_22
REMARK   13  A    between atoms: C_25  and  C_26
REMARK   14  A    between atoms: C_27  and  N_28
REMARK                            x       y       z     vdW  Elec       q    Type
REMARK                         _______ _______ _______ _____ _____    ______ ____
ROOT
ATOM      1  C   UNL     1       1.831   8.779  19.165  0.00  0.00    +0.000 A 
ATOM      2  C   UNL     1       1.566   8.226  20.425  0.00  0.00    +0.000 A 
ATOM      3  C   UNL     1       1.713   6.853  20.636  0.00  0.00    +0.000 A 
ATOM      4  C   UNL     1       2.124   6.023  19.585  0.00  0.00    +0.000 A 
ATOM      5  C   UNL     1       2.350   6.557  18.312  0.00  0.00    +0.000 A 
ATOM      6  C   UNL     1       2.203   7.937  18.105  0.00  0.00    +0.000 A 
ENDROOT
BRANCH   1   8
ATOM      7  N   UNL     1       1.086  10.975  19.938  0.00  0.00    +0.000 N 
ATOM      8  C   UNL     1       1.680  10.246  18.925  0.00  0.00    +0.000 C 
ATOM      9  O   UNL     1       2.081  10.756  17.887  0.00  0.00    +0.000 OA
ATOM     10  H   UNL     1       0.860  10.530  20.818  0.00  0.00    +0.000 HD
BRANCH   7  11
ATOM     11  C   UNL     1       0.892  12.417  19.843  0.00  0.00    +0.000 C 
BRANCH  11  12
ATOM     12  C   UNL     1      -0.447  12.797  19.189  0.00  0.00    +0.000 C 
BRANCH  12  15
ATOM     13  C   UNL     1      -0.487  15.244  19.166  0.00  0.00    +0.000 C 
ATOM     14  O   UNL     1      -0.557  15.295  20.383  0.00  0.00    +0.000 OA
ATOM     15  N   UNL     1      -0.408  14.063  18.477  0.00  0.00    +0.000 N 
ATOM     16  H   UNL     1      -0.319  14.092  17.468  0.00  0.00    +0.000 HD
BRANCH  13  17
ATOM     17  O   UNL     1      -0.462  16.321  18.331  0.00  0.00    +0.000 OA
BRANCH  17  19
ATOM     18  C   UNL     1       0.751  17.960  19.718  0.00  0.00    +0.000 C 
ATOM     19  C   UNL     1       0.705  17.202  18.384  0.00  0.00    +0.000 C 
ATOM     20  C   UNL     1       0.733  18.166  17.187  0.00  0.00    +0.000 C 
ATOM     21  C   UNL     1       1.964  16.314  18.319  0.00  0.00    +0.000 C 
ENDBRANCH  17  19
ENDBRANCH  13  17
ENDBRANCH  12  15
ENDBRANCH  11  12
ENDBRANCH   7  11
ENDBRANCH   1   8
BRANCH   4  22
ATOM     22  S   UNL     1       2.139   4.252  19.852  0.00  0.00    +0.000 S 
ATOM     23  O   UNL     1       1.638   4.068  21.203  0.00  0.00    +0.000 OA
ATOM     24  O   UNL     1       1.456   3.653  18.724  0.00  0.00    +0.000 OA
BRANCH  22  25
ATOM     25  O   UNL     1       3.723   3.827  19.796  0.00  0.00    +0.000 OA
BRANCH  25  26
ATOM     26  C   UNL     1       4.487   4.106  18.684  0.00  0.00    +0.000 A 
ATOM     27  C   UNL     1       5.610   4.918  18.861  0.00  0.00    +0.000 A 
ATOM     28  C   UNL     1       6.445   5.231  17.773  0.00  0.00    +0.000 A 
ATOM     29  C   UNL     1       6.191   4.706  16.498  0.00  0.00    +0.000 A 
ATOM     30  C   UNL     1       5.058   3.905  16.330  0.00  0.00    +0.000 A 
ATOM     31  C   UNL     1       4.223   3.600  17.411  0.00  0.00    +0.000 A 
BRANCH  29  32
ATOM     32  C   UNL     1       7.089   5.027  15.375  0.00  0.00    +0.000 C 
ATOM     33  C   UNL     1       6.767   4.781  14.096  0.00  0.00    +0.000 C 
BRANCH  33  34
ATOM     34  N   UNL     1       7.699   5.086  13.035  0.00  0.00    +0.000 N 
ATOM     35  O   UNL     1       8.628   5.872  13.262  0.00  0.00    +0.000 OA
ATOM     36  O   UNL     1       7.489   4.519  11.961  0.00  0.00    +0.000 OA
ENDBRANCH  33  34
ENDBRANCH  29  32
ENDBRANCH  25  26
ENDBRANCH  22  25
ENDBRANCH   4  22
TORSDOF 11
ENDMDL
MODEL 6
REMARK VINA RESULT:      -7.3      5.228      8.152
REMARK  Name = 
REMARK  14 active torsions:
REMARK  status: ('A' for Active; 'I' for Inactive)
REMARK    1  A    between atoms: C_1  and  C_2
REMARK    2  A    between atoms: C_2  and  C_3
REMARK    3  A    between atoms: C_2  and  C_4
REMARK    4  A    between atoms: C_2  and  O_5
REMARK    5  A    between atoms: O_5  and  C_6
REMARK    6  A    between atoms: N_8  and  C_9
REMARK    7  A    between atoms: C_9  and  C_10
REMARK    8  A    between atoms: C_10  and  N_11
REMARK    9  A    between atoms: C_12  and  C_14
REMARK   10  A    between atoms: C_17  and  S_18
REMARK   11  A    between atoms: S_18  and  O_21
REMARK   12  A    between atoms: O_21  and  C_22
REMARK   13  A    between atoms: C_25  and  C_26
REMARK   14  A    between atoms: C_27  and  N_28
REMARK                            x       y       z     vdW  Elec       q    Type
REMARK                         _______ _______ _______ _____ _____    ______ ____
ROOT
ATOM      1  C   UNL     1       6.382   5.479  17.677  0.00  0.00    +0.000 A 
ATOM      2  C   UNL     1       6.123   5.386  19.051  0.00  0.00    +0.000 A 
ATOM      3  C   UNL     1       5.255   4.405  19.539  0.00  0.00    +0.000 A 
ATOM      4  C   UNL     1       4.639   3.512  18.654  0.00  0.00    +0.000 A 
ATOM      5  C   UNL     1       4.857   3.621  17.276  0.00  0.00    +0.000 A 
ATOM      6  C   UNL     1       5.730   4.607  16.790  0.00  0.00    +0.000 A 
ENDROOT
BRANCH   1   8
ATOM      7  N   UNL     1       7.561   7.600  17.968  0.00  0.00    +0.000 N 
ATOM      8  C   UNL     1       7.308   6.521  17.141  0.00  0.00    +0.000 C 
ATOM      9  O   UNL     1       7.816   6.400  16.034  0.00  0.00    +0.000 OA
ATOM     10  H   UNL     1       7.198   7.612  18.913  0.00  0.00    +0.000 HD
BRANCH   7  11
ATOM     11  C   UNL     1       8.459   8.681  17.578  0.00  0.00    +0.000 C 
BRANCH  11  12
ATOM     12  C   UNL     1       8.006  10.052  18.106  0.00  0.00    +0.000 C 
BRANCH  12  15
ATOM     13  C   UNL     1       9.224  12.174  18.186  0.00  0.00    +0.000 C 
ATOM     14  O   UNL     1       8.431  12.704  17.427  0.00  0.00    +0.000 OA
ATOM     15  N   UNL     1       9.098  10.874  18.602  0.00  0.00    +0.000 N 
ATOM     16  H   UNL     1       9.773  10.505  19.260  0.00  0.00    +0.000 HD
BRANCH  13  17
ATOM     17  O   UNL     1      10.318  12.776  18.734  0.00  0.00    +0.000 OA
BRANCH  17  19
ATOM     18  C   UNL     1      10.134  15.070  17.847  0.00  0.00    +0.000 C 
ATOM     19  C   UNL     1      10.998  13.806  17.948  0.00  0.00    +0.000 C 
ATOM     20  C   UNL     1      11.390  13.280  16.558  0.00  0.00    +0.000 C 
ATOM     21  C   UNL     1      12.287  14.192  18.700  0.00  0.00    +0.000 C 
ENDBRANCH  17  19
ENDBRANCH  13  17
ENDBRANCH  12  15
ENDBRANCH  11  12
ENDBRANCH   7  11
ENDBRANCH   1   8
BRANCH   4  22
ATOM     22  S   UNL     1       3.410   2.380  19.299  0.00  0.00    +0.000 S 
ATOM     23  O   UNL     1       3.451   1.231  18.412  0.00  0.00    +0.000 OA
ATOM     24  O   UNL     1       3.682   2.229  20.713  0.00  0.00    +0.000 OA
BRANCH  22  25
ATOM     25  O   UNL     1       1.978   3.158  19.116  0.00  0.00    +0.000 OA
BRANCH  25  26
ATOM     26  C   UNL     1       1.907   4.532  19.209  0.00  0.00    +0.000 A 
ATOM     27  C   UNL     1       1.730   5.082  20.481  0.00  0.00    +0.000 A 
ATOM     28  C   UNL     1       1.664   6.476  20.654  0.00  0.00    +0.000 A 
ATOM     29  C   UNL     1       1.812   7.344  19.563  0.00  0.00    +0.000 A 
ATOM     30  C   UNL     1       1.976   6.781  18.294  0.00  0.00    +0.000 A 
ATOM     31  C   UNL     1       2.034   5.394  18.121  0.00  0.00    +0.000 A 
BRANCH  29  32
ATOM     32  C   UNL     1       1.763   8.802  19.766  0.00  0.00    +0.000 C 
ATOM     33  C   UNL     1       0.887   9.389  20.595  0.00  0.00    +0.000 C 
BRANCH  33  34
ATOM     34  N   UNL     1       0.861  10.827  20.733  0.00  0.00    +0.000 N 
ATOM     35  O   UNL     1       1.085  11.529  19.738  0.00  0.00    +0.000 OA
ATOM     36  O   UNL     1       0.606  11.250  21.863  0.00  0.00    +0.000 OA
ENDBRANCH  33  34
ENDBRANCH  29  32
ENDBRANCH  25  26
ENDBRANCH  22  25
ENDBRANCH   4  22
TORSDOF 11
ENDMDL
MODEL 7
REMARK VINA RESULT:      -7.3      4.411     10.891
REMARK  Name = 
REMARK  14 active torsions:
REMARK  status: ('A' for Active; 'I' for Inactive)
REMARK    1  A    between atoms: C_1  and  C_2
REMARK    2  A    between atoms: C_2  and  C_3
REMARK    3  A    between atoms: C_2  and  C_4
REMARK    4  A    between atoms: C_2  and  O_5
REMARK    5  A    between atoms: O_5  and  C_6
REMARK    6  A    between atoms: N_8  and  C_9
REMARK    7  A    between atoms: C_9  and  C_10
REMARK    8  A    between atoms: C_10  and  N_11
REMARK    9  A    between atoms: C_12  and  C_14
REMARK   10  A    between atoms: C_17  and  S_18
REMARK   11  A    between atoms: S_18  and  O_21
REMARK   12  A    between atoms: O_21  and  C_22
REMARK   13  A    between atoms: C_25  and  C_26
REMARK   14  A    between atoms: C_27  and  N_28
REMARK                            x       y       z     vdW  Elec       q    Type
REMARK                         _______ _______ _______ _____ _____    ______ ____
ROOT
ATOM      1  C   UNL     1       0.639   9.802  20.528  0.00  0.00    +0.000 A 
ATOM      2  C   UNL     1       0.627   8.832  21.539  0.00  0.00    +0.000 A 
ATOM      3  C   UNL     1       1.222   7.585  21.326  0.00  0.00    +0.000 A 
ATOM      4  C   UNL     1       1.832   7.302  20.097  0.00  0.00    +0.000 A 
ATOM      5  C   UNL     1       1.814   8.247  19.066  0.00  0.00    +0.000 A 
ATOM      6  C   UNL     1       1.216   9.497  19.285  0.00  0.00    +0.000 A 
ENDROOT
BRANCH   1   8
ATOM      7  N   UNL     1      -0.504  11.380  22.004  0.00  0.00    +0.000 N 
ATOM      8  C   UNL     1       0.009  11.139  20.743  0.00  0.00    +0.000 C 
ATOM      9  O   UNL     1      -0.028  11.967  19.842  0.00  0.00    +0.000 OA
ATOM     10  H   UNL     1      -0.364  10.706  22.746  0.00  0.00    +0.000 HD
BRANCH   7  11
ATOM     11  C   UNL     1      -1.131  12.649  22.355  0.00  0.00    +0.000 C 
BRANCH  11  12
ATOM     12  C   UNL     1      -2.403  12.471  23.201  0.00  0.00    +0.000 C 
BRANCH  12  15
ATOM     13  C   UNL     1      -4.403  13.389  22.129  0.00  0.00    +0.000 C 
ATOM     14  O   UNL     1      -4.126  14.521  22.490  0.00  0.00    +0.000 OA
ATOM     15  N   UNL     1      -3.611  12.307  22.410  0.00  0.00    +0.000 N 
ATOM     16  H   UNL     1      -3.881  11.399  22.052  0.00  0.00    +0.000 HD
BRANCH  13  17
ATOM     17  O   UNL     1      -5.501  13.038  21.402  0.00  0.00    +0.000 OA
BRANCH  17  19
ATOM     18  C   UNL     1      -7.557  11.720  21.751  0.00  0.00    +0.000 C 
ATOM     19  C   UNL     1      -6.794  13.009  22.086  0.00  0.00    +0.000 C 
ATOM     20  C   UNL     1      -7.627  14.259  21.758  0.00  0.00    +0.000 C 
ATOM     21  C   UNL     1      -6.519  12.997  23.603  0.00  0.00    +0.000 C 
ENDBRANCH  17  19
ENDBRANCH  13  17
ENDBRANCH  12  15
ENDBRANCH  11  12
ENDBRANCH   7  11
ENDBRANCH   1   8
BRANCH   4  22
ATOM     22  S   UNL     1       2.435   5.640  19.807  0.00  0.00    +0.000 S 
ATOM     23  O   UNL     1       2.319   4.966  21.088  0.00  0.00    +0.000 OA
ATOM     24  O   UNL     1       1.734   5.138  18.644  0.00  0.00    +0.000 OA
BRANCH  22  25
ATOM     25  O   UNL     1       4.021   5.824  19.430  0.00  0.00    +0.000 OA
BRANCH  25  26
ATOM     26  C   UNL     1       4.481   5.530  18.165  0.00  0.00    +0.000 A 
ATOM     27  C   UNL     1       4.756   6.604  17.314  0.00  0.00    +0.000 A 
ATOM     28  C   UNL     1       5.244   6.380  16.014  0.00  0.00    +0.000 A 
ATOM     29  C   UNL     1       5.500   5.080  15.556  0.00  0.00    +0.000 A 
ATOM     30  C   UNL     1       5.209   4.013  16.411  0.00  0.00    +0.000 A 
ATOM     31  C   UNL     1       4.718   4.236  17.702  0.00  0.00    +0.000 A 
BRANCH  29  32
ATOM     32  C   UNL     1       6.032   4.866  14.200  0.00  0.00    +0.000 C 
ATOM     33  C   UNL     1       6.009   3.670  13.592  0.00  0.00    +0.000 C 
BRANCH  33  34
ATOM     34  N   UNL     1       6.573   3.509  12.272  0.00  0.00    +0.000 N 
ATOM     35  O   UNL     1       7.356   4.368  11.846  0.00  0.00    +0.000 OA
ATOM     36  O   UNL     1       6.223   2.497  11.662  0.00  0.00    +0.000 OA
ENDBRANCH  33  34
ENDBRANCH  29  32
ENDBRANCH  25  26
ENDBRANCH  22  25
ENDBRANCH   4  22
TORSDOF 11
ENDMDL
MODEL 8
REMARK VINA RESULT:      -7.3      3.746     10.101
REMARK  Name = 
REMARK  14 active torsions:
REMARK  status: ('A' for Active; 'I' for Inactive)
REMARK    1  A    between atoms: C_1  and  C_2
REMARK    2  A    between atoms: C_2  and  C_3
REMARK    3  A    between atoms: C_2  and  C_4
REMARK    4  A    between atoms: C_2  and  O_5
REMARK    5  A    between atoms: O_5  and  C_6
REMARK    6  A    between atoms: N_8  and  C_9
REMARK    7  A    between atoms: C_9  and  C_10
REMARK    8  A    between atoms: C_10  and  N_11
REMARK    9  A    between atoms: C_12  and  C_14
REMARK   10  A    between atoms: C_17  and  S_18
REMARK   11  A    between atoms: S_18  and  O_21
REMARK   12  A    between atoms: O_21  and  C_22
REMARK   13  A    between atoms: C_25  and  C_26
REMARK   14  A    between atoms: C_27  and  N_28
REMARK                            x       y       z     vdW  Elec       q    Type
REMARK                         _______ _______ _______ _____ _____    ______ ____
ROOT
ATOM      1  C   UNL     1       2.083   7.203  19.835  0.00  0.00    +0.000 A 
ATOM      2  C   UNL     1       2.594   7.532  18.573  0.00  0.00    +0.000 A 
ATOM      3  C   UNL     1       3.243   6.565  17.801  0.00  0.00    +0.000 A 
ATOM      4  C   UNL     1       3.386   5.260  18.290  0.00  0.00    +0.000 A 
ATOM      5  C   UNL     1       2.916   4.929  19.566  0.00  0.00    +0.000 A 
ATOM      6  C   UNL     1       2.264   5.904  20.336  0.00  0.00    +0.000 A 
ENDROOT
BRANCH   1   8
ATOM      7  N   UNL     1       1.200   9.467  20.090  0.00  0.00    +0.000 N 
ATOM      8  C   UNL     1       1.385   8.226  20.670  0.00  0.00    +0.000 C 
ATOM      9  O   UNL     1       0.994   7.955  21.798  0.00  0.00    +0.000 OA
ATOM     10  H   UNL     1       1.450   9.618  19.121  0.00  0.00    +0.000 HD
BRANCH   7  11
ATOM     11  C   UNL     1       0.519  10.554  20.786  0.00  0.00    +0.000 C 
BRANCH  11  12
ATOM     12  C   UNL     1       0.201  11.744  19.866  0.00  0.00    +0.000 C 
BRANCH  12  15
ATOM     13  C   UNL     1      -1.507  11.752  18.114  0.00  0.00    +0.000 C 
ATOM     14  O   UNL     1      -2.242  12.465  18.776  0.00  0.00    +0.000 OA
ATOM     15  N   UNL     1      -0.271  11.352  18.549  0.00  0.00    +0.000 N 
ATOM     16  H   UNL     1       0.303  10.787  17.935  0.00  0.00    +0.000 HD
BRANCH  13  17
ATOM     17  O   UNL     1      -1.786  11.268  16.870  0.00  0.00    +0.000 OA
BRANCH  17  19
ATOM     18  C   UNL     1      -3.129   9.937  15.285  0.00  0.00    +0.000 C 
ATOM     19  C   UNL     1      -3.070  10.594  16.671  0.00  0.00    +0.000 C 
ATOM     20  C   UNL     1      -4.247  11.558  16.888  0.00  0.00    +0.000 C 
ATOM     21  C   UNL     1      -3.172   9.465  17.717  0.00  0.00    +0.000 C 
ENDBRANCH  17  19
ENDBRANCH  13  17
ENDBRANCH  12  15
ENDBRANCH  11  12
ENDBRANCH   7  11
ENDBRANCH   1   8
BRANCH   4  22
ATOM     22  S   UNL     1       4.366   4.096  17.345  0.00  0.00    +0.000 S 
ATOM     23  O   UNL     1       3.777   2.796  17.618  0.00  0.00    +0.000 OA
ATOM     24  O   UNL     1       4.431   4.606  15.991  0.00  0.00    +0.000 OA
BRANCH  22  25
ATOM     25  O   UNL     1       5.864   4.165  18.009  0.00  0.00    +0.000 OA
BRANCH  25  26
ATOM     26  C   UNL     1       6.565   5.351  18.041  0.00  0.00    +0.000 A 
ATOM     27  C   UNL     1       6.360   6.248  16.989  0.00  0.00    +0.000 A 
ATOM     28  C   UNL     1       7.030   7.485  16.964  0.00  0.00    +0.000 A 
ATOM     29  C   UNL     1       7.887   7.860  18.008  0.00  0.00    +0.000 A 
ATOM     30  C   UNL     1       8.094   6.949  19.048  0.00  0.00    +0.000 A 
ATOM     31  C   UNL     1       7.433   5.716  19.070  0.00  0.00    +0.000 A 
BRANCH  29  32
ATOM     32  C   UNL     1       8.562   9.168  17.976  0.00  0.00    +0.000 C 
ATOM     33  C   UNL     1       9.060   9.755  19.075  0.00  0.00    +0.000 C 
BRANCH  33  34
ATOM     34  N   UNL     1       9.685  11.054  18.992  0.00  0.00    +0.000 N 
ATOM     35  O   UNL     1      10.550  11.358  19.824  0.00  0.00    +0.000 OA
ATOM     36  O   UNL     1       9.298  11.774  18.069  0.00  0.00    +0.000 OA
ENDBRANCH  33  34
ENDBRANCH  29  32
ENDBRANCH  25  26
ENDBRANCH  22  25
ENDBRANCH   4  22
TORSDOF 11
ENDMDL
MODEL 9
REMARK VINA RESULT:      -7.3      4.368      9.923
REMARK  Name = 
REMARK  14 active torsions:
REMARK  status: ('A' for Active; 'I' for Inactive)
REMARK    1  A    between atoms: C_1  and  C_2
REMARK    2  A    between atoms: C_2  and  C_3
REMARK    3  A    between atoms: C_2  and  C_4
REMARK    4  A    between atoms: C_2  and  O_5
REMARK    5  A    between atoms: O_5  and  C_6
REMARK    6  A    between atoms: N_8  and  C_9
REMARK    7  A    between atoms: C_9  and  C_10
REMARK    8  A    between atoms: C_10  and  N_11
REMARK    9  A    between atoms: C_12  and  C_14
REMARK   10  A    between atoms: C_17  and  S_18
REMARK   11  A    between atoms: S_18  and  O_21
REMARK   12  A    between atoms: O_21  and  C_22
REMARK   13  A    between atoms: C_25  and  C_26
REMARK   14  A    between atoms: C_27  and  N_28
REMARK                            x       y       z     vdW  Elec       q    Type
REMARK                         _______ _______ _______ _____ _____    ______ ____
ROOT
ATOM      1  C   UNL     1       1.994   7.149  19.904  0.00  0.00    +0.000 A 
ATOM      2  C   UNL     1       2.493   7.125  18.595  0.00  0.00    +0.000 A 
ATOM      3  C   UNL     1       3.083   5.965  18.086  0.00  0.00    +0.000 A 
ATOM      4  C   UNL     1       3.179   4.820  18.887  0.00  0.00    +0.000 A 
ATOM      5  C   UNL     1       2.723   4.844  20.210  0.00  0.00    +0.000 A 
ATOM      6  C   UNL     1       2.131   6.011  20.716  0.00  0.00    +0.000 A 
ENDROOT
BRANCH   1   8
ATOM      7  N   UNL     1       1.091   9.393  19.557  0.00  0.00    +0.000 N 
ATOM      8  C   UNL     1       1.360   8.381  20.460  0.00  0.00    +0.000 C 
ATOM      9  O   UNL     1       1.088   8.464  21.651  0.00  0.00    +0.000 OA
ATOM     10  H   UNL     1       1.241   9.243  18.568  0.00  0.00    +0.000 HD
BRANCH   7  11
ATOM     11  C   UNL     1       0.458  10.643  19.961  0.00  0.00    +0.000 C 
BRANCH  11  12
ATOM     12  C   UNL     1       0.131  11.558  18.769  0.00  0.00    +0.000 C 
BRANCH  12  15
ATOM     13  C   UNL     1       1.447  13.595  18.437  0.00  0.00    +0.000 C 
ATOM     14  O   UNL     1       0.662  14.258  19.094  0.00  0.00    +0.000 OA
ATOM     15  N   UNL     1       1.290  12.249  18.230  0.00  0.00    +0.000 N 
ATOM     16  H   UNL     1       1.997  11.751  17.703  0.00  0.00    +0.000 HD
BRANCH  13  17
ATOM     17  O   UNL     1       2.575  14.070  17.837  0.00  0.00    +0.000 OA
BRANCH  17  19
ATOM     18  C   UNL     1       3.566  14.356  20.078  0.00  0.00    +0.000 C 
ATOM     19  C   UNL     1       3.484  14.888  18.641  0.00  0.00    +0.000 C 
ATOM     20  C   UNL     1       3.078  16.370  18.610  0.00  0.00    +0.000 C 
ATOM     21  C   UNL     1       4.893  14.761  18.026  0.00  0.00    +0.000 C 
ENDBRANCH  17  19
ENDBRANCH  13  17
ENDBRANCH  12  15
ENDBRANCH  11  12
ENDBRANCH   7  11
ENDBRANCH   1   8
BRANCH   4  22
ATOM     22  S   UNL     1       4.088   3.411  18.257  0.00  0.00    +0.000 S 
ATOM     23  O   UNL     1       4.863   2.925  19.386  0.00  0.00    +0.000 OA
ATOM     24  O   UNL     1       3.125   2.551  17.600  0.00  0.00    +0.000 OA
BRANCH  22  25
ATOM     25  O   UNL     1       5.102   4.030  17.127  0.00  0.00    +0.000 OA
BRANCH  25  26
ATOM     26  C   UNL     1       5.911   5.106  17.422  0.00  0.00    +0.000 A 
ATOM     27  C   UNL     1       6.716   5.012  18.561  0.00  0.00    +0.000 A 
ATOM     28  C   UNL     1       7.578   6.065  18.915  0.00  0.00    +0.000 A 
ATOM     29  C   UNL     1       7.679   7.213  18.116  0.00  0.00    +0.000 A 
ATOM     30  C   UNL     1       6.860   7.300  16.986  0.00  0.00    +0.000 A 
ATOM     31  C   UNL     1       5.996   6.256  16.638  0.00  0.00    +0.000 A 
BRANCH  29  32
ATOM     32  C   UNL     1       8.604   8.295  18.490  0.00  0.00    +0.000 C 
ATOM     33  C   UNL     1       8.351   9.588  18.232  0.00  0.00    +0.000 C 
BRANCH  33  34
ATOM     34  N   UNL     1       9.309  10.607  18.593  0.00  0.00    +0.000 N 
ATOM     35  O   UNL     1       9.268  11.091  19.732  0.00  0.00    +0.000 OA
ATOM     36  O   UNL     1      10.114  10.917  17.713  0.00  0.00    +0.000 OA
ENDBRANCH  33  34
ENDBRANCH  29  32
ENDBRANCH  25  26
ENDBRANCH  22  25
ENDBRANCH   4  22
TORSDOF 11
ENDMDL
