MODEL 1
REMARK VINA RESULT:      -6.6      0.000      0.000
REMARK  Name = 
REMARK  6 active torsions:
REMARK  status: ('A' for Active; 'I' for Inactive)
REMARK    1  A    between atoms: C_1  and  O_2
REMARK    2  A    between atoms: O_2  and  C_3
REMARK    3  A    between atoms: C_6  and  C_7
REMARK    4  A    between atoms: C_12  and  C_14
REMARK    5  A    between atoms: C_20  and  O_21
REMARK    6  A    between atoms: O_21  and  C_22
REMARK                            x       y       z     vdW  Elec       q    Type
REMARK                         _______ _______ _______ _____ _____    ______ ____
ROOT
ATOM      1  C   UNL     1       3.213   4.222  19.625  0.00  0.00    +0.000 C 
ATOM      2  C   UNL     1       2.311   2.981  19.573  0.00  0.00    +0.000 C 
ATOM      3  C   UNL     1       1.171   3.338  20.509  0.00  0.00    +0.000 C 
ATOM      4  C   UNL     1       1.009   4.839  20.328  0.00  0.00    +0.000 C 
ATOM      5  N   UNL     1       2.255   5.323  19.740  0.00  0.00    +0.000 N 
ATOM      6  C   UNL     1       2.659   6.662  19.768  0.00  0.00    +0.000 C 
ATOM      7  O   UNL     1       3.821   6.989  19.528  0.00  0.00    +0.000 OA
ENDROOT
BRANCH   1  11
ATOM      8  C   UNL     1       6.039   4.202  16.330  0.00  0.00    +0.000 A 
ATOM      9  C   UNL     1       4.680   3.946  16.101  0.00  0.00    +0.000 A 
ATOM     10  C   UNL     1       3.755   3.979  17.148  0.00  0.00    +0.000 A 
ATOM     11  C   UNL     1       4.171   4.234  18.456  0.00  0.00    +0.000 A 
ATOM     12  C   UNL     1       5.544   4.433  18.688  0.00  0.00    +0.000 A 
ATOM     13  C   UNL     1       6.480   4.395  17.645  0.00  0.00    +0.000 A 
BRANCH   8  15
ATOM     14  C   UNL     1       6.425   4.024  14.006  0.00  0.00    +0.000 C 
ATOM     15  O   UNL     1       6.948   4.265  15.309  0.00  0.00    +0.000 OA
ENDBRANCH   8  15
BRANCH  13  16
ATOM     16  O   UNL     1       7.770   4.622  18.056  0.00  0.00    +0.000 OA
ATOM     17  C   UNL     1       7.949   5.638  19.038  0.00  0.00    +0.000 C 
ENDBRANCH  13  16
ENDBRANCH   1  11
BRANCH   6  18
ATOM     18  C   UNL     1       1.685   7.705  20.152  0.00  0.00    +0.000 A 
ATOM     19  C   UNL     1       1.301   8.781  19.271  0.00  0.00    +0.000 A 
ATOM     20  N   UNL     1       0.461   9.690  19.779  0.00  0.00    +0.000 NA
ATOM     21  S   UNL     1       0.134   9.143  21.322  0.00  0.00    +0.000 S 
ATOM     22  N   UNL     1       1.065   7.756  21.345  0.00  0.00    +0.000 NA
ENDBRANCH   6  18
TORSDOF 4
ENDMDL
MODEL 2
REMARK VINA RESULT:      -6.6      1.470      1.608
REMARK  Name = 
REMARK  6 active torsions:
REMARK  status: ('A' for Active; 'I' for Inactive)
REMARK    1  A    between atoms: C_1  and  O_2
REMARK    2  A    between atoms: O_2  and  C_3
REMARK    3  A    between atoms: C_6  and  C_7
REMARK    4  A    between atoms: C_12  and  C_14
REMARK    5  A    between atoms: C_20  and  O_21
REMARK    6  A    between atoms: O_21  and  C_22
REMARK                            x       y       z     vdW  Elec       q    Type
REMARK                         _______ _______ _______ _____ _____    ______ ____
ROOT
ATOM      1  C   UNL     1       3.777   5.652  19.324  0.00  0.00    +0.000 C 
ATOM      2  C   UNL     1       3.237   4.342  19.916  0.00  0.00    +0.000 C 
ATOM      3  C   UNL     1       2.184   4.812  20.901  0.00  0.00    +0.000 C 
ATOM      4  C   UNL     1       1.606   6.059  20.249  0.00  0.00    +0.000 C 
ATOM      5  N   UNL     1       2.586   6.502  19.261  0.00  0.00    +0.000 N 
ATOM      6  C   UNL     1       2.621   7.794  18.726  0.00  0.00    +0.000 C 
ATOM      7  O   UNL     1       3.610   8.217  18.129  0.00  0.00    +0.000 OA
ENDROOT
BRANCH   1  11
ATOM      8  C   UNL     1       6.029   4.898  15.691  0.00  0.00    +0.000 A 
ATOM      9  C   UNL     1       4.872   4.161  15.973  0.00  0.00    +0.000 A 
ATOM     10  C   UNL     1       4.120   4.414  17.125  0.00  0.00    +0.000 A 
ATOM     11  C   UNL     1       4.528   5.387  18.040  0.00  0.00    +0.000 A 
ATOM     12  C   UNL     1       5.721   6.083  17.779  0.00  0.00    +0.000 A 
ATOM     13  C   UNL     1       6.485   5.831  16.631  0.00  0.00    +0.000 A 
BRANCH   8  15
ATOM     14  C   UNL     1       6.142   3.846  13.578  0.00  0.00    +0.000 C 
ATOM     15  O   UNL     1       6.730   4.732  14.527  0.00  0.00    +0.000 OA
ENDBRANCH   8  15
BRANCH  13  16
ATOM     16  O   UNL     1       7.610   6.613  16.536  0.00  0.00    +0.000 OA
ATOM     17  C   UNL     1       7.712   7.686  17.468  0.00  0.00    +0.000 C 
ENDBRANCH  13  16
ENDBRANCH   1  11
BRANCH   6  18
ATOM     18  C   UNL     1       1.467   8.694  18.932  0.00  0.00    +0.000 A 
ATOM     19  C   UNL     1       0.698   9.244  17.842  0.00  0.00    +0.000 A 
ATOM     20  N   UNL     1      -0.275  10.098  18.178  0.00  0.00    +0.000 NA
ATOM     21  S   UNL     1      -0.236  10.146  19.846  0.00  0.00    +0.000 S 
ATOM     22  N   UNL     1       1.022   9.087  20.140  0.00  0.00    +0.000 NA
ENDBRANCH   6  18
TORSDOF 4
ENDMDL
MODEL 3
REMARK VINA RESULT:      -6.2      1.686      1.954
REMARK  Name = 
REMARK  6 active torsions:
REMARK  status: ('A' for Active; 'I' for Inactive)
REMARK    1  A    between atoms: C_1  and  O_2
REMARK    2  A    between atoms: O_2  and  C_3
REMARK    3  A    between atoms: C_6  and  C_7
REMARK    4  A    between atoms: C_12  and  C_14
REMARK    5  A    between atoms: C_20  and  O_21
REMARK    6  A    between atoms: O_21  and  C_22
REMARK                            x       y       z     vdW  Elec       q    Type
REMARK                         _______ _______ _______ _____ _____    ______ ____
ROOT
ATOM      1  C   UNL     1       3.751   4.505  17.700  0.00  0.00    +0.000 C 
ATOM      2  C   UNL     1       2.846   3.325  17.316  0.00  0.00    +0.000 C 
ATOM      3  C   UNL     1       1.616   3.533  18.179  0.00  0.00    +0.000 C 
ATOM      4  C   UNL     1       1.491   5.046  18.275  0.00  0.00    +0.000 C 
ATOM      5  N   UNL     1       2.798   5.594  17.924  0.00  0.00    +0.000 N 
ATOM      6  C   UNL     1       3.211   6.889  18.251  0.00  0.00    +0.000 C 
ATOM      7  O   UNL     1       4.395   7.220  18.201  0.00  0.00    +0.000 OA
ENDROOT
BRANCH   1  11
ATOM      8  C   UNL     1       6.926   5.088  14.797  0.00  0.00    +0.000 A 
ATOM      9  C   UNL     1       5.855   4.229  14.515  0.00  0.00    +0.000 A 
ATOM     10  C   UNL     1       4.811   4.055  15.428  0.00  0.00    +0.000 A 
ATOM     11  C   UNL     1       4.830   4.709  16.662  0.00  0.00    +0.000 A 
ATOM     12  C   UNL     1       5.935   5.524  16.962  0.00  0.00    +0.000 A 
ATOM     13  C   UNL     1       6.990   5.699  16.056  0.00  0.00    +0.000 A 
BRANCH   8  15
ATOM     14  C   UNL     1       7.613   4.975  12.540  0.00  0.00    +0.000 C 
ATOM     15  O   UNL     1       7.912   5.344  13.884  0.00  0.00    +0.000 OA
ENDBRANCH   8  15
BRANCH  13  16
ATOM     16  O   UNL     1       7.976   6.537  16.514  0.00  0.00    +0.000 OA
ATOM     17  C   UNL     1       7.597   7.458  17.532  0.00  0.00    +0.000 C 
ENDBRANCH  13  16
ENDBRANCH   1  11
BRANCH   6  18
ATOM     18  C   UNL     1       2.212   7.870  18.725  0.00  0.00    +0.000 A 
ATOM     19  C   UNL     1       1.561   8.812  17.847  0.00  0.00    +0.000 A 
ATOM     20  N   UNL     1       0.731   9.685  18.429  0.00  0.00    +0.000 NA
ATOM     21  S   UNL     1       0.746   9.268  20.045  0.00  0.00    +0.000 S 
ATOM     22  N   UNL     1       1.813   7.983  20.005  0.00  0.00    +0.000 NA
ENDBRANCH   6  18
TORSDOF 4
ENDMDL
MODEL 4
REMARK VINA RESULT:      -6.1      2.654      3.889
REMARK  Name = 
REMARK  6 active torsions:
REMARK  status: ('A' for Active; 'I' for Inactive)
REMARK    1  A    between atoms: C_1  and  O_2
REMARK    2  A    between atoms: O_2  and  C_3
REMARK    3  A    between atoms: C_6  and  C_7
REMARK    4  A    between atoms: C_12  and  C_14
REMARK    5  A    between atoms: C_20  and  O_21
REMARK    6  A    between atoms: O_21  and  C_22
REMARK                            x       y       z     vdW  Elec       q    Type
REMARK                         _______ _______ _______ _____ _____    ______ ____
ROOT
ATOM      1  C   UNL     1       3.243   6.245  17.503  0.00  0.00    +0.000 C 
ATOM      2  C   UNL     1       3.235   7.719  17.936  0.00  0.00    +0.000 C 
ATOM      3  C   UNL     1       2.220   7.747  19.062  0.00  0.00    +0.000 C 
ATOM      4  C   UNL     1       2.384   6.391  19.733  0.00  0.00    +0.000 C 
ATOM      5  N   UNL     1       3.057   5.529  18.766  0.00  0.00    +0.000 N 
ATOM      6  C   UNL     1       3.053   4.132  18.835  0.00  0.00    +0.000 C 
ATOM      7  O   UNL     1       3.374   3.438  17.871  0.00  0.00    +0.000 OA
ENDROOT
BRANCH   1  11
ATOM      8  C   UNL     1       6.847   5.363  15.250  0.00  0.00    +0.000 A 
ATOM      9  C   UNL     1       5.653   4.684  14.972  0.00  0.00    +0.000 A 
ATOM     10  C   UNL     1       4.478   4.979  15.669  0.00  0.00    +0.000 A 
ATOM     11  C   UNL     1       4.476   5.937  16.686  0.00  0.00    +0.000 A 
ATOM     12  C   UNL     1       5.690   6.573  16.998  0.00  0.00    +0.000 A 
ATOM     13  C   UNL     1       6.875   6.278  16.310  0.00  0.00    +0.000 A 
BRANCH   8  15
ATOM     14  C   UNL     1       7.820   5.174  13.105  0.00  0.00    +0.000 C 
ATOM     15  O   UNL     1       7.987   5.157  14.521  0.00  0.00    +0.000 OA
ENDBRANCH   8  15
BRANCH  13  16
ATOM     16  O   UNL     1       7.958   7.004  16.742  0.00  0.00    +0.000 OA
ATOM     17  C   UNL     1       7.674   8.118  17.583  0.00  0.00    +0.000 C 
ENDBRANCH  13  16
ENDBRANCH   1  11
BRANCH   6  18
ATOM     18  C   UNL     1       2.598   3.469  20.076  0.00  0.00    +0.000 A 
ATOM     19  C   UNL     1       3.488   2.739  20.946  0.00  0.00    +0.000 A 
ATOM     20  N   UNL     1       2.922   2.135  21.997  0.00  0.00    +0.000 NA
ATOM     21  S   UNL     1       1.306   2.542  21.897  0.00  0.00    +0.000 S 
ATOM     22  N   UNL     1       1.326   3.480  20.514  0.00  0.00    +0.000 NA
ENDBRANCH   6  18
TORSDOF 4
ENDMDL
MODEL 5
REMARK VINA RESULT:      -6.1      3.541      6.803
REMARK  Name = 
REMARK  6 active torsions:
REMARK  status: ('A' for Active; 'I' for Inactive)
REMARK    1  A    between atoms: C_1  and  O_2
REMARK    2  A    between atoms: O_2  and  C_3
REMARK    3  A    between atoms: C_6  and  C_7
REMARK    4  A    between atoms: C_12  and  C_14
REMARK    5  A    between atoms: C_20  and  O_21
REMARK    6  A    between atoms: O_21  and  C_22
REMARK                            x       y       z     vdW  Elec       q    Type
REMARK                         _______ _______ _______ _____ _____    ______ ____
ROOT
ATOM      1  C   UNL     1       2.117   5.309  17.942  0.00  0.00    +0.000 C 
ATOM      2  C   UNL     1       1.553   3.984  18.477  0.00  0.00    +0.000 C 
ATOM      3  C   UNL     1       2.192   2.944  17.576  0.00  0.00    +0.000 C 
ATOM      4  C   UNL     1       3.564   3.525  17.265  0.00  0.00    +0.000 C 
ATOM      5  N   UNL     1       3.483   4.954  17.554  0.00  0.00    +0.000 N 
ATOM      6  C   UNL     1       4.383   5.900  17.052  0.00  0.00    +0.000 C 
ATOM      7  O   UNL     1       4.130   7.104  17.072  0.00  0.00    +0.000 OA
ENDROOT
BRANCH   1  11
ATOM      8  C   UNL     1       1.508   8.529  20.788  0.00  0.00    +0.000 A 
ATOM      9  C   UNL     1       1.656   7.208  21.233  0.00  0.00    +0.000 A 
ATOM     10  C   UNL     1       1.882   6.166  20.329  0.00  0.00    +0.000 A 
ATOM     11  C   UNL     1       1.931   6.414  18.956  0.00  0.00    +0.000 A 
ATOM     12  C   UNL     1       1.725   7.732  18.513  0.00  0.00    +0.000 A 
ATOM     13  C   UNL     1       1.490   8.783  19.411  0.00  0.00    +0.000 A 
BRANCH   8  15
ATOM     14  C   UNL     1       0.169   9.599  22.415  0.00  0.00    +0.000 C 
ATOM     15  O   UNL     1       1.377   9.578  21.658  0.00  0.00    +0.000 OA
ENDBRANCH   8  15
BRANCH  13  16
ATOM     16  O   UNL     1       1.323  10.001  18.800  0.00  0.00    +0.000 OA
ATOM     17  C   UNL     1      -0.021  10.400  18.547  0.00  0.00    +0.000 C 
ENDBRANCH  13  16
ENDBRANCH   1  11
BRANCH   6  18
ATOM     18  C   UNL     1       5.644   5.442  16.431  0.00  0.00    +0.000 A 
ATOM     19  C   UNL     1       6.736   4.886  17.192  0.00  0.00    +0.000 A 
ATOM     20  N   UNL     1       7.840   4.578  16.503  0.00  0.00    +0.000 NA
ATOM     21  S   UNL     1       7.462   4.941  14.918  0.00  0.00    +0.000 S 
ATOM     22  N   UNL     1       5.898   5.496  15.111  0.00  0.00    +0.000 NA
ENDBRANCH   6  18
TORSDOF 4
ENDMDL
MODEL 6
REMARK VINA RESULT:      -6.1      2.659      4.239
REMARK  Name = 
REMARK  6 active torsions:
REMARK  status: ('A' for Active; 'I' for Inactive)
REMARK    1  A    between atoms: C_1  and  O_2
REMARK    2  A    between atoms: O_2  and  C_3
REMARK    3  A    between atoms: C_6  and  C_7
REMARK    4  A    between atoms: C_12  and  C_14
REMARK    5  A    between atoms: C_20  and  O_21
REMARK    6  A    between atoms: O_21  and  C_22
REMARK                            x       y       z     vdW  Elec       q    Type
REMARK                         _______ _______ _______ _____ _____    ______ ____
ROOT
ATOM      1  C   UNL     1       2.186   7.070  18.437  0.00  0.00    +0.000 C 
ATOM      2  C   UNL     1       2.937   7.995  17.467  0.00  0.00    +0.000 C 
ATOM      3  C   UNL     1       2.220   9.323  17.625  0.00  0.00    +0.000 C 
ATOM      4  C   UNL     1       1.811   9.343  19.090  0.00  0.00    +0.000 C 
ATOM      5  N   UNL     1       1.857   7.958  19.553  0.00  0.00    +0.000 N 
ATOM      6  C   UNL     1       1.200   7.500  20.700  0.00  0.00    +0.000 C 
ATOM      7  O   UNL     1       1.019   6.300  20.902  0.00  0.00    +0.000 OA
ENDROOT
BRANCH   1  11
ATOM      8  C   UNL     1       4.489   3.469  19.192  0.00  0.00    +0.000 A 
ATOM      9  C   UNL     1       5.059   4.732  19.401  0.00  0.00    +0.000 A 
ATOM     10  C   UNL     1       4.319   5.899  19.191  0.00  0.00    +0.000 A 
ATOM     11  C   UNL     1       3.002   5.833  18.732  0.00  0.00    +0.000 A 
ATOM     12  C   UNL     1       2.455   4.564  18.469  0.00  0.00    +0.000 A 
ATOM     13  C   UNL     1       3.192   3.389  18.670  0.00  0.00    +0.000 A 
BRANCH   8  15
ATOM     14  C   UNL     1       4.832   1.703  20.723  0.00  0.00    +0.000 C 
ATOM     15  O   UNL     1       5.162   2.312  19.478  0.00  0.00    +0.000 OA
ENDBRANCH   8  15
BRANCH  13  16
ATOM     16  O   UNL     1       2.493   2.245  18.372  0.00  0.00    +0.000 OA
ATOM     17  C   UNL     1       1.132   2.211  18.789  0.00  0.00    +0.000 C 
ENDBRANCH  13  16
ENDBRANCH   1  11
BRANCH   6  18
ATOM     18  C   UNL     1       0.658   8.481  21.665  0.00  0.00    +0.000 A 
ATOM     19  C   UNL     1       1.435   9.017  22.756  0.00  0.00    +0.000 A 
ATOM     20  N   UNL     1       0.792   9.843  23.589  0.00  0.00    +0.000 NA
ATOM     21  S   UNL     1      -0.747   9.967  22.953  0.00  0.00    +0.000 S 
ATOM     22  N   UNL     1      -0.596   8.966  21.624  0.00  0.00    +0.000 NA
ENDBRANCH   6  18
TORSDOF 4
ENDMDL
MODEL 7
REMARK VINA RESULT:      -6.1      3.925      7.428
REMARK  Name = 
REMARK  6 active torsions:
REMARK  status: ('A' for Active; 'I' for Inactive)
REMARK    1  A    between atoms: C_1  and  O_2
REMARK    2  A    between atoms: O_2  and  C_3
REMARK    3  A    between atoms: C_6  and  C_7
REMARK    4  A    between atoms: C_12  and  C_14
REMARK    5  A    between atoms: C_20  and  O_21
REMARK    6  A    between atoms: O_21  and  C_22
REMARK                            x       y       z     vdW  Elec       q    Type
REMARK                         _______ _______ _______ _____ _____    ______ ____
ROOT
ATOM      1  C   UNL     1       2.372   8.297  19.027  0.00  0.00    +0.000 C 
ATOM      2  C   UNL     1       2.965   8.377  17.613  0.00  0.00    +0.000 C 
ATOM      3  C   UNL     1       3.843   7.143  17.532  0.00  0.00    +0.000 C 
ATOM      4  C   UNL     1       3.100   6.113  18.371  0.00  0.00    +0.000 C 
ATOM      5  N   UNL     1       2.180   6.860  19.225  0.00  0.00    +0.000 N 
ATOM      6  C   UNL     1       1.604   6.338  20.387  0.00  0.00    +0.000 C 
ATOM      7  O   UNL     1       1.074   7.066  21.226  0.00  0.00    +0.000 OA
ENDROOT
BRANCH   1  11
ATOM      8  C   UNL     1      -1.039  10.952  19.437  0.00  0.00    +0.000 A 
ATOM      9  C   UNL     1      -0.767  10.331  18.211  0.00  0.00    +0.000 A 
ATOM     10  C   UNL     1       0.310   9.450  18.073  0.00  0.00    +0.000 A 
ATOM     11  C   UNL     1       1.164   9.197  19.149  0.00  0.00    +0.000 A 
ATOM     12  C   UNL     1       0.919   9.868  20.360  0.00  0.00    +0.000 A 
ATOM     13  C   UNL     1      -0.154  10.758  20.506  0.00  0.00    +0.000 A 
BRANCH   8  15
ATOM     14  C   UNL     1      -3.143  11.644  18.616  0.00  0.00    +0.000 C 
ATOM     15  O   UNL     1      -2.138  11.745  19.622  0.00  0.00    +0.000 OA
ENDBRANCH   8  15
BRANCH  13  16
ATOM     16  O   UNL     1      -0.244  11.310  21.760  0.00  0.00    +0.000 OA
ATOM     17  C   UNL     1      -0.657  10.436  22.806  0.00  0.00    +0.000 C 
ENDBRANCH  13  16
ENDBRANCH   1  11
BRANCH   6  18
ATOM     18  C   UNL     1       1.682   4.885  20.646  0.00  0.00    +0.000 A 
ATOM     19  C   UNL     1       0.888   3.918  19.928  0.00  0.00    +0.000 A 
ATOM     20  N   UNL     1       1.014   2.644  20.317  0.00  0.00    +0.000 NA
ATOM     21  S   UNL     1       2.161   2.686  21.530  0.00  0.00    +0.000 S 
ATOM     22  N   UNL     1       2.490   4.324  21.564  0.00  0.00    +0.000 NA
ENDBRANCH   6  18
TORSDOF 4
ENDMDL
MODEL 8
REMARK VINA RESULT:      -6.0      3.383      6.762
REMARK  Name = 
REMARK  6 active torsions:
REMARK  status: ('A' for Active; 'I' for Inactive)
REMARK    1  A    between atoms: C_1  and  O_2
REMARK    2  A    between atoms: O_2  and  C_3
REMARK    3  A    between atoms: C_6  and  C_7
REMARK    4  A    between atoms: C_12  and  C_14
REMARK    5  A    between atoms: C_20  and  O_21
REMARK    6  A    between atoms: O_21  and  C_22
REMARK                            x       y       z     vdW  Elec       q    Type
REMARK                         _______ _______ _______ _____ _____    ______ ____
ROOT
ATOM      1  C   UNL     1       1.987   6.010  19.375  0.00  0.00    +0.000 C 
ATOM      2  C   UNL     1       1.451   5.151  20.530  0.00  0.00    +0.000 C 
ATOM      3  C   UNL     1       2.208   3.845  20.375  0.00  0.00    +0.000 C 
ATOM      4  C   UNL     1       3.569   4.274  19.846  0.00  0.00    +0.000 C 
ATOM      5  N   UNL     1       3.395   5.617  19.296  0.00  0.00    +0.000 N 
ATOM      6  C   UNL     1       4.283   6.206  18.390  0.00  0.00    +0.000 C 
ATOM      7  O   UNL     1       3.970   7.198  17.734  0.00  0.00    +0.000 OA
ENDROOT
BRANCH   1  11
ATOM      8  C   UNL     1       1.147  10.203  20.123  0.00  0.00    +0.000 A 
ATOM      9  C   UNL     1       1.300   9.733  18.812  0.00  0.00    +0.000 A 
ATOM     10  C   UNL     1       1.541   8.380  18.555  0.00  0.00    +0.000 A 
ATOM     11  C   UNL     1       1.670   7.469  19.606  0.00  0.00    +0.000 A 
ATOM     12  C   UNL     1       1.572   7.957  20.921  0.00  0.00    +0.000 A 
ATOM     13  C   UNL     1       1.338   9.313  21.188  0.00  0.00    +0.000 A 
BRANCH   8  15
ATOM     14  C   UNL     1       1.007  12.420  19.320  0.00  0.00    +0.000 C 
ATOM     15  O   UNL     1       0.821  11.503  20.395  0.00  0.00    +0.000 OA
ENDBRANCH   8  15
BRANCH  13  16
ATOM     16  O   UNL     1       1.262   9.604  22.528  0.00  0.00    +0.000 OA
ATOM     17  C   UNL     1      -0.033   9.531  23.116  0.00  0.00    +0.000 C 
ENDBRANCH  13  16
ENDBRANCH   1  11
BRANCH   6  18
ATOM     18  C   UNL     1       5.609   5.590  18.170  0.00  0.00    +0.000 A 
ATOM     19  C   UNL     1       6.647   5.586  19.172  0.00  0.00    +0.000 A 
ATOM     20  N   UNL     1       7.818   5.052  18.807  0.00  0.00    +0.000 NA
ATOM     21  S   UNL     1       7.570   4.522  17.244  0.00  0.00    +0.000 S 
ATOM     22  N   UNL     1       5.977   4.978  17.030  0.00  0.00    +0.000 NA
ENDBRANCH   6  18
TORSDOF 4
ENDMDL
MODEL 9
REMARK VINA RESULT:      -6.0      4.017      6.903
REMARK  Name = 
REMARK  6 active torsions:
REMARK  status: ('A' for Active; 'I' for Inactive)
REMARK    1  A    between atoms: C_1  and  O_2
REMARK    2  A    between atoms: O_2  and  C_3
REMARK    3  A    between atoms: C_6  and  C_7
REMARK    4  A    between atoms: C_12  and  C_14
REMARK    5  A    between atoms: C_20  and  O_21
REMARK    6  A    between atoms: O_21  and  C_22
REMARK                            x       y       z     vdW  Elec       q    Type
REMARK                         _______ _______ _______ _____ _____    ______ ____
ROOT
ATOM      1  C   UNL     1       6.389   4.718  18.500  0.00  0.00    +0.000 C 
ATOM      2  C   UNL     1       6.796   6.020  19.206  0.00  0.00    +0.000 C 
ATOM      3  C   UNL     1       7.905   6.563  18.325  0.00  0.00    +0.000 C 
ATOM      4  C   UNL     1       7.496   6.140  16.923  0.00  0.00    +0.000 C 
ATOM      5  N   UNL     1       6.534   5.052  17.082  0.00  0.00    +0.000 N 
ATOM      6  C   UNL     1       6.211   4.146  16.067  0.00  0.00    +0.000 C 
ATOM      7  O   UNL     1       5.630   3.088  16.308  0.00  0.00    +0.000 OA
ENDROOT
BRANCH   1  11
ATOM      8  C   UNL     1       2.454   3.457  19.832  0.00  0.00    +0.000 A 
ATOM      9  C   UNL     1       3.417   2.507  19.465  0.00  0.00    +0.000 A 
ATOM     10  C   UNL     1       4.698   2.898  19.063  0.00  0.00    +0.000 A 
ATOM     11  C   UNL     1       5.036   4.251  18.984  0.00  0.00    +0.000 A 
ATOM     12  C   UNL     1       4.048   5.200  19.299  0.00  0.00    +0.000 A 
ATOM     13  C   UNL     1       2.759   4.818  19.695  0.00  0.00    +0.000 A 
BRANCH   8  15
ATOM     14  C   UNL     1       1.194   2.723  21.690  0.00  0.00    +0.000 C 
ATOM     15  O   UNL     1       1.226   3.097  20.315  0.00  0.00    +0.000 OA
ENDBRANCH   8  15
BRANCH  13  16
ATOM     16  O   UNL     1       1.932   5.878  19.973  0.00  0.00    +0.000 OA
ATOM     17  C   UNL     1       2.349   7.148  19.482  0.00  0.00    +0.000 C 
ENDBRANCH  13  16
ENDBRANCH   1  11
BRANCH   6  18
ATOM     18  C   UNL     1       6.627   4.435  14.678  0.00  0.00    +0.000 A 
ATOM     19  C   UNL     1       6.092   3.731  13.538  0.00  0.00    +0.000 A 
ATOM     20  N   UNL     1       6.612   4.052  12.348  0.00  0.00    +0.000 NA
ATOM     21  S   UNL     1       7.713   5.261  12.683  0.00  0.00    +0.000 S 
ATOM     22  N   UNL     1       7.533   5.370  14.340  0.00  0.00    +0.000 NA
ENDBRANCH   6  18
TORSDOF 4
ENDMDL
