MODEL 1
REMARK VINA RESULT:      -7.0      0.000      0.000
REMARK  Name = 
REMARK  7 active torsions:
REMARK  status: ('A' for Active; 'I' for Inactive)
REMARK    1  A    between atoms: C_1  and  C_2
REMARK    2  A    between atoms: C_2  and  C_3
REMARK    3  A    between atoms: C_3  and  C_4
REMARK    4  A    between atoms: C_4  and  C_5
REMARK    5  A    between atoms: C_5  and  C_6
REMARK    6  A    between atoms: C_6  and  N_7
REMARK    7  A    between atoms: C_10  and  O_11
REMARK                            x       y       z     vdW  Elec       q    Type
REMARK                         _______ _______ _______ _____ _____    ______ ____
ROOT
ATOM      1  N   UNL     1       5.439   3.527  17.967  0.00  0.00    +0.000 N 
ATOM      2  C   UNL     1       4.186   3.477  18.571  0.00  0.00    +0.000 A 
ATOM      3  N   UNL     1       3.090   3.733  17.825  0.00  0.00    +0.000 NA
ATOM      4  C   UNL     1       1.895   3.617  18.403  0.00  0.00    +0.000 A 
ATOM      5  C   UNL     1       1.807   3.253  19.712  0.00  0.00    +0.000 A 
ATOM      6  N   UNL     1       0.794   3.023  20.591  0.00  0.00    +0.000 N 
ATOM      7  C   UNL     1       1.368   2.675  21.784  0.00  0.00    +0.000 A 
ATOM      8  N   UNL     1       2.684   2.676  21.711  0.00  0.00    +0.000 NA
ATOM      9  C   UNL     1       2.968   3.029  20.415  0.00  0.00    +0.000 A 
ATOM     10  N   UNL     1       4.193   3.145  19.869  0.00  0.00    +0.000 NA
ATOM     11  H   UNL     1       6.130   3.611  18.704  0.00  0.00    +0.000 HD
ATOM     12  H   UNL     1      -0.196   3.088  20.392  0.00  0.00    +0.000 HD
ENDROOT
BRANCH   4  13
ATOM     13  O   UNL     1       0.811   3.861  17.616  0.00  0.00    +0.000 OA
ATOM     14  H   UNL     1       1.183   3.653  16.740  0.00  0.00    +0.000 HD
ENDBRANCH   4  13
BRANCH   1  15
ATOM     15  C   UNL     1       5.586   4.408  16.822  0.00  0.00    +0.000 C 
BRANCH  15  16
ATOM     16  C   UNL     1       7.052   4.822  16.639  0.00  0.00    +0.000 C 
BRANCH  16  17
ATOM     17  C   UNL     1       7.815   4.916  17.967  0.00  0.00    +0.000 C 
BRANCH  17  18
ATOM     18  C   UNL     1       7.690   6.305  18.603  0.00  0.00    +0.000 C 
BRANCH  18  20
ATOM     19  C   UNL     1       8.196   8.680  17.907  0.00  0.00    +0.000 C 
ATOM     20  C   UNL     1       7.494   7.384  17.536  0.00  0.00    +0.000 C 
ENDBRANCH  18  20
ENDBRANCH  17  18
ENDBRANCH  16  17
ENDBRANCH  15  16
ENDBRANCH   1  15
TORSDOF 6
ENDMDL
MODEL 2
REMARK VINA RESULT:      -7.0      2.852      6.553
REMARK  Name = 
REMARK  7 active torsions:
REMARK  status: ('A' for Active; 'I' for Inactive)
REMARK    1  A    between atoms: C_1  and  C_2
REMARK    2  A    between atoms: C_2  and  C_3
REMARK    3  A    between atoms: C_3  and  C_4
REMARK    4  A    between atoms: C_4  and  C_5
REMARK    5  A    between atoms: C_5  and  C_6
REMARK    6  A    between atoms: C_6  and  N_7
REMARK    7  A    between atoms: C_10  and  O_11
REMARK                            x       y       z     vdW  Elec       q    Type
REMARK                         _______ _______ _______ _____ _____    ______ ____
ROOT
ATOM      1  N   UNL     1       4.964   3.715  17.533  0.00  0.00    +0.000 N 
ATOM      2  C   UNL     1       5.843   4.700  17.973  0.00  0.00    +0.000 A 
ATOM      3  N   UNL     1       6.488   4.524  19.147  0.00  0.00    +0.000 NA
ATOM      4  C   UNL     1       7.375   5.446  19.521  0.00  0.00    +0.000 A 
ATOM      5  C   UNL     1       7.606   6.527  18.727  0.00  0.00    +0.000 A 
ATOM      6  N   UNL     1       8.425   7.613  18.776  0.00  0.00    +0.000 N 
ATOM      7  C   UNL     1       8.183   8.350  17.648  0.00  0.00    +0.000 A 
ATOM      8  N   UNL     1       7.258   7.796  16.892  0.00  0.00    +0.000 NA
ATOM      9  C   UNL     1       6.895   6.649  17.554  0.00  0.00    +0.000 A 
ATOM     10  N   UNL     1       5.985   5.745  17.148  0.00  0.00    +0.000 NA
ATOM     11  H   UNL     1       4.367   4.131  16.828  0.00  0.00    +0.000 HD
ATOM     12  H   UNL     1       9.091   7.825  19.507  0.00  0.00    +0.000 HD
ENDROOT
BRANCH   4  13
ATOM     13  O   UNL     1       8.021   5.226  20.698  0.00  0.00    +0.000 OA
ATOM     14  H   UNL     1       7.980   4.253  20.740  0.00  0.00    +0.000 HD
ENDBRANCH   4  13
BRANCH   1  15
ATOM     15  C   UNL     1       4.316   2.905  18.551  0.00  0.00    +0.000 C 
BRANCH  15  16
ATOM     16  C   UNL     1       3.063   2.223  17.986  0.00  0.00    +0.000 C 
BRANCH  16  17
ATOM     17  C   UNL     1       1.786   3.045  18.207  0.00  0.00    +0.000 C 
BRANCH  17  18
ATOM     18  C   UNL     1       1.957   4.082  19.323  0.00  0.00    +0.000 C 
BRANCH  18  20
ATOM     19  C   UNL     1       1.563   2.738  21.426  0.00  0.00    +0.000 C 
ATOM     20  C   UNL     1       1.007   3.798  20.488  0.00  0.00    +0.000 C 
ENDBRANCH  18  20
ENDBRANCH  17  18
ENDBRANCH  16  17
ENDBRANCH  15  16
ENDBRANCH   1  15
TORSDOF 6
ENDMDL
MODEL 3
REMARK VINA RESULT:      -6.9      2.221      3.458
REMARK  Name = 
REMARK  7 active torsions:
REMARK  status: ('A' for Active; 'I' for Inactive)
REMARK    1  A    between atoms: C_1  and  C_2
REMARK    2  A    between atoms: C_2  and  C_3
REMARK    3  A    between atoms: C_3  and  C_4
REMARK    4  A    between atoms: C_4  and  C_5
REMARK    5  A    between atoms: C_5  and  C_6
REMARK    6  A    between atoms: C_6  and  N_7
REMARK    7  A    between atoms: C_10  and  O_11
REMARK                            x       y       z     vdW  Elec       q    Type
REMARK                         _______ _______ _______ _____ _____    ______ ____
ROOT
ATOM      1  N   UNL     1       5.723   3.934  17.687  0.00  0.00    +0.000 N 
ATOM      2  C   UNL     1       4.451   3.809  18.238  0.00  0.00    +0.000 A 
ATOM      3  N   UNL     1       3.377   4.123  17.481  0.00  0.00    +0.000 NA
ATOM      4  C   UNL     1       2.165   3.935  18.002  0.00  0.00    +0.000 A 
ATOM      5  C   UNL     1       2.037   3.442  19.264  0.00  0.00    +0.000 A 
ATOM      6  N   UNL     1       0.999   3.112  20.079  0.00  0.00    +0.000 N 
ATOM      7  C   UNL     1       1.537   2.655  21.252  0.00  0.00    +0.000 A 
ATOM      8  N   UNL     1       2.854   2.681  21.227  0.00  0.00    +0.000 NA
ATOM      9  C   UNL     1       3.178   3.164  19.983  0.00  0.00    +0.000 A 
ATOM     10  N   UNL     1       4.418   3.350  19.495  0.00  0.00    +0.000 NA
ATOM     11  H   UNL     1       6.386   3.954  18.452  0.00  0.00    +0.000 HD
ATOM     12  H   UNL     1       0.015   3.184  19.852  0.00  0.00    +0.000 HD
ENDROOT
BRANCH   4  13
ATOM     13  O   UNL     1       1.105   4.241  17.204  0.00  0.00    +0.000 OA
ATOM     14  H   UNL     1       1.056   3.432  16.663  0.00  0.00    +0.000 HD
ENDBRANCH   4  13
BRANCH   1  15
ATOM     15  C   UNL     1       5.895   4.927  16.640  0.00  0.00    +0.000 C 
BRANCH  15  16
ATOM     16  C   UNL     1       6.615   4.320  15.428  0.00  0.00    +0.000 C 
BRANCH  16  17
ATOM     17  C   UNL     1       5.658   3.969  14.281  0.00  0.00    +0.000 C 
BRANCH  17  18
ATOM     18  C   UNL     1       6.384   3.886  12.934  0.00  0.00    +0.000 C 
BRANCH  18  20
ATOM     19  C   UNL     1       4.392   3.281  11.502  0.00  0.00    +0.000 C 
ATOM     20  C   UNL     1       5.745   2.830  12.029  0.00  0.00    +0.000 C 
ENDBRANCH  18  20
ENDBRANCH  17  18
ENDBRANCH  16  17
ENDBRANCH  15  16
ENDBRANCH   1  15
TORSDOF 6
ENDMDL
MODEL 4
REMARK VINA RESULT:      -6.9      4.112      6.157
REMARK  Name = 
REMARK  7 active torsions:
REMARK  status: ('A' for Active; 'I' for Inactive)
REMARK    1  A    between atoms: C_1  and  C_2
REMARK    2  A    between atoms: C_2  and  C_3
REMARK    3  A    between atoms: C_3  and  C_4
REMARK    4  A    between atoms: C_4  and  C_5
REMARK    5  A    between atoms: C_5  and  C_6
REMARK    6  A    between atoms: C_6  and  N_7
REMARK    7  A    between atoms: C_10  and  O_11
REMARK                            x       y       z     vdW  Elec       q    Type
REMARK                         _______ _______ _______ _____ _____    ______ ____
ROOT
ATOM      1  N   UNL     1       6.610   3.618  14.424  0.00  0.00    +0.000 N 
ATOM      2  C   UNL     1       6.334   4.155  15.677  0.00  0.00    +0.000 A 
ATOM      3  N   UNL     1       5.048   4.379  16.024  0.00  0.00    +0.000 NA
ATOM      4  C   UNL     1       4.799   4.833  17.252  0.00  0.00    +0.000 A 
ATOM      5  C   UNL     1       5.827   5.059  18.114  0.00  0.00    +0.000 A 
ATOM      6  N   UNL     1       5.942   5.482  19.403  0.00  0.00    +0.000 N 
ATOM      7  C   UNL     1       7.276   5.497  19.704  0.00  0.00    +0.000 A 
ATOM      8  N   UNL     1       8.012   5.112  18.681  0.00  0.00    +0.000 NA
ATOM      9  C   UNL     1       7.114   4.828  17.683  0.00  0.00    +0.000 A 
ATOM     10  N   UNL     1       7.406   4.379  16.448  0.00  0.00    +0.000 NA
ATOM     11  H   UNL     1       7.587   3.798  14.222  0.00  0.00    +0.000 HD
ATOM     12  H   UNL     1       5.178   5.729  20.020  0.00  0.00    +0.000 HD
ENDROOT
BRANCH   4  13
ATOM     13  O   UNL     1       3.491   5.027  17.575  0.00  0.00    +0.000 OA
ATOM     14  H   UNL     1       3.490   4.702  18.494  0.00  0.00    +0.000 HD
ENDBRANCH   4  13
BRANCH   1  15
ATOM     15  C   UNL     1       5.657   3.894  13.362  0.00  0.00    +0.000 C 
BRANCH  15  16
ATOM     16  C   UNL     1       6.102   3.238  12.048  0.00  0.00    +0.000 C 
BRANCH  16  17
ATOM     17  C   UNL     1       4.945   2.571  11.293  0.00  0.00    +0.000 C 
BRANCH  17  18
ATOM     18  C   UNL     1       3.726   3.493  11.180  0.00  0.00    +0.000 C 
BRANCH  18  20
ATOM     19  C   UNL     1       2.586   4.680   9.264  0.00  0.00    +0.000 C 
ATOM     20  C   UNL     1       3.044   3.341   9.819  0.00  0.00    +0.000 C 
ENDBRANCH  18  20
ENDBRANCH  17  18
ENDBRANCH  16  17
ENDBRANCH  15  16
ENDBRANCH   1  15
TORSDOF 6
ENDMDL
MODEL 5
REMARK VINA RESULT:      -6.7      2.435      3.742
REMARK  Name = 
REMARK  7 active torsions:
REMARK  status: ('A' for Active; 'I' for Inactive)
REMARK    1  A    between atoms: C_1  and  C_2
REMARK    2  A    between atoms: C_2  and  C_3
REMARK    3  A    between atoms: C_3  and  C_4
REMARK    4  A    between atoms: C_4  and  C_5
REMARK    5  A    between atoms: C_5  and  C_6
REMARK    6  A    between atoms: C_6  and  N_7
REMARK    7  A    between atoms: C_10  and  O_11
REMARK                            x       y       z     vdW  Elec       q    Type
REMARK                         _______ _______ _______ _____ _____    ______ ____
ROOT
ATOM      1  N   UNL     1       5.179   5.840  17.822  0.00  0.00    +0.000 N 
ATOM      2  C   UNL     1       4.458   4.710  18.198  0.00  0.00    +0.000 A 
ATOM      3  N   UNL     1       5.078   3.747  18.914  0.00  0.00    +0.000 NA
ATOM      4  C   UNL     1       4.356   2.704  19.322  0.00  0.00    +0.000 A 
ATOM      5  C   UNL     1       3.032   2.632  19.012  0.00  0.00    +0.000 A 
ATOM      6  N   UNL     1       2.019   1.761  19.269  0.00  0.00    +0.000 N 
ATOM      7  C   UNL     1       0.895   2.262  18.670  0.00  0.00    +0.000 A 
ATOM      8  N   UNL     1       1.140   3.397  18.046  0.00  0.00    +0.000 NA
ATOM      9  C   UNL     1       2.474   3.641  18.261  0.00  0.00    +0.000 A 
ATOM     10  N   UNL     1       3.172   4.705  17.823  0.00  0.00    +0.000 NA
ATOM     11  H   UNL     1       4.672   6.287  17.067  0.00  0.00    +0.000 HD
ATOM     12  H   UNL     1       2.087   0.908  19.811  0.00  0.00    +0.000 HD
ENDROOT
BRANCH   4  13
ATOM     13  O   UNL     1       5.007   1.763  20.059  0.00  0.00    +0.000 OA
ATOM     14  H   UNL     1       4.342   1.051  20.056  0.00  0.00    +0.000 HD
ENDBRANCH   4  13
BRANCH   1  15
ATOM     15  C   UNL     1       6.612   5.682  17.650  0.00  0.00    +0.000 C 
BRANCH  15  16
ATOM     16  C   UNL     1       6.979   5.627  16.161  0.00  0.00    +0.000 C 
BRANCH  16  17
ATOM     17  C   UNL     1       6.712   4.253  15.532  0.00  0.00    +0.000 C 
BRANCH  17  18
ATOM     18  C   UNL     1       5.703   4.334  14.382  0.00  0.00    +0.000 C 
BRANCH  18  20
ATOM     19  C   UNL     1       5.160   3.339  12.124  0.00  0.00    +0.000 C 
ATOM     20  C   UNL     1       6.262   3.690  13.111  0.00  0.00    +0.000 C 
ENDBRANCH  18  20
ENDBRANCH  17  18
ENDBRANCH  16  17
ENDBRANCH  15  16
ENDBRANCH   1  15
TORSDOF 6
ENDMDL
MODEL 6
REMARK VINA RESULT:      -6.7      0.729      1.122
REMARK  Name = 
REMARK  7 active torsions:
REMARK  status: ('A' for Active; 'I' for Inactive)
REMARK    1  A    between atoms: C_1  and  C_2
REMARK    2  A    between atoms: C_2  and  C_3
REMARK    3  A    between atoms: C_3  and  C_4
REMARK    4  A    between atoms: C_4  and  C_5
REMARK    5  A    between atoms: C_5  and  C_6
REMARK    6  A    between atoms: C_6  and  N_7
REMARK    7  A    between atoms: C_10  and  O_11
REMARK                            x       y       z     vdW  Elec       q    Type
REMARK                         _______ _______ _______ _____ _____    ______ ____
ROOT
ATOM      1  N   UNL     1       5.877   3.693  18.556  0.00  0.00    +0.000 N 
ATOM      2  C   UNL     1       4.545   3.652  18.958  0.00  0.00    +0.000 A 
ATOM      3  N   UNL     1       3.588   4.036  18.086  0.00  0.00    +0.000 NA
ATOM      4  C   UNL     1       2.314   3.927  18.463  0.00  0.00    +0.000 A 
ATOM      5  C   UNL     1       2.012   3.444  19.699  0.00  0.00    +0.000 A 
ATOM      6  N   UNL     1       0.867   3.184  20.389  0.00  0.00    +0.000 N 
ATOM      7  C   UNL     1       1.237   2.693  21.612  0.00  0.00    +0.000 A 
ATOM      8  N   UNL     1       2.547   2.633  21.737  0.00  0.00    +0.000 NA
ATOM      9  C   UNL     1       3.042   3.093  20.542  0.00  0.00    +0.000 A 
ATOM     10  N   UNL     1       4.339   3.197  20.200  0.00  0.00    +0.000 NA
ATOM     11  H   UNL     1       6.449   3.670  19.393  0.00  0.00    +0.000 HD
ATOM     12  H   UNL     1      -0.077   3.320  20.051  0.00  0.00    +0.000 HD
ENDROOT
BRANCH   4  13
ATOM     13  O   UNL     1       1.375   4.302  17.552  0.00  0.00    +0.000 OA
ATOM     14  H   UNL     1       0.901   4.984  18.063  0.00  0.00    +0.000 HD
ENDBRANCH   4  13
BRANCH   1  15
ATOM     15  C   UNL     1       6.232   4.672  17.543  0.00  0.00    +0.000 C 
BRANCH  15  16
ATOM     16  C   UNL     1       7.423   5.524  18.003  0.00  0.00    +0.000 C 
BRANCH  16  17
ATOM     17  C   UNL     1       7.411   6.937  17.406  0.00  0.00    +0.000 C 
BRANCH  17  18
ATOM     18  C   UNL     1       8.197   7.930  18.268  0.00  0.00    +0.000 C 
BRANCH  18  20
ATOM     19  C   UNL     1       8.978  10.326  18.457  0.00  0.00    +0.000 C 
ATOM     20  C   UNL     1       8.062   9.356  17.728  0.00  0.00    +0.000 C 
ENDBRANCH  18  20
ENDBRANCH  17  18
ENDBRANCH  16  17
ENDBRANCH  15  16
ENDBRANCH   1  15
TORSDOF 6
ENDMDL
MODEL 7
REMARK VINA RESULT:      -6.7      2.112      2.855
REMARK  Name = 
REMARK  7 active torsions:
REMARK  status: ('A' for Active; 'I' for Inactive)
REMARK    1  A    between atoms: C_1  and  C_2
REMARK    2  A    between atoms: C_2  and  C_3
REMARK    3  A    between atoms: C_3  and  C_4
REMARK    4  A    between atoms: C_4  and  C_5
REMARK    5  A    between atoms: C_5  and  C_6
REMARK    6  A    between atoms: C_6  and  N_7
REMARK    7  A    between atoms: C_10  and  O_11
REMARK                            x       y       z     vdW  Elec       q    Type
REMARK                         _______ _______ _______ _____ _____    ______ ____
ROOT
ATOM      1  N   UNL     1       5.419   5.854  18.392  0.00  0.00    +0.000 N 
ATOM      2  C   UNL     1       4.658   4.707  18.596  0.00  0.00    +0.000 A 
ATOM      3  N   UNL     1       5.208   3.665  19.257  0.00  0.00    +0.000 NA
ATOM      4  C   UNL     1       4.444   2.602  19.502  0.00  0.00    +0.000 A 
ATOM      5  C   UNL     1       3.149   2.586  19.085  0.00  0.00    +0.000 A 
ATOM      6  N   UNL     1       2.108   1.714  19.175  0.00  0.00    +0.000 N 
ATOM      7  C   UNL     1       1.040   2.295  18.545  0.00  0.00    +0.000 A 
ATOM      8  N   UNL     1       1.347   3.480  18.058  0.00  0.00    +0.000 NA
ATOM      9  C   UNL     1       2.663   3.676  18.398  0.00  0.00    +0.000 A 
ATOM     10  N   UNL     1       3.405   4.764  18.124  0.00  0.00    +0.000 NA
ATOM     11  H   UNL     1       4.979   6.384  17.649  0.00  0.00    +0.000 HD
ATOM     12  H   UNL     1       2.123   0.811  19.632  0.00  0.00    +0.000 HD
ENDROOT
BRANCH   4  13
ATOM     13  O   UNL     1       5.025   1.579  20.188  0.00  0.00    +0.000 OA
ATOM     14  H   UNL     1       4.423   0.850  19.953  0.00  0.00    +0.000 HD
ENDBRANCH   4  13
BRANCH   1  15
ATOM     15  C   UNL     1       6.860   5.685  18.316  0.00  0.00    +0.000 C 
BRANCH  15  16
ATOM     16  C   UNL     1       7.446   6.526  17.174  0.00  0.00    +0.000 C 
BRANCH  16  17
ATOM     17  C   UNL     1       7.381   8.034  17.449  0.00  0.00    +0.000 C 
BRANCH  17  18
ATOM     18  C   UNL     1       8.461   8.483  18.440  0.00  0.00    +0.000 C 
BRANCH  18  20
ATOM     19  C   UNL     1       9.507  10.522  19.503  0.00  0.00    +0.000 C 
ATOM     20  C   UNL     1       8.744   9.981  18.305  0.00  0.00    +0.000 C 
ENDBRANCH  18  20
ENDBRANCH  17  18
ENDBRANCH  16  17
ENDBRANCH  15  16
ENDBRANCH   1  15
TORSDOF 6
ENDMDL
MODEL 8
REMARK VINA RESULT:      -6.7      2.329      6.084
REMARK  Name = 
REMARK  7 active torsions:
REMARK  status: ('A' for Active; 'I' for Inactive)
REMARK    1  A    between atoms: C_1  and  C_2
REMARK    2  A    between atoms: C_2  and  C_3
REMARK    3  A    between atoms: C_3  and  C_4
REMARK    4  A    between atoms: C_4  and  C_5
REMARK    5  A    between atoms: C_5  and  C_6
REMARK    6  A    between atoms: C_6  and  N_7
REMARK    7  A    between atoms: C_10  and  O_11
REMARK                            x       y       z     vdW  Elec       q    Type
REMARK                         _______ _______ _______ _____ _____    ______ ____
ROOT
ATOM      1  N   UNL     1       4.521   3.197  18.557  0.00  0.00    +0.000 N 
ATOM      2  C   UNL     1       5.246   4.285  18.079  0.00  0.00    +0.000 A 
ATOM      3  N   UNL     1       4.881   4.849  16.907  0.00  0.00    +0.000 NA
ATOM      4  C   UNL     1       5.544   5.930  16.498  0.00  0.00    +0.000 A 
ATOM      5  C   UNL     1       6.558   6.432  17.254  0.00  0.00    +0.000 A 
ATOM      6  N   UNL     1       7.407   7.492  17.164  0.00  0.00    +0.000 N 
ATOM      7  C   UNL     1       8.214   7.456  18.268  0.00  0.00    +0.000 A 
ATOM      8  N   UNL     1       7.928   6.434  19.049  0.00  0.00    +0.000 NA
ATOM      9  C   UNL     1       6.887   5.791  18.427  0.00  0.00    +0.000 A 
ATOM     10  N   UNL     1       6.248   4.692  18.869  0.00  0.00    +0.000 NA
ATOM     11  H   UNL     1       5.093   2.731  19.252  0.00  0.00    +0.000 HD
ATOM     12  H   UNL     1       7.426   8.180  16.422  0.00  0.00    +0.000 HD
ENDROOT
BRANCH   4  13
ATOM     13  O   UNL     1       5.137   6.485  15.323  0.00  0.00    +0.000 OA
ATOM     14  H   UNL     1       5.357   5.764  14.706  0.00  0.00    +0.000 HD
ENDBRANCH   4  13
BRANCH   1  15
ATOM     15  C   UNL     1       3.867   2.355  17.571  0.00  0.00    +0.000 C 
BRANCH  15  16
ATOM     16  C   UNL     1       2.341   2.447  17.704  0.00  0.00    +0.000 C 
BRANCH  16  17
ATOM     17  C   UNL     1       1.835   2.017  19.088  0.00  0.00    +0.000 C 
BRANCH  17  18
ATOM     18  C   UNL     1       0.818   3.008  19.661  0.00  0.00    +0.000 C 
BRANCH  18  20
ATOM     19  C   UNL     1       2.445   2.762  21.578  0.00  0.00    +0.000 C 
ATOM     20  C   UNL     1       1.289   3.567  21.005  0.00  0.00    +0.000 C 
ENDBRANCH  18  20
ENDBRANCH  17  18
ENDBRANCH  16  17
ENDBRANCH  15  16
ENDBRANCH   1  15
TORSDOF 6
ENDMDL
MODEL 9
REMARK VINA RESULT:      -6.6      1.999      2.581
REMARK  Name = 
REMARK  7 active torsions:
REMARK  status: ('A' for Active; 'I' for Inactive)
REMARK    1  A    between atoms: C_1  and  C_2
REMARK    2  A    between atoms: C_2  and  C_3
REMARK    3  A    between atoms: C_3  and  C_4
REMARK    4  A    between atoms: C_4  and  C_5
REMARK    5  A    between atoms: C_5  and  C_6
REMARK    6  A    between atoms: C_6  and  N_7
REMARK    7  A    between atoms: C_10  and  O_11
REMARK                            x       y       z     vdW  Elec       q    Type
REMARK                         _______ _______ _______ _____ _____    ______ ____
ROOT
ATOM      1  N   UNL     1       5.565   5.927  18.593  0.00  0.00    +0.000 N 
ATOM      2  C   UNL     1       4.746   4.933  19.118  0.00  0.00    +0.000 A 
ATOM      3  N   UNL     1       5.245   3.687  19.272  0.00  0.00    +0.000 NA
ATOM      4  C   UNL     1       4.468   2.764  19.836  0.00  0.00    +0.000 A 
ATOM      5  C   UNL     1       3.208   3.089  20.236  0.00  0.00    +0.000 A 
ATOM      6  N   UNL     1       2.182   2.435  20.845  0.00  0.00    +0.000 N 
ATOM      7  C   UNL     1       1.157   3.332  20.980  0.00  0.00    +0.000 A 
ATOM      8  N   UNL     1       1.474   4.513  20.488  0.00  0.00    +0.000 NA
ATOM      9  C   UNL     1       2.760   4.373  20.027  0.00  0.00    +0.000 A 
ATOM     10  N   UNL     1       3.511   5.330  19.452  0.00  0.00    +0.000 NA
ATOM     11  H   UNL     1       4.966   6.680  18.274  0.00  0.00    +0.000 HD
ATOM     12  H   UNL     1       2.185   1.470  21.148  0.00  0.00    +0.000 HD
ENDROOT
BRANCH   4  13
ATOM     13  O   UNL     1       5.011   1.526  19.996  0.00  0.00    +0.000 OA
ATOM     14  H   UNL     1       5.116   1.507  20.965  0.00  0.00    +0.000 HD
ENDBRANCH   4  13
BRANCH   1  15
ATOM     15  C   UNL     1       6.626   5.504  17.695  0.00  0.00    +0.000 C 
BRANCH  15  16
ATOM     16  C   UNL     1       7.394   6.716  17.151  0.00  0.00    +0.000 C 
BRANCH  16  17
ATOM     17  C   UNL     1       8.056   7.549  18.257  0.00  0.00    +0.000 C 
BRANCH  17  18
ATOM     18  C   UNL     1       8.103   9.039  17.903  0.00  0.00    +0.000 C 
BRANCH  18  20
ATOM     19  C   UNL     1       9.431  11.153  18.291  0.00  0.00    +0.000 C 
ATOM     20  C   UNL     1       9.022   9.803  18.859  0.00  0.00    +0.000 C 
ENDBRANCH  18  20
ENDBRANCH  17  18
ENDBRANCH  16  17
ENDBRANCH  15  16
ENDBRANCH   1  15
TORSDOF 6
ENDMDL
