MODEL 1
REMARK VINA RESULT:      -9.6      0.000      0.000
REMARK  Name = 
REMARK  7 active torsions:
REMARK  status: ('A' for Active; 'I' for Inactive)
REMARK    1  A    between atoms: C_8  and  N_9
REMARK    2  A    between atoms: N_9  and  C_10
REMARK    3  A    between atoms: C_10  and  C_11
REMARK    4  A    between atoms: C_14  and  C_15
REMARK    5  A    between atoms: C_15  and  C_16
REMARK    6  A    between atoms: C_16  and  N_17
REMARK    7  A    between atoms: C_18  and  C_20
REMARK                            x       y       z     vdW  Elec       q    Type
REMARK                         _______ _______ _______ _____ _____    ______ ____
ROOT
ATOM      1  C   UNL     1       1.860   6.650  19.634  0.00  0.00    +0.000 A 
ATOM      2  C   UNL     1       1.927   6.140  18.334  0.00  0.00    +0.000 A 
ATOM      3  C   UNL     1       1.882   4.765  18.110  0.00  0.00    +0.000 A 
ATOM      4  C   UNL     1       1.763   3.862  19.170  0.00  0.00    +0.000 A 
ATOM      5  C   UNL     1       1.684   4.377  20.478  0.00  0.00    +0.000 A 
ATOM      6  C   UNL     1       1.730   5.761  20.702  0.00  0.00    +0.000 A 
ENDROOT
BRANCH   1   7
ATOM      7  C   UNL     1       1.878   8.143  19.850  0.00  0.00    +0.000 C 
BRANCH   7   8
ATOM      8  N   UNL     1       1.686   8.424  21.259  0.00  0.00    +0.000 N 
ATOM      9  H   UNL     1       1.675   7.586  21.839  0.00  0.00    +0.000 HD
BRANCH   8  17
ATOM     10  N   UNL     1      -3.392  14.125  22.255  0.00  0.00    +0.000 N 
ATOM     11  C   UNL     1      -2.435  13.201  21.893  0.00  0.00    +0.000 A 
ATOM     12  N   UNL     1      -1.929  13.319  20.660  0.00  0.00    +0.000 NA
ATOM     13  C   UNL     1      -1.012  12.417  20.286  0.00  0.00    +0.000 A 
ATOM     14  N   UNL     1      -0.551  12.538  18.971  0.00  0.00    +0.000 N 
ATOM     15  C   UNL     1      -0.588  11.377  21.125  0.00  0.00    +0.000 A 
ATOM     16  C   UNL     1       0.395  10.398  20.793  0.00  0.00    +0.000 A 
ATOM     17  C   UNL     1       0.759   9.377  21.679  0.00  0.00    +0.000 A 
ATOM     18  C   UNL     1       0.062   9.313  22.884  0.00  0.00    +0.000 A 
ATOM     19  C   UNL     1      -0.895  10.285  23.223  0.00  0.00    +0.000 A 
ATOM     20  C   UNL     1      -1.227  11.331  22.371  0.00  0.00    +0.000 A 
ATOM     21  N   UNL     1      -2.144  12.231  22.763  0.00  0.00    +0.000 NA
ATOM     22  H   UNL     1      -3.796  14.475  21.398  0.00  0.00    +0.000 HD
ATOM     23  H   UNL     1      -4.020  13.704  22.926  0.00  0.00    +0.000 HD
ATOM     24  H   UNL     1      -0.950  13.389  18.583  0.00  0.00    +0.000 HD
ATOM     25  H   UNL     1       0.459  12.527  18.911  0.00  0.00    +0.000 HD
ENDBRANCH   8  17
ENDBRANCH   7   8
ENDBRANCH   1   7
BRANCH   4  26
ATOM     26  C   UNL     1       1.695   2.365  18.968  0.00  0.00    +0.000 C 
BRANCH  26  27
ATOM     27  C   UNL     1       3.058   1.696  18.755  0.00  0.00    +0.000 C 
BRANCH  27  28
ATOM     28  N   UNL     1       3.876   2.378  17.778  0.00  0.00    +0.000 N 
ATOM     29  C   UNL     1       4.852   3.247  18.207  0.00  0.00    +0.000 C 
ATOM     30  O   UNL     1       5.077   3.452  19.397  0.00  0.00    +0.000 OA
ATOM     31  H   UNL     1       3.597   2.348  16.808  0.00  0.00    +0.000 HD
BRANCH  29  32
ATOM     32  C   UNL     1       5.596   4.005  17.175  0.00  0.00    +0.000 A 
ATOM     33  C   UNL     1       6.648   4.886  17.429  0.00  0.00    +0.000 A 
ATOM     34  C   UNL     1       7.375   5.428  16.364  0.00  0.00    +0.000 A 
ATOM     35  C   UNL     1       7.041   5.091  15.055  0.00  0.00    +0.000 A 
ATOM     36  C   UNL     1       5.903   4.334  14.817  0.00  0.00    +0.000 A 
ATOM     37  C   UNL     1       5.199   3.762  15.861  0.00  0.00    +0.000 A 
ATOM     38  O   UNL     1       5.447   4.057  13.557  0.00  0.00    +0.000 OA
ATOM     39  C   UNL     1       6.578   3.780  12.743  0.00  0.00    +0.000 C 
ATOM     40  C   UNL     1       7.567   4.942  12.758  0.00  0.00    +0.000 C 
ATOM     41  O   UNL     1       7.877   5.493  14.050  0.00  0.00    +0.000 OA
ENDBRANCH  29  32
ENDBRANCH  27  28
ENDBRANCH  26  27
ENDBRANCH   4  26
TORSDOF 7
ENDMDL
MODEL 2
REMARK VINA RESULT:      -9.5      6.032      9.020
REMARK  Name = 
REMARK  7 active torsions:
REMARK  status: ('A' for Active; 'I' for Inactive)
REMARK    1  A    between atoms: C_8  and  N_9
REMARK    2  A    between atoms: N_9  and  C_10
REMARK    3  A    between atoms: C_10  and  C_11
REMARK    4  A    between atoms: C_14  and  C_15
REMARK    5  A    between atoms: C_15  and  C_16
REMARK    6  A    between atoms: C_16  and  N_17
REMARK    7  A    between atoms: C_18  and  C_20
REMARK                            x       y       z     vdW  Elec       q    Type
REMARK                         _______ _______ _______ _____ _____    ______ ____
ROOT
ATOM      1  C   UNL     1       7.856   7.344  18.246  0.00  0.00    +0.000 A 
ATOM      2  C   UNL     1       7.850   6.097  18.876  0.00  0.00    +0.000 A 
ATOM      3  C   UNL     1       7.061   5.058  18.383  0.00  0.00    +0.000 A 
ATOM      4  C   UNL     1       6.262   5.231  17.249  0.00  0.00    +0.000 A 
ATOM      5  C   UNL     1       6.278   6.485  16.608  0.00  0.00    +0.000 A 
ATOM      6  C   UNL     1       7.072   7.529  17.105  0.00  0.00    +0.000 A 
ENDROOT
BRANCH   1   7
ATOM      7  C   UNL     1       8.742   8.443  18.778  0.00  0.00    +0.000 C 
BRANCH   7   8
ATOM      8  N   UNL     1       8.462   9.672  18.061  0.00  0.00    +0.000 N 
ATOM      9  H   UNL     1       8.325   9.532  17.061  0.00  0.00    +0.000 HD
BRANCH   8  17
ATOM     10  N   UNL     1      11.204  16.780  19.174  0.00  0.00    +0.000 N 
ATOM     11  C   UNL     1      10.562  15.602  18.857  0.00  0.00    +0.000 A 
ATOM     12  N   UNL     1       9.396  15.713  18.210  0.00  0.00    +0.000 NA
ATOM     13  C   UNL     1       8.751  14.578  17.912  0.00  0.00    +0.000 A 
ATOM     14  N   UNL     1       7.509  14.739  17.289  0.00  0.00    +0.000 N 
ATOM     15  C   UNL     1       9.246  13.313  18.258  0.00  0.00    +0.000 A 
ATOM     16  C   UNL     1       8.618  12.069  17.954  0.00  0.00    +0.000 A 
ATOM     17  C   UNL     1       9.165  10.842  18.345  0.00  0.00    +0.000 A 
ATOM     18  C   UNL     1      10.327  10.889  19.115  0.00  0.00    +0.000 A 
ATOM     19  C   UNL     1      10.959  12.111  19.402  0.00  0.00    +0.000 A 
ATOM     20  C   UNL     1      10.450  13.331  18.975  0.00  0.00    +0.000 A 
ATOM     21  N   UNL     1      11.112  14.460  19.278  0.00  0.00    +0.000 NA
ATOM     22  H   UNL     1      10.495  17.500  19.194  0.00  0.00    +0.000 HD
ATOM     23  H   UNL     1      11.749  16.643  20.014  0.00  0.00    +0.000 HD
ATOM     24  H   UNL     1       7.392  15.728  17.088  0.00  0.00    +0.000 HD
ATOM     25  H   UNL     1       7.414  14.166  16.459  0.00  0.00    +0.000 HD
ENDBRANCH   8  17
ENDBRANCH   7   8
ENDBRANCH   1   7
BRANCH   4  26
ATOM     26  C   UNL     1       5.405   4.126  16.675  0.00  0.00    +0.000 C 
BRANCH  26  27
ATOM     27  C   UNL     1       3.964   4.111  17.197  0.00  0.00    +0.000 C 
BRANCH  27  28
ATOM     28  N   UNL     1       3.451   5.432  17.480  0.00  0.00    +0.000 N 
ATOM     29  C   UNL     1       3.102   5.757  18.770  0.00  0.00    +0.000 C 
ATOM     30  O   UNL     1       3.233   4.974  19.706  0.00  0.00    +0.000 OA
ATOM     31  H   UNL     1       3.185   6.023  16.705  0.00  0.00    +0.000 HD
BRANCH  29  32
ATOM     32  C   UNL     1       2.481   7.082  18.999  0.00  0.00    +0.000 A 
ATOM     33  C   UNL     1       2.265   8.047  18.013  0.00  0.00    +0.000 A 
ATOM     34  C   UNL     1       1.533   9.200  18.317  0.00  0.00    +0.000 A 
ATOM     35  C   UNL     1       1.030   9.382  19.603  0.00  0.00    +0.000 A 
ATOM     36  C   UNL     1       1.381   8.487  20.603  0.00  0.00    +0.000 A 
ATOM     37  C   UNL     1       2.071   7.326  20.308  0.00  0.00    +0.000 A 
ATOM     38  O   UNL     1       1.021   8.660  21.912  0.00  0.00    +0.000 OA
ATOM     39  C   UNL     1      -0.315   9.142  21.929  0.00  0.00    +0.000 C 
ATOM     40  C   UNL     1      -0.448  10.428  21.118  0.00  0.00    +0.000 C 
ATOM     41  O   UNL     1       0.173  10.426  19.820  0.00  0.00    +0.000 OA
ENDBRANCH  29  32
ENDBRANCH  27  28
ENDBRANCH  26  27
ENDBRANCH   4  26
TORSDOF 7
ENDMDL
MODEL 3
REMARK VINA RESULT:      -9.3      6.196      9.164
REMARK  Name = 
REMARK  7 active torsions:
REMARK  status: ('A' for Active; 'I' for Inactive)
REMARK    1  A    between atoms: C_8  and  N_9
REMARK    2  A    between atoms: N_9  and  C_10
REMARK    3  A    between atoms: C_10  and  C_11
REMARK    4  A    between atoms: C_14  and  C_15
REMARK    5  A    between atoms: C_15  and  C_16
REMARK    6  A    between atoms: C_16  and  N_17
REMARK    7  A    between atoms: C_18  and  C_20
REMARK                            x       y       z     vdW  Elec       q    Type
REMARK                         _______ _______ _______ _____ _____    ______ ____
ROOT
ATOM      1  C   UNL     1       7.630   7.683  17.776  0.00  0.00    +0.000 A 
ATOM      2  C   UNL     1       6.470   7.488  17.021  0.00  0.00    +0.000 A 
ATOM      3  C   UNL     1       5.687   6.349  17.208  0.00  0.00    +0.000 A 
ATOM      4  C   UNL     1       6.034   5.379  18.152  0.00  0.00    +0.000 A 
ATOM      5  C   UNL     1       7.196   5.581  18.920  0.00  0.00    +0.000 A 
ATOM      6  C   UNL     1       7.983   6.727  18.731  0.00  0.00    +0.000 A 
ENDROOT
BRANCH   1   7
ATOM      7  C   UNL     1       8.444   8.938  17.580  0.00  0.00    +0.000 C 
BRANCH   7   8
ATOM      8  N   UNL     1       8.634   9.589  18.861  0.00  0.00    +0.000 N 
ATOM      9  H   UNL     1       7.790   9.611  19.431  0.00  0.00    +0.000 HD
BRANCH   8  17
ATOM     10  N   UNL     1      11.625  16.684  18.873  0.00  0.00    +0.000 N 
ATOM     11  C   UNL     1      10.941  15.494  18.740  0.00  0.00    +0.000 A 
ATOM     12  N   UNL     1       9.774  15.546  18.088  0.00  0.00    +0.000 NA
ATOM     13  C   UNL     1       9.089  14.402  17.967  0.00  0.00    +0.000 A 
ATOM     14  N   UNL     1       7.848  14.509  17.331  0.00  0.00    +0.000 N 
ATOM     15  C   UNL     1       9.543  13.188  18.501  0.00  0.00    +0.000 A 
ATOM     16  C   UNL     1       8.871  11.935  18.391  0.00  0.00    +0.000 A 
ATOM     17  C   UNL     1       9.379  10.763  18.963  0.00  0.00    +0.000 A 
ATOM     18  C   UNL     1      10.548  10.886  19.713  0.00  0.00    +0.000 A 
ATOM     19  C   UNL     1      11.224  12.115  19.809  0.00  0.00    +0.000 A 
ATOM     20  C   UNL     1      10.753  13.273  19.203  0.00  0.00    +0.000 A 
ATOM     21  N   UNL     1      11.455  14.411  19.328  0.00  0.00    +0.000 NA
ATOM     22  H   UNL     1      10.941  17.423  18.784  0.00  0.00    +0.000 HD
ATOM     23  H   UNL     1      12.172  16.658  19.722  0.00  0.00    +0.000 HD
ATOM     24  H   UNL     1       7.762  15.460  16.983  0.00  0.00    +0.000 HD
ATOM     25  H   UNL     1       7.726  13.821  16.598  0.00  0.00    +0.000 HD
ENDBRANCH   8  17
ENDBRANCH   7   8
ENDBRANCH   1   7
BRANCH   4  26
ATOM     26  C   UNL     1       5.204   4.139  18.395  0.00  0.00    +0.000 C 
BRANCH  26  27
ATOM     27  C   UNL     1       4.242   4.248  19.584  0.00  0.00    +0.000 C 
BRANCH  27  28
ATOM     28  N   UNL     1       3.699   5.577  19.752  0.00  0.00    +0.000 N 
ATOM     29  C   UNL     1       2.620   5.963  18.991  0.00  0.00    +0.000 C 
ATOM     30  O   UNL     1       2.076   5.212  18.187  0.00  0.00    +0.000 OA
ATOM     31  H   UNL     1       4.230   6.253  20.281  0.00  0.00    +0.000 HD
BRANCH  29  32
ATOM     32  C   UNL     1       2.161   7.365  19.117  0.00  0.00    +0.000 A 
ATOM     33  C   UNL     1       2.060   8.274  18.062  0.00  0.00    +0.000 A 
ATOM     34  C   UNL     1       1.470   9.525  18.274  0.00  0.00    +0.000 A 
ATOM     35  C   UNL     1       0.992   9.859  19.538  0.00  0.00    +0.000 A 
ATOM     36  C   UNL     1       1.234   9.005  20.605  0.00  0.00    +0.000 A 
ATOM     37  C   UNL     1       1.781   7.752  20.402  0.00  0.00    +0.000 A 
ATOM     38  O   UNL     1       0.896   9.315  21.894  0.00  0.00    +0.000 OA
ATOM     39  C   UNL     1      -0.373   9.952  21.864  0.00  0.00    +0.000 C 
ATOM     40  C   UNL     1      -0.353  11.181  20.960  0.00  0.00    +0.000 C 
ATOM     41  O   UNL     1       0.264  11.010  19.672  0.00  0.00    +0.000 OA
ENDBRANCH  29  32
ENDBRANCH  27  28
ENDBRANCH  26  27
ENDBRANCH   4  26
TORSDOF 7
ENDMDL
MODEL 4
REMARK VINA RESULT:      -9.3      6.071      8.585
REMARK  Name = 
REMARK  7 active torsions:
REMARK  status: ('A' for Active; 'I' for Inactive)
REMARK    1  A    between atoms: C_8  and  N_9
REMARK    2  A    between atoms: N_9  and  C_10
REMARK    3  A    between atoms: C_10  and  C_11
REMARK    4  A    between atoms: C_14  and  C_15
REMARK    5  A    between atoms: C_15  and  C_16
REMARK    6  A    between atoms: C_16  and  N_17
REMARK    7  A    between atoms: C_18  and  C_20
REMARK                            x       y       z     vdW  Elec       q    Type
REMARK                         _______ _______ _______ _____ _____    ______ ____
ROOT
ATOM      1  C   UNL     1       7.638   7.687  17.884  0.00  0.00    +0.000 A 
ATOM      2  C   UNL     1       6.479   7.473  17.133  0.00  0.00    +0.000 A 
ATOM      3  C   UNL     1       5.765   6.281  17.256  0.00  0.00    +0.000 A 
ATOM      4  C   UNL     1       6.183   5.275  18.131  0.00  0.00    +0.000 A 
ATOM      5  C   UNL     1       7.344   5.496  18.896  0.00  0.00    +0.000 A 
ATOM      6  C   UNL     1       8.061   6.695  18.771  0.00  0.00    +0.000 A 
ENDROOT
BRANCH   1   7
ATOM      7  C   UNL     1       8.375   8.998  17.758  0.00  0.00    +0.000 C 
BRANCH   7   8
ATOM      8  N   UNL     1       8.949   9.347  19.043  0.00  0.00    +0.000 N 
ATOM      9  H   UNL     1       8.423   8.977  19.833  0.00  0.00    +0.000 HD
BRANCH   8  17
ATOM     10  N   UNL     1      10.616  16.849  19.531  0.00  0.00    +0.000 N 
ATOM     11  C   UNL     1      10.195  15.560  19.277  0.00  0.00    +0.000 A 
ATOM     12  N   UNL     1       9.234  15.417  18.358  0.00  0.00    +0.000 NA
ATOM     13  C   UNL     1       8.800  14.173  18.115  0.00  0.00    +0.000 A 
ATOM     14  N   UNL     1       7.755  14.071  17.191  0.00  0.00    +0.000 N 
ATOM     15  C   UNL     1       9.305  13.051  18.787  0.00  0.00    +0.000 A 
ATOM     16  C   UNL     1       8.899  11.702  18.561  0.00  0.00    +0.000 A 
ATOM     17  C   UNL     1       9.439  10.631  19.281  0.00  0.00    +0.000 A 
ATOM     18  C   UNL     1      10.349  10.946  20.290  0.00  0.00    +0.000 A 
ATOM     19  C   UNL     1      10.765  12.272  20.504  0.00  0.00    +0.000 A 
ATOM     20  C   UNL     1      10.272  13.336  19.760  0.00  0.00    +0.000 A 
ATOM     21  N   UNL     1      10.721  14.577  20.012  0.00  0.00    +0.000 NA
ATOM     22  H   UNL     1       9.862  17.460  19.251  0.00  0.00    +0.000 HD
ATOM     23  H   UNL     1      10.933  16.910  20.488  0.00  0.00    +0.000 HD
ATOM     24  H   UNL     1       7.601  14.996  16.798  0.00  0.00    +0.000 HD
ATOM     25  H   UNL     1       7.935  13.377  16.476  0.00  0.00    +0.000 HD
ENDBRANCH   8  17
ENDBRANCH   7   8
ENDBRANCH   1   7
BRANCH   4  26
ATOM     26  C   UNL     1       5.429   3.975  18.305  0.00  0.00    +0.000 C 
BRANCH  26  27
ATOM     27  C   UNL     1       4.604   3.894  19.594  0.00  0.00    +0.000 C 
BRANCH  27  28
ATOM     28  N   UNL     1       3.907   5.122  19.899  0.00  0.00    +0.000 N 
ATOM     29  C   UNL     1       2.754   5.429  19.214  0.00  0.00    +0.000 C 
ATOM     30  O   UNL     1       2.273   4.685  18.365  0.00  0.00    +0.000 OA
ATOM     31  H   UNL     1       4.373   5.814  20.468  0.00  0.00    +0.000 HD
BRANCH  29  32
ATOM     32  C   UNL     1       2.129   6.745  19.480  0.00  0.00    +0.000 A 
ATOM     33  C   UNL     1       1.551   7.128  20.692  0.00  0.00    +0.000 A 
ATOM     34  C   UNL     1       1.128   8.449  20.874  0.00  0.00    +0.000 A 
ATOM     35  C   UNL     1       1.280   9.373  19.845  0.00  0.00    +0.000 A 
ATOM     36  C   UNL     1       1.719   8.941  18.602  0.00  0.00    +0.000 A 
ATOM     37  C   UNL     1       2.175   7.648  18.419  0.00  0.00    +0.000 A 
ATOM     38  O   UNL     1       1.786   9.764  17.511  0.00  0.00    +0.000 OA
ATOM     39  C   UNL     1       2.272  11.024  17.954  0.00  0.00    +0.000 C 
ATOM     40  C   UNL     1       1.389  11.598  19.059  0.00  0.00    +0.000 C 
ATOM     41  O   UNL     1       1.024  10.690  20.114  0.00  0.00    +0.000 OA
ENDBRANCH  29  32
ENDBRANCH  27  28
ENDBRANCH  26  27
ENDBRANCH   4  26
TORSDOF 7
ENDMDL
MODEL 5
REMARK VINA RESULT:      -9.3      2.412      3.190
REMARK  Name = 
REMARK  7 active torsions:
REMARK  status: ('A' for Active; 'I' for Inactive)
REMARK    1  A    between atoms: C_8  and  N_9
REMARK    2  A    between atoms: N_9  and  C_10
REMARK    3  A    between atoms: C_10  and  C_11
REMARK    4  A    between atoms: C_14  and  C_15
REMARK    5  A    between atoms: C_15  and  C_16
REMARK    6  A    between atoms: C_16  and  N_17
REMARK    7  A    between atoms: C_18  and  C_20
REMARK                            x       y       z     vdW  Elec       q    Type
REMARK                         _______ _______ _______ _____ _____    ______ ____
ROOT
ATOM      1  C   UNL     1       1.699   8.899  18.982  0.00  0.00    +0.000 A 
ATOM      2  C   UNL     1       2.320   7.876  18.259  0.00  0.00    +0.000 A 
ATOM      3  C   UNL     1       2.483   6.611  18.821  0.00  0.00    +0.000 A 
ATOM      4  C   UNL     1       2.029   6.328  20.113  0.00  0.00    +0.000 A 
ATOM      5  C   UNL     1       1.394   7.356  20.836  0.00  0.00    +0.000 A 
ATOM      6  C   UNL     1       1.231   8.629  20.269  0.00  0.00    +0.000 A 
ENDROOT
BRANCH   1   7
ATOM      7  C   UNL     1       1.504  10.251  18.341  0.00  0.00    +0.000 C 
BRANCH   7   8
ATOM      8  N   UNL     1       0.476  10.977  19.061  0.00  0.00    +0.000 N 
ATOM      9  H   UNL     1       0.589  10.937  20.073  0.00  0.00    +0.000 HD
BRANCH   8  17
ATOM     10  N   UNL     1      -7.063  11.702  17.676  0.00  0.00    +0.000 N 
ATOM     11  C   UNL     1      -5.745  11.711  18.084  0.00  0.00    +0.000 A 
ATOM     12  N   UNL     1      -5.418  12.605  19.023  0.00  0.00    +0.000 NA
ATOM     13  C   UNL     1      -4.138  12.638  19.415  0.00  0.00    +0.000 A 
ATOM     14  N   UNL     1      -3.823  13.625  20.355  0.00  0.00    +0.000 N 
ATOM     15  C   UNL     1      -3.158  11.793  18.876  0.00  0.00    +0.000 A 
ATOM     16  C   UNL     1      -1.786  11.767  19.263  0.00  0.00    +0.000 A 
ATOM     17  C   UNL     1      -0.860  10.903  18.668  0.00  0.00    +0.000 A 
ATOM     18  C   UNL     1      -1.324  10.108  17.621  0.00  0.00    +0.000 A 
ATOM     19  C   UNL     1      -2.679  10.118  17.248  0.00  0.00    +0.000 A 
ATOM     20  C   UNL     1      -3.616  10.936  17.866  0.00  0.00    +0.000 A 
ATOM     21  N   UNL     1      -4.897  10.886  17.465  0.00  0.00    +0.000 NA
ATOM     22  H   UNL     1      -7.438  12.616  17.889  0.00  0.00    +0.000 HD
ATOM     23  H   UNL     1      -7.109  11.394  16.714  0.00  0.00    +0.000 HD
ATOM     24  H   UNL     1      -4.693  14.069  20.637  0.00  0.00    +0.000 HD
ATOM     25  H   UNL     1      -3.307  13.259  21.145  0.00  0.00    +0.000 HD
ENDBRANCH   8  17
ENDBRANCH   7   8
ENDBRANCH   1   7
BRANCH   4  26
ATOM     26  C   UNL     1       2.173   4.966  20.752  0.00  0.00    +0.000 C 
BRANCH  26  27
ATOM     27  C   UNL     1       2.455   3.832  19.759  0.00  0.00    +0.000 C 
BRANCH  27  28
ATOM     28  N   UNL     1       3.251   4.253  18.629  0.00  0.00    +0.000 N 
ATOM     29  C   UNL     1       4.594   3.958  18.605  0.00  0.00    +0.000 C 
ATOM     30  O   UNL     1       5.147   3.323  19.499  0.00  0.00    +0.000 OA
ATOM     31  H   UNL     1       2.851   4.911  17.975  0.00  0.00    +0.000 HD
BRANCH  29  32
ATOM     32  C   UNL     1       5.393   4.499  17.482  0.00  0.00    +0.000 A 
ATOM     33  C   UNL     1       6.539   5.285  17.619  0.00  0.00    +0.000 A 
ATOM     34  C   UNL     1       7.298   5.611  16.490  0.00  0.00    +0.000 A 
ATOM     35  C   UNL     1       6.903   5.156  15.235  0.00  0.00    +0.000 A 
ATOM     36  C   UNL     1       5.686   4.505  15.100  0.00  0.00    +0.000 A 
ATOM     37  C   UNL     1       4.946   4.143  16.211  0.00  0.00    +0.000 A 
ATOM     38  O   UNL     1       5.177   4.129  13.887  0.00  0.00    +0.000 OA
ATOM     39  C   UNL     1       6.254   3.633  13.105  0.00  0.00    +0.000 C 
ATOM     40  C   UNL     1       7.362   4.674  12.970  0.00  0.00    +0.000 C 
ATOM     41  O   UNL     1       7.757   5.340  14.182  0.00  0.00    +0.000 OA
ENDBRANCH  29  32
ENDBRANCH  27  28
ENDBRANCH  26  27
ENDBRANCH   4  26
TORSDOF 7
ENDMDL
MODEL 6
REMARK VINA RESULT:      -9.2      6.226      8.841
REMARK  Name = 
REMARK  7 active torsions:
REMARK  status: ('A' for Active; 'I' for Inactive)
REMARK    1  A    between atoms: C_8  and  N_9
REMARK    2  A    between atoms: N_9  and  C_10
REMARK    3  A    between atoms: C_10  and  C_11
REMARK    4  A    between atoms: C_14  and  C_15
REMARK    5  A    between atoms: C_15  and  C_16
REMARK    6  A    between atoms: C_16  and  N_17
REMARK    7  A    between atoms: C_18  and  C_20
REMARK                            x       y       z     vdW  Elec       q    Type
REMARK                         _______ _______ _______ _____ _____    ______ ____
ROOT
ATOM      1  C   UNL     1       8.054   7.777  18.318  0.00  0.00    +0.000 A 
ATOM      2  C   UNL     1       8.169   6.501  18.877  0.00  0.00    +0.000 A 
ATOM      3  C   UNL     1       7.449   5.429  18.351  0.00  0.00    +0.000 A 
ATOM      4  C   UNL     1       6.601   5.597  17.253  0.00  0.00    +0.000 A 
ATOM      5  C   UNL     1       6.494   6.880  16.683  0.00  0.00    +0.000 A 
ATOM      6  C   UNL     1       7.219   7.957  17.214  0.00  0.00    +0.000 A 
ENDROOT
BRANCH   1   7
ATOM      7  C   UNL     1       8.868   8.915  18.884  0.00  0.00    +0.000 C 
BRANCH   7   8
ATOM      8  N   UNL     1       8.951   9.977  17.901  0.00  0.00    +0.000 N 
ATOM      9  H   UNL     1       9.225   9.649  16.976  0.00  0.00    +0.000 HD
BRANCH   8  17
ATOM     10  N   UNL     1      10.892  17.299  19.285  0.00  0.00    +0.000 N 
ATOM     11  C   UNL     1      10.380  16.069  18.926  0.00  0.00    +0.000 A 
ATOM     12  N   UNL     1       9.193  16.073  18.311  0.00  0.00    +0.000 NA
ATOM     13  C   UNL     1       8.674  14.886  17.974  0.00  0.00    +0.000 A 
ATOM     14  N   UNL     1       7.406  14.929  17.385  0.00  0.00    +0.000 N 
ATOM     15  C   UNL     1       9.319  13.672  18.251  0.00  0.00    +0.000 A 
ATOM     16  C   UNL     1       8.829  12.378  17.902  0.00  0.00    +0.000 A 
ATOM     17  C   UNL     1       9.523  11.207  18.225  0.00  0.00    +0.000 A 
ATOM     18  C   UNL     1      10.692  11.353  18.971  0.00  0.00    +0.000 A 
ATOM     19  C   UNL     1      11.187  12.627  19.301  0.00  0.00    +0.000 A 
ATOM     20  C   UNL     1      10.531  13.797  18.942  0.00  0.00    +0.000 A 
ATOM     21  N   UNL     1      11.068  14.981  19.282  0.00  0.00    +0.000 NA
ATOM     22  H   UNL     1      10.106  17.931  19.352  0.00  0.00    +0.000 HD
ATOM     23  H   UNL     1      11.471  17.189  20.106  0.00  0.00    +0.000 HD
ATOM     24  H   UNL     1       7.171  15.906  17.234  0.00  0.00    +0.000 HD
ATOM     25  H   UNL     1       7.355  14.386  16.533  0.00  0.00    +0.000 HD
ENDBRANCH   8  17
ENDBRANCH   7   8
ENDBRANCH   1   7
BRANCH   4  26
ATOM     26  C   UNL     1       5.815   4.458  16.643  0.00  0.00    +0.000 C 
BRANCH  26  27
ATOM     27  C   UNL     1       4.483   4.167  17.343  0.00  0.00    +0.000 C 
BRANCH  27  28
ATOM     28  N   UNL     1       3.745   5.365  17.676  0.00  0.00    +0.000 N 
ATOM     29  C   UNL     1       3.396   5.597  18.985  0.00  0.00    +0.000 C 
ATOM     30  O   UNL     1       3.709   4.838  19.897  0.00  0.00    +0.000 OA
ATOM     31  H   UNL     1       3.341   5.908  16.926  0.00  0.00    +0.000 HD
BRANCH  29  32
ATOM     32  C   UNL     1       2.550   6.780  19.268  0.00  0.00    +0.000 A 
ATOM     33  C   UNL     1       1.815   6.978  20.438  0.00  0.00    +0.000 A 
ATOM     34  C   UNL     1       1.174   8.202  20.659  0.00  0.00    +0.000 A 
ATOM     35  C   UNL     1       1.269   9.214  19.707  0.00  0.00    +0.000 A 
ATOM     36  C   UNL     1       1.877   8.948  18.489  0.00  0.00    +0.000 A 
ATOM     37  C   UNL     1       2.546   7.756  18.274  0.00  0.00    +0.000 A 
ATOM     38  O   UNL     1       1.909   9.852  17.462  0.00  0.00    +0.000 OA
ATOM     39  C   UNL     1       2.149  11.133  18.027  0.00  0.00    +0.000 C 
ATOM     40  C   UNL     1       1.094  11.482  19.073  0.00  0.00    +0.000 C 
ATOM     41  O   UNL     1       0.785  10.453  20.029  0.00  0.00    +0.000 OA
ENDBRANCH  29  32
ENDBRANCH  27  28
ENDBRANCH  26  27
ENDBRANCH   4  26
TORSDOF 7
ENDMDL
MODEL 7
REMARK VINA RESULT:      -9.2      1.598      2.077
REMARK  Name = 
REMARK  7 active torsions:
REMARK  status: ('A' for Active; 'I' for Inactive)
REMARK    1  A    between atoms: C_8  and  N_9
REMARK    2  A    between atoms: N_9  and  C_10
REMARK    3  A    between atoms: C_10  and  C_11
REMARK    4  A    between atoms: C_14  and  C_15
REMARK    5  A    between atoms: C_15  and  C_16
REMARK    6  A    between atoms: C_16  and  N_17
REMARK    7  A    between atoms: C_18  and  C_20
REMARK                            x       y       z     vdW  Elec       q    Type
REMARK                         _______ _______ _______ _____ _____    ______ ____
ROOT
ATOM      1  C   UNL     1       1.829   6.420  20.024  0.00  0.00    +0.000 A 
ATOM      2  C   UNL     1       1.857   6.072  18.670  0.00  0.00    +0.000 A 
ATOM      3  C   UNL     1       1.857   4.733  18.284  0.00  0.00    +0.000 A 
ATOM      4  C   UNL     1       1.823   3.706  19.231  0.00  0.00    +0.000 A 
ATOM      5  C   UNL     1       1.782   4.057  20.594  0.00  0.00    +0.000 A 
ATOM      6  C   UNL     1       1.784   5.405  20.982  0.00  0.00    +0.000 A 
ENDROOT
BRANCH   1   7
ATOM      7  C   UNL     1       1.798   7.876  20.418  0.00  0.00    +0.000 C 
BRANCH   7   8
ATOM      8  N   UNL     1       1.566   8.685  19.237  0.00  0.00    +0.000 N 
ATOM      9  H   UNL     1       2.362   8.707  18.602  0.00  0.00    +0.000 HD
BRANCH   8  17
ATOM     10  N   UNL     1      -0.899  15.977  19.036  0.00  0.00    +0.000 N 
ATOM     11  C   UNL     1      -0.269  14.750  19.010  0.00  0.00    +0.000 A 
ATOM     12  N   UNL     1       0.969  14.727  18.506  0.00  0.00    +0.000 NA
ATOM     13  C   UNL     1       1.587  13.540  18.457  0.00  0.00    +0.000 A 
ATOM     14  N   UNL     1       2.857  13.547  17.870  0.00  0.00    +0.000 N 
ATOM     15  C   UNL     1       0.983  12.354  18.897  0.00  0.00    +0.000 A 
ATOM     16  C   UNL     1       1.594  11.064  18.888  0.00  0.00    +0.000 A 
ATOM     17  C   UNL     1       0.922   9.919  19.331  0.00  0.00    +0.000 A 
ATOM     18  C   UNL     1      -0.407  10.080  19.721  0.00  0.00    +0.000 A 
ATOM     19  C   UNL     1      -1.006  11.352  19.748  0.00  0.00    +0.000 A 
ATOM     20  C   UNL     1      -0.332  12.501  19.357  0.00  0.00    +0.000 A 
ATOM     21  N   UNL     1      -0.963  13.685  19.418  0.00  0.00    +0.000 NA
ATOM     22  H   UNL     1      -0.454  16.546  18.329  0.00  0.00    +0.000 HD
ATOM     23  H   UNL     1      -1.897  15.837  18.958  0.00  0.00    +0.000 HD
ATOM     24  H   UNL     1       3.104  14.515  17.685  0.00  0.00    +0.000 HD
ATOM     25  H   UNL     1       3.550  13.077  18.438  0.00  0.00    +0.000 HD
ENDBRANCH   8  17
ENDBRANCH   7   8
ENDBRANCH   1   7
BRANCH   4  26
ATOM     26  C   UNL     1       1.805   2.242  18.852  0.00  0.00    +0.000 C 
BRANCH  26  27
ATOM     27  C   UNL     1       3.195   1.622  18.670  0.00  0.00    +0.000 C 
BRANCH  27  28
ATOM     28  N   UNL     1       3.995   2.308  17.681  0.00  0.00    +0.000 N 
ATOM     29  C   UNL     1       4.923   3.236  18.092  0.00  0.00    +0.000 C 
ATOM     30  O   UNL     1       5.122   3.491  19.276  0.00  0.00    +0.000 OA
ATOM     31  H   UNL     1       3.731   2.232  16.709  0.00  0.00    +0.000 HD
BRANCH  29  32
ATOM     32  C   UNL     1       5.646   3.991  17.043  0.00  0.00    +0.000 A 
ATOM     33  C   UNL     1       6.690   4.888  17.277  0.00  0.00    +0.000 A 
ATOM     34  C   UNL     1       7.399   5.428  16.198  0.00  0.00    +0.000 A 
ATOM     35  C   UNL     1       7.054   5.073  14.896  0.00  0.00    +0.000 A 
ATOM     36  C   UNL     1       5.923   4.300  14.679  0.00  0.00    +0.000 A 
ATOM     37  C   UNL     1       5.238   3.730  15.736  0.00  0.00    +0.000 A 
ATOM     38  O   UNL     1       5.456   4.004  13.427  0.00  0.00    +0.000 OA
ATOM     39  C   UNL     1       6.581   3.732  12.603  0.00  0.00    +0.000 C 
ATOM     40  C   UNL     1       7.556   4.906  12.595  0.00  0.00    +0.000 C 
ATOM     41  O   UNL     1       7.874   5.474  13.877  0.00  0.00    +0.000 OA
ENDBRANCH  29  32
ENDBRANCH  27  28
ENDBRANCH  26  27
ENDBRANCH   4  26
TORSDOF 7
ENDMDL
MODEL 8
REMARK VINA RESULT:      -9.1      1.097      1.778
REMARK  Name = 
REMARK  7 active torsions:
REMARK  status: ('A' for Active; 'I' for Inactive)
REMARK    1  A    between atoms: C_8  and  N_9
REMARK    2  A    between atoms: N_9  and  C_10
REMARK    3  A    between atoms: C_10  and  C_11
REMARK    4  A    between atoms: C_14  and  C_15
REMARK    5  A    between atoms: C_15  and  C_16
REMARK    6  A    between atoms: C_16  and  N_17
REMARK    7  A    between atoms: C_18  and  C_20
REMARK                            x       y       z     vdW  Elec       q    Type
REMARK                         _______ _______ _______ _____ _____    ______ ____
ROOT
ATOM      1  C   UNL     1       2.055   6.796  18.846  0.00  0.00    +0.000 A 
ATOM      2  C   UNL     1       1.795   5.947  17.767  0.00  0.00    +0.000 A 
ATOM      3  C   UNL     1       1.688   4.570  17.959  0.00  0.00    +0.000 A 
ATOM      4  C   UNL     1       1.832   4.003  19.228  0.00  0.00    +0.000 A 
ATOM      5  C   UNL     1       2.083   4.860  20.317  0.00  0.00    +0.000 A 
ATOM      6  C   UNL     1       2.190   6.245  20.122  0.00  0.00    +0.000 A 
ENDROOT
BRANCH   1   7
ATOM      7  C   UNL     1       2.135   8.286  18.620  0.00  0.00    +0.000 C 
BRANCH   7   8
ATOM      8  N   UNL     1       1.556   8.974  19.757  0.00  0.00    +0.000 N 
ATOM      9  H   UNL     1       1.522   8.400  20.599  0.00  0.00    +0.000 HD
BRANCH   8  17
ATOM     10  N   UNL     1      -4.420  13.806  20.232  0.00  0.00    +0.000 N 
ATOM     11  C   UNL     1      -3.336  12.962  20.360  0.00  0.00    +0.000 A 
ATOM     12  N   UNL     1      -2.770  12.897  21.569  0.00  0.00    +0.000 NA
ATOM     13  C   UNL     1      -1.705  12.096  21.704  0.00  0.00    +0.000 A 
ATOM     14  N   UNL     1      -1.106  12.101  22.968  0.00  0.00    +0.000 N 
ATOM     15  C   UNL     1      -1.176  11.354  20.639  0.00  0.00    +0.000 A 
ATOM     16  C   UNL     1      -0.059  10.472  20.721  0.00  0.00    +0.000 A 
ATOM     17  C   UNL     1       0.423   9.773  19.609  0.00  0.00    +0.000 A 
ATOM     18  C   UNL     1      -0.198  10.031  18.387  0.00  0.00    +0.000 A 
ATOM     19  C   UNL     1      -1.311  10.885  18.305  0.00  0.00    +0.000 A 
ATOM     20  C   UNL     1      -1.827  11.545  19.412  0.00  0.00    +0.000 A 
ATOM     21  N   UNL     1      -2.900  12.340  19.262  0.00  0.00    +0.000 NA
ATOM     22  H   UNL     1      -4.342  14.490  20.972  0.00  0.00    +0.000 HD
ATOM     23  H   UNL     1      -4.460  14.151  19.283  0.00  0.00    +0.000 HD
ATOM     24  H   UNL     1      -1.691  12.659  23.583  0.00  0.00    +0.000 HD
ATOM     25  H   UNL     1      -0.953  11.167  23.329  0.00  0.00    +0.000 HD
ENDBRANCH   8  17
ENDBRANCH   7   8
ENDBRANCH   1   7
BRANCH   4  26
ATOM     26  C   UNL     1       1.708   2.518  19.480  0.00  0.00    +0.000 C 
BRANCH  26  27
ATOM     27  C   UNL     1       2.935   1.702  19.056  0.00  0.00    +0.000 C 
BRANCH  27  28
ATOM     28  N   UNL     1       3.760   2.385  18.085  0.00  0.00    +0.000 N 
ATOM     29  C   UNL     1       4.817   3.150  18.520  0.00  0.00    +0.000 C 
ATOM     30  O   UNL     1       5.109   3.258  19.707  0.00  0.00    +0.000 OA
ATOM     31  H   UNL     1       3.437   2.440  17.130  0.00  0.00    +0.000 HD
BRANCH  29  32
ATOM     32  C   UNL     1       5.571   3.917  17.502  0.00  0.00    +0.000 A 
ATOM     33  C   UNL     1       6.668   4.738  17.767  0.00  0.00    +0.000 A 
ATOM     34  C   UNL     1       7.395   5.292  16.708  0.00  0.00    +0.000 A 
ATOM     35  C   UNL     1       7.015   5.028  15.395  0.00  0.00    +0.000 A 
ATOM     36  C   UNL     1       5.839   4.334  15.154  0.00  0.00    +0.000 A 
ATOM     37  C   UNL     1       5.133   3.749  16.190  0.00  0.00    +0.000 A 
ATOM     38  O   UNL     1       5.340   4.133  13.895  0.00  0.00    +0.000 OA
ATOM     39  C   UNL     1       6.438   3.841  13.042  0.00  0.00    +0.000 C 
ATOM     40  C   UNL     1       7.480   4.955  13.081  0.00  0.00    +0.000 C 
ATOM     41  O   UNL     1       7.846   5.435  14.386  0.00  0.00    +0.000 OA
ENDBRANCH  29  32
ENDBRANCH  27  28
ENDBRANCH  26  27
ENDBRANCH   4  26
TORSDOF 7
ENDMDL
MODEL 9
REMARK VINA RESULT:      -9.1      4.963     12.091
REMARK  Name = 
REMARK  7 active torsions:
REMARK  status: ('A' for Active; 'I' for Inactive)
REMARK    1  A    between atoms: C_8  and  N_9
REMARK    2  A    between atoms: N_9  and  C_10
REMARK    3  A    between atoms: C_10  and  C_11
REMARK    4  A    between atoms: C_14  and  C_15
REMARK    5  A    between atoms: C_15  and  C_16
REMARK    6  A    between atoms: C_16  and  N_17
REMARK    7  A    between atoms: C_18  and  C_20
REMARK                            x       y       z     vdW  Elec       q    Type
REMARK                         _______ _______ _______ _____ _____    ______ ____
ROOT
ATOM      1  C   UNL     1       1.778   7.353  20.099  0.00  0.00    +0.000 A 
ATOM      2  C   UNL     1       1.301   8.059  21.207  0.00  0.00    +0.000 A 
ATOM      3  C   UNL     1       0.893   9.387  21.079  0.00  0.00    +0.000 A 
ATOM      4  C   UNL     1       0.944  10.043  19.846  0.00  0.00    +0.000 A 
ATOM      5  C   UNL     1       1.414   9.328  18.728  0.00  0.00    +0.000 A 
ATOM      6  C   UNL     1       1.825   7.992  18.859  0.00  0.00    +0.000 A 
ENDROOT
BRANCH   1   7
ATOM      7  C   UNL     1       2.183   5.908  20.256  0.00  0.00    +0.000 C 
BRANCH   7   8
ATOM      8  N   UNL     1       3.589   5.768  19.928  0.00  0.00    +0.000 N 
ATOM      9  H   UNL     1       4.153   6.561  20.229  0.00  0.00    +0.000 HD
BRANCH   8  17
ATOM     10  N   UNL     1       6.918   3.790  13.273  0.00  0.00    +0.000 N 
ATOM     11  C   UNL     1       6.465   4.303  14.470  0.00  0.00    +0.000 A 
ATOM     12  N   UNL     1       7.197   5.281  15.015  0.00  0.00    +0.000 NA
ATOM     13  C   UNL     1       6.780   5.776  16.188  0.00  0.00    +0.000 A 
ATOM     14  N   UNL     1       7.604   6.755  16.753  0.00  0.00    +0.000 N 
ATOM     15  C   UNL     1       5.636   5.303  16.845  0.00  0.00    +0.000 A 
ATOM     16  C   UNL     1       5.131   5.800  18.083  0.00  0.00    +0.000 A 
ATOM     17  C   UNL     1       3.987   5.267  18.689  0.00  0.00    +0.000 A 
ATOM     18  C   UNL     1       3.395   4.172  18.061  0.00  0.00    +0.000 A 
ATOM     19  C   UNL     1       3.879   3.692  16.831  0.00  0.00    +0.000 A 
ATOM     20  C   UNL     1       4.984   4.246  16.198  0.00  0.00    +0.000 A 
ATOM     21  N   UNL     1       5.385   3.742  15.019  0.00  0.00    +0.000 NA
ATOM     22  H   UNL     1       7.908   3.988  13.229  0.00  0.00    +0.000 HD
ATOM     23  H   UNL     1       6.634   2.823  13.199  0.00  0.00    +0.000 HD
ATOM     24  H   UNL     1       8.330   6.973  16.077  0.00  0.00    +0.000 HD
ATOM     25  H   UNL     1       7.089   7.577  17.041  0.00  0.00    +0.000 HD
ENDBRANCH   8  17
ENDBRANCH   7   8
ENDBRANCH   1   7
BRANCH   4  26
ATOM     26  C   UNL     1       0.497  11.476  19.662  0.00  0.00    +0.000 C 
BRANCH  26  27
ATOM     27  C   UNL     1       0.166  12.205  20.969  0.00  0.00    +0.000 C 
BRANCH  27  28
ATOM     28  N   UNL     1      -1.255  12.316  21.210  0.00  0.00    +0.000 N 
ATOM     29  C   UNL     1      -1.699  12.673  22.462  0.00  0.00    +0.000 C 
ATOM     30  O   UNL     1      -0.933  12.929  23.386  0.00  0.00    +0.000 OA
ATOM     31  H   UNL     1      -1.893  11.952  20.516  0.00  0.00    +0.000 HD
BRANCH  29  32
ATOM     32  C   UNL     1      -3.162  12.672  22.695  0.00  0.00    +0.000 A 
ATOM     33  C   UNL     1      -3.774  12.695  23.950  0.00  0.00    +0.000 A 
ATOM     34  C   UNL     1      -5.161  12.846  24.045  0.00  0.00    +0.000 A 
ATOM     35  C   UNL     1      -5.925  12.966  22.887  0.00  0.00    +0.000 A 
ATOM     36  C   UNL     1      -5.320  12.792  21.651  0.00  0.00    +0.000 A 
ATOM     37  C   UNL     1      -3.945  12.680  21.542  0.00  0.00    +0.000 A 
ATOM     38  O   UNL     1      -6.021  12.782  20.476  0.00  0.00    +0.000 OA
ATOM     39  C   UNL     1      -7.014  13.794  20.561  0.00  0.00    +0.000 C 
ATOM     40  C   UNL     1      -7.915  13.582  21.775  0.00  0.00    +0.000 C 
ATOM     41  O   UNL     1      -7.249  13.289  23.015  0.00  0.00    +0.000 OA
ENDBRANCH  29  32
ENDBRANCH  27  28
ENDBRANCH  26  27
ENDBRANCH   4  26
TORSDOF 7
ENDMDL
