MODEL 1
REMARK VINA RESULT:      -6.6      0.000      0.000
REMARK  Name = 
REMARK  9 active torsions:
REMARK  status: ('A' for Active; 'I' for Inactive)
REMARK    1  A    between atoms: C_1  and  C_2
REMARK    2  A    between atoms: C_2  and  C_3
REMARK    3  A    between atoms: C_3  and  C_4
REMARK    4  A    between atoms: C_3  and  N_15
REMARK    5  A    between atoms: N_6  and  C_7
REMARK    6  A    between atoms: C_8  and  C_9
REMARK    7  A    between atoms: C_13  and  C_14
REMARK    8  A    between atoms: C_16  and  C_17
REMARK    9  A    between atoms: C_19  and  C_20
REMARK                            x       y       z     vdW  Elec       q    Type
REMARK                         _______ _______ _______ _____ _____    ______ ____
ROOT
ATOM      1  C   UNL     1      -1.002  13.526  20.656  0.00  0.00    +0.000 C 
ENDROOT
BRANCH   1   2
ATOM      2  N   UNL     1      -1.133  12.479  21.680  0.00  0.00    +0.000 N 
ATOM      3  C   UNL     1      -2.091  12.422  22.689  0.00  0.00    +0.000 A 
ATOM      4  N   UNL     1      -1.920  11.338  23.422  0.00  0.00    +0.000 NA
ATOM      5  C   UNL     1      -0.852  10.680  22.899  0.00  0.00    +0.000 A 
ATOM      6  C   UNL     1      -0.255   9.474  23.327  0.00  0.00    +0.000 A 
ATOM      7  C   UNL     1       0.849   8.972  22.631  0.00  0.00    +0.000 A 
ATOM      8  C   UNL     1       1.334   9.629  21.511  0.00  0.00    +0.000 A 
ATOM      9  C   UNL     1       0.730  10.800  21.057  0.00  0.00    +0.000 A 
ATOM     10  C   UNL     1      -0.347  11.335  21.782  0.00  0.00    +0.000 A 
BRANCH   3  11
ATOM     11  C   UNL     1      -3.161  13.355  22.973  0.00  0.00    +0.000 A 
ATOM     12  C   UNL     1      -3.174  14.473  23.786  0.00  0.00    +0.000 A 
ATOM     13  C   UNL     1      -4.441  15.143  23.844  0.00  0.00    +0.000 A 
ATOM     14  C   UNL     1      -4.698  16.381  24.634  0.00  0.00    +0.000 C 
ATOM     15  C   UNL     1      -5.378  14.476  23.086  0.00  0.00    +0.000 A 
ATOM     16  S   UNL     1      -4.735  13.094  22.314  0.00  0.00    +0.000 S 
ENDBRANCH   3  11
ENDBRANCH   1   2
BRANCH   1  17
ATOM     17  C   UNL     1      -1.374  12.983  19.279  0.00  0.00    +0.000 C 
ATOM     18  O   UNL     1      -0.858  13.465  18.270  0.00  0.00    +0.000 OA
ATOM     19  N   UNL     1      -2.291  11.940  19.280  0.00  0.00    +0.000 N 
ATOM     20  H   UNL     1      -2.983  11.974  20.019  0.00  0.00    +0.000 HD
BRANCH  19  21
ATOM     21  C   UNL     1      -2.706  11.312  18.079  0.00  0.00    +0.000 A 
ATOM     22  C   UNL     1      -1.853  10.423  17.386  0.00  0.00    +0.000 A 
ATOM     23  C   UNL     1      -0.500   9.995  17.875  0.00  0.00    +0.000 C 
ATOM     24  C   UNL     1      -2.291   9.850  16.182  0.00  0.00    +0.000 A 
ATOM     25  C   UNL     1      -3.562  10.115  15.689  0.00  0.00    +0.000 A 
ATOM     26  C   UNL     1      -4.419  10.956  16.395  0.00  0.00    +0.000 A 
ATOM     27  C   UNL     1      -4.011  11.558  17.596  0.00  0.00    +0.000 A 
ATOM     28  C   UNL     1      -4.958  12.516  18.267  0.00  0.00    +0.000 C 
ENDBRANCH  19  21
ENDBRANCH   1  17
BRANCH   1  30
ATOM     29  C   UNL     1       0.665  15.000  22.000  0.00  0.00    +0.000 C 
ATOM     30  C   UNL     1       0.330  14.294  20.700  0.00  0.00    +0.000 C 
ENDBRANCH   1  30
TORSDOF 5
ENDMDL
MODEL 2
REMARK VINA RESULT:      -6.6      1.987      5.324
REMARK  Name = 
REMARK  9 active torsions:
REMARK  status: ('A' for Active; 'I' for Inactive)
REMARK    1  A    between atoms: C_1  and  C_2
REMARK    2  A    between atoms: C_2  and  C_3
REMARK    3  A    between atoms: C_3  and  C_4
REMARK    4  A    between atoms: C_3  and  N_15
REMARK    5  A    between atoms: N_6  and  C_7
REMARK    6  A    between atoms: C_8  and  C_9
REMARK    7  A    between atoms: C_13  and  C_14
REMARK    8  A    between atoms: C_16  and  C_17
REMARK    9  A    between atoms: C_19  and  C_20
REMARK                            x       y       z     vdW  Elec       q    Type
REMARK                         _______ _______ _______ _____ _____    ______ ____
ROOT
ATOM      1  C   UNL     1      -0.420  12.969  19.483  0.00  0.00    +0.000 C 
ENDROOT
BRANCH   1   2
ATOM      2  N   UNL     1      -1.619  12.987  20.333  0.00  0.00    +0.000 N 
ATOM      3  C   UNL     1      -2.892  12.544  19.981  0.00  0.00    +0.000 A 
ATOM      4  N   UNL     1      -3.726  12.698  20.992  0.00  0.00    +0.000 NA
ATOM      5  C   UNL     1      -3.008  13.242  22.009  0.00  0.00    +0.000 A 
ATOM      6  C   UNL     1      -3.439  13.611  23.302  0.00  0.00    +0.000 A 
ATOM      7  C   UNL     1      -2.517  14.158  24.200  0.00  0.00    +0.000 A 
ATOM      8  C   UNL     1      -1.186  14.305  23.843  0.00  0.00    +0.000 A 
ATOM      9  C   UNL     1      -0.742  13.910  22.582  0.00  0.00    +0.000 A 
ATOM     10  C   UNL     1      -1.673  13.407  21.659  0.00  0.00    +0.000 A 
BRANCH   3  11
ATOM     11  C   UNL     1      -3.335  11.976  18.725  0.00  0.00    +0.000 A 
ATOM     12  C   UNL     1      -2.602  11.566  17.626  0.00  0.00    +0.000 A 
ATOM     13  C   UNL     1      -3.398  11.076  16.538  0.00  0.00    +0.000 A 
ATOM     14  C   UNL     1      -2.838  10.560  15.257  0.00  0.00    +0.000 C 
ATOM     15  C   UNL     1      -4.740  11.166  16.840  0.00  0.00    +0.000 A 
ATOM     16  S   UNL     1      -5.021  11.806  18.399  0.00  0.00    +0.000 S 
ENDBRANCH   3  11
ENDBRANCH   1   2
BRANCH   1  17
ATOM     17  C   UNL     1       0.485  11.797  19.852  0.00  0.00    +0.000 C 
ATOM     18  O   UNL     1       1.564  12.006  20.407  0.00  0.00    +0.000 OA
ATOM     19  N   UNL     1      -0.011  10.540  19.530  0.00  0.00    +0.000 N 
ATOM     20  H   UNL     1      -0.580  10.501  18.694  0.00  0.00    +0.000 HD
BRANCH  19  21
ATOM     21  C   UNL     1       0.703   9.356  19.843  0.00  0.00    +0.000 A 
ATOM     22  C   UNL     1       1.595   8.771  18.916  0.00  0.00    +0.000 A 
ATOM     23  C   UNL     1       1.936   9.366  17.581  0.00  0.00    +0.000 C 
ATOM     24  C   UNL     1       2.253   7.580  19.255  0.00  0.00    +0.000 A 
ATOM     25  C   UNL     1       2.070   6.994  20.501  0.00  0.00    +0.000 A 
ATOM     26  C   UNL     1       1.226   7.595  21.432  0.00  0.00    +0.000 A 
ATOM     27  C   UNL     1       0.540   8.780  21.124  0.00  0.00    +0.000 A 
ATOM     28  C   UNL     1      -0.416   9.334  22.148  0.00  0.00    +0.000 C 
ENDBRANCH  19  21
ENDBRANCH   1  17
BRANCH   1  30
ATOM     29  C   UNL     1      -0.548  15.519  18.997  0.00  0.00    +0.000 C 
ATOM     30  C   UNL     1       0.303  14.323  19.375  0.00  0.00    +0.000 C 
ENDBRANCH   1  30
TORSDOF 5
ENDMDL
MODEL 3
REMARK VINA RESULT:      -6.5      0.726      1.051
REMARK  Name = 
REMARK  9 active torsions:
REMARK  status: ('A' for Active; 'I' for Inactive)
REMARK    1  A    between atoms: C_1  and  C_2
REMARK    2  A    between atoms: C_2  and  C_3
REMARK    3  A    between atoms: C_3  and  C_4
REMARK    4  A    between atoms: C_3  and  N_15
REMARK    5  A    between atoms: N_6  and  C_7
REMARK    6  A    between atoms: C_8  and  C_9
REMARK    7  A    between atoms: C_13  and  C_14
REMARK    8  A    between atoms: C_16  and  C_17
REMARK    9  A    between atoms: C_19  and  C_20
REMARK                            x       y       z     vdW  Elec       q    Type
REMARK                         _______ _______ _______ _____ _____    ______ ____
ROOT
ATOM      1  C   UNL     1      -1.232  13.510  20.709  0.00  0.00    +0.000 C 
ENDROOT
BRANCH   1   2
ATOM      2  N   UNL     1      -1.272  12.439  21.714  0.00  0.00    +0.000 N 
ATOM      3  C   UNL     1      -2.203  12.300  22.741  0.00  0.00    +0.000 A 
ATOM      4  N   UNL     1      -1.945  11.216  23.449  0.00  0.00    +0.000 NA
ATOM      5  C   UNL     1      -0.846  10.642  22.893  0.00  0.00    +0.000 A 
ATOM      6  C   UNL     1      -0.162   9.471  23.287  0.00  0.00    +0.000 A 
ATOM      7  C   UNL     1       0.959   9.056  22.560  0.00  0.00    +0.000 A 
ATOM      8  C   UNL     1       1.376   9.764  21.443  0.00  0.00    +0.000 A 
ATOM      9  C   UNL     1       0.686  10.900  21.023  0.00  0.00    +0.000 A 
ATOM     10  C   UNL     1      -0.409  11.348  21.779  0.00  0.00    +0.000 A 
BRANCH   3  11
ATOM     11  C   UNL     1      -3.327  13.154  23.063  0.00  0.00    +0.000 A 
ATOM     12  C   UNL     1      -4.663  13.030  22.730  0.00  0.00    +0.000 A 
ATOM     13  C   UNL     1      -5.490  14.100  23.207  0.00  0.00    +0.000 A 
ATOM     14  C   UNL     1      -6.963  14.179  22.992  0.00  0.00    +0.000 C 
ATOM     15  C   UNL     1      -4.731  15.041  23.869  0.00  0.00    +0.000 A 
ATOM     16  S   UNL     1      -3.075  14.627  23.926  0.00  0.00    +0.000 S 
ENDBRANCH   3  11
ENDBRANCH   1   2
BRANCH   1  17
ATOM     17  C   UNL     1      -1.511  12.953  19.316  0.00  0.00    +0.000 C 
ATOM     18  O   UNL     1      -0.920  13.416  18.340  0.00  0.00    +0.000 OA
ATOM     19  N   UNL     1      -2.437  11.918  19.265  0.00  0.00    +0.000 N 
ATOM     20  H   UNL     1      -3.178  11.967  19.952  0.00  0.00    +0.000 HD
BRANCH  19  21
ATOM     21  C   UNL     1      -2.771  11.278  18.045  0.00  0.00    +0.000 A 
ATOM     22  C   UNL     1      -1.868  10.396  17.409  0.00  0.00    +0.000 A 
ATOM     23  C   UNL     1      -0.541   9.989  17.980  0.00  0.00    +0.000 C 
ATOM     24  C   UNL     1      -2.227   9.811  16.185  0.00  0.00    +0.000 A 
ATOM     25  C   UNL     1      -3.470  10.057  15.616  0.00  0.00    +0.000 A 
ATOM     26  C   UNL     1      -4.378  10.890  16.265  0.00  0.00    +0.000 A 
ATOM     27  C   UNL     1      -4.048  11.504  17.485  0.00  0.00    +0.000 A 
ATOM     28  C   UNL     1      -5.046  12.453  18.093  0.00  0.00    +0.000 C 
ENDBRANCH  19  21
ENDBRANCH   1  17
BRANCH   1  30
ATOM     29  C   UNL     1      -0.193  15.784  21.420  0.00  0.00    +0.000 C 
ATOM     30  C   UNL     1       0.008  14.417  20.796  0.00  0.00    +0.000 C 
ENDBRANCH   1  30
TORSDOF 5
ENDMDL
MODEL 4
REMARK VINA RESULT:      -6.4      1.763      5.205
REMARK  Name = 
REMARK  9 active torsions:
REMARK  status: ('A' for Active; 'I' for Inactive)
REMARK    1  A    between atoms: C_1  and  C_2
REMARK    2  A    between atoms: C_2  and  C_3
REMARK    3  A    between atoms: C_3  and  C_4
REMARK    4  A    between atoms: C_3  and  N_15
REMARK    5  A    between atoms: N_6  and  C_7
REMARK    6  A    between atoms: C_8  and  C_9
REMARK    7  A    between atoms: C_13  and  C_14
REMARK    8  A    between atoms: C_16  and  C_17
REMARK    9  A    between atoms: C_19  and  C_20
REMARK                            x       y       z     vdW  Elec       q    Type
REMARK                         _______ _______ _______ _____ _____    ______ ____
ROOT
ATOM      1  C   UNL     1      -1.436  13.588  20.017  0.00  0.00    +0.000 C 
ENDROOT
BRANCH   1   2
ATOM      2  N   UNL     1      -2.602  13.384  20.889  0.00  0.00    +0.000 N 
ATOM      3  C   UNL     1      -3.828  12.836  20.519  0.00  0.00    +0.000 A 
ATOM      4  N   UNL     1      -4.641  12.792  21.558  0.00  0.00    +0.000 NA
ATOM      5  C   UNL     1      -3.955  13.310  22.610  0.00  0.00    +0.000 A 
ATOM      6  C   UNL     1      -4.384  13.496  23.943  0.00  0.00    +0.000 A 
ATOM      7  C   UNL     1      -3.500  14.052  24.874  0.00  0.00    +0.000 A 
ATOM      8  C   UNL     1      -2.206  14.385  24.506  0.00  0.00    +0.000 A 
ATOM      9  C   UNL     1      -1.760  14.171  23.202  0.00  0.00    +0.000 A 
ATOM     10  C   UNL     1      -2.659  13.660  22.252  0.00  0.00    +0.000 A 
BRANCH   3  11
ATOM     11  C   UNL     1      -4.245  12.350  19.221  0.00  0.00    +0.000 A 
ATOM     12  C   UNL     1      -3.533  11.657  18.259  0.00  0.00    +0.000 A 
ATOM     13  C   UNL     1      -4.279  11.366  17.070  0.00  0.00    +0.000 A 
ATOM     14  C   UNL     1      -3.736  10.614  15.903  0.00  0.00    +0.000 C 
ATOM     15  C   UNL     1      -5.550  11.892  17.155  0.00  0.00    +0.000 A 
ATOM     16  S   UNL     1      -5.832  12.693  18.637  0.00  0.00    +0.000 S 
ENDBRANCH   3  11
ENDBRANCH   1   2
BRANCH   1  17
ATOM     17  C   UNL     1      -0.381  12.515  20.268  0.00  0.00    +0.000 C 
ATOM     18  O   UNL     1       0.792  12.840  20.459  0.00  0.00    +0.000 OA
ATOM     19  N   UNL     1      -0.852  11.208  20.273  0.00  0.00    +0.000 N 
ATOM     20  H   UNL     1      -1.626  11.026  19.647  0.00  0.00    +0.000 HD
BRANCH  19  21
ATOM     21  C   UNL     1       0.005  10.108  20.527  0.00  0.00    +0.000 A 
ATOM     22  C   UNL     1       0.745   9.501  19.488  0.00  0.00    +0.000 A 
ATOM     23  C   UNL     1       0.770   9.992  18.069  0.00  0.00    +0.000 C 
ATOM     24  C   UNL     1       1.555   8.393  19.778  0.00  0.00    +0.000 A 
ATOM     25  C   UNL     1       1.668   7.915  21.077  0.00  0.00    +0.000 A 
ATOM     26  C   UNL     1       0.974   8.541  22.110  0.00  0.00    +0.000 A 
ATOM     27  C   UNL     1       0.143   9.644  21.855  0.00  0.00    +0.000 A 
ATOM     28  C   UNL     1      -0.637  10.225  23.004  0.00  0.00    +0.000 C 
ENDBRANCH  19  21
ENDBRANCH   1  17
BRANCH   1  30
ATOM     29  C   UNL     1      -0.386  15.556  18.682  0.00  0.00    +0.000 C 
ATOM     30  C   UNL     1      -0.892  15.027  20.010  0.00  0.00    +0.000 C 
ENDBRANCH   1  30
TORSDOF 5
ENDMDL
MODEL 5
REMARK VINA RESULT:      -6.4      2.218      4.738
REMARK  Name = 
REMARK  9 active torsions:
REMARK  status: ('A' for Active; 'I' for Inactive)
REMARK    1  A    between atoms: C_1  and  C_2
REMARK    2  A    between atoms: C_2  and  C_3
REMARK    3  A    between atoms: C_3  and  C_4
REMARK    4  A    between atoms: C_3  and  N_15
REMARK    5  A    between atoms: N_6  and  C_7
REMARK    6  A    between atoms: C_8  and  C_9
REMARK    7  A    between atoms: C_13  and  C_14
REMARK    8  A    between atoms: C_16  and  C_17
REMARK    9  A    between atoms: C_19  and  C_20
REMARK                            x       y       z     vdW  Elec       q    Type
REMARK                         _______ _______ _______ _____ _____    ______ ____
ROOT
ATOM      1  C   UNL     1      -0.640  12.168  21.386  0.00  0.00    +0.000 C 
ENDROOT
BRANCH   1   2
ATOM      2  N   UNL     1      -1.737  12.053  20.415  0.00  0.00    +0.000 N 
ATOM      3  C   UNL     1      -2.964  12.712  20.467  0.00  0.00    +0.000 A 
ATOM      4  N   UNL     1      -3.705  12.383  19.426  0.00  0.00    +0.000 NA
ATOM      5  C   UNL     1      -2.971  11.510  18.687  0.00  0.00    +0.000 A 
ATOM      6  C   UNL     1      -3.318  10.855  17.485  0.00  0.00    +0.000 A 
ATOM      7  C   UNL     1      -2.396   9.989  16.888  0.00  0.00    +0.000 A 
ATOM      8  C   UNL     1      -1.142   9.798  17.447  0.00  0.00    +0.000 A 
ATOM      9  C   UNL     1      -0.776  10.468  18.614  0.00  0.00    +0.000 A 
ATOM     10  C   UNL     1      -1.716  11.300  19.244  0.00  0.00    +0.000 A 
BRANCH   3  11
ATOM     11  C   UNL     1      -3.447  13.642  21.466  0.00  0.00    +0.000 A 
ATOM     12  C   UNL     1      -3.408  15.024  21.487  0.00  0.00    +0.000 A 
ATOM     13  C   UNL     1      -3.965  15.610  22.672  0.00  0.00    +0.000 A 
ATOM     14  C   UNL     1      -4.056  17.078  22.917  0.00  0.00    +0.000 C 
ATOM     15  C   UNL     1      -4.383  14.631  23.547  0.00  0.00    +0.000 A 
ATOM     16  S   UNL     1      -4.126  13.055  22.939  0.00  0.00    +0.000 S 
ENDBRANCH   3  11
ENDBRANCH   1   2
BRANCH   1  17
ATOM     17  C   UNL     1       0.424  13.140  20.885  0.00  0.00    +0.000 C 
ATOM     18  O   UNL     1       1.420  13.367  21.572  0.00  0.00    +0.000 OA
ATOM     19  N   UNL     1       0.175  13.702  19.639  0.00  0.00    +0.000 N 
ATOM     20  H   UNL     1      -0.801  13.858  19.422  0.00  0.00    +0.000 HD
BRANCH  19  21
ATOM     21  C   UNL     1       1.091  14.596  19.029  0.00  0.00    +0.000 A 
ATOM     22  C   UNL     1       2.241  14.123  18.358  0.00  0.00    +0.000 A 
ATOM     23  C   UNL     1       2.560  12.671  18.150  0.00  0.00    +0.000 C 
ATOM     24  C   UNL     1       3.138  15.045  17.799  0.00  0.00    +0.000 A 
ATOM     25  C   UNL     1       2.888  16.409  17.863  0.00  0.00    +0.000 A 
ATOM     26  C   UNL     1       1.732  16.875  18.485  0.00  0.00    +0.000 A 
ATOM     27  C   UNL     1       0.818  15.982  19.068  0.00  0.00    +0.000 A 
ATOM     28  C   UNL     1      -0.372  16.556  19.790  0.00  0.00    +0.000 C 
ENDBRANCH  19  21
ENDBRANCH   1  17
BRANCH   1  30
ATOM     29  C   UNL     1      -0.785  10.200  23.078  0.00  0.00    +0.000 C 
ATOM     30  C   UNL     1      -0.089  10.820  21.883  0.00  0.00    +0.000 C 
ENDBRANCH   1  30
TORSDOF 5
ENDMDL
MODEL 6
REMARK VINA RESULT:      -6.4      2.301      5.653
REMARK  Name = 
REMARK  9 active torsions:
REMARK  status: ('A' for Active; 'I' for Inactive)
REMARK    1  A    between atoms: C_1  and  C_2
REMARK    2  A    between atoms: C_2  and  C_3
REMARK    3  A    between atoms: C_3  and  C_4
REMARK    4  A    between atoms: C_3  and  N_15
REMARK    5  A    between atoms: N_6  and  C_7
REMARK    6  A    between atoms: C_8  and  C_9
REMARK    7  A    between atoms: C_13  and  C_14
REMARK    8  A    between atoms: C_16  and  C_17
REMARK    9  A    between atoms: C_19  and  C_20
REMARK                            x       y       z     vdW  Elec       q    Type
REMARK                         _______ _______ _______ _____ _____    ______ ____
ROOT
ATOM      1  C   UNL     1      -3.960  12.653  23.082  0.00  0.00    +0.000 C 
ENDROOT
BRANCH   1   2
ATOM      2  N   UNL     1      -2.736  13.407  23.389  0.00  0.00    +0.000 N 
ATOM      3  C   UNL     1      -1.437  13.064  23.019  0.00  0.00    +0.000 A 
ATOM      4  N   UNL     1      -0.584  13.973  23.452  0.00  0.00    +0.000 NA
ATOM      5  C   UNL     1      -1.316  14.913  24.106  0.00  0.00    +0.000 A 
ATOM      6  C   UNL     1      -0.874  16.083  24.762  0.00  0.00    +0.000 A 
ATOM      7  C   UNL     1      -1.813  16.919  25.375  0.00  0.00    +0.000 A 
ATOM      8  C   UNL     1      -3.166  16.626  25.312  0.00  0.00    +0.000 A 
ATOM      9  C   UNL     1      -3.616  15.493  24.635  0.00  0.00    +0.000 A 
ATOM     10  C   UNL     1      -2.674  14.624  24.062  0.00  0.00    +0.000 A 
BRANCH   3  11
ATOM     11  C   UNL     1      -0.986  11.912  22.267  0.00  0.00    +0.000 A 
ATOM     12  C   UNL     1      -0.687  11.789  20.923  0.00  0.00    +0.000 A 
ATOM     13  C   UNL     1      -0.296  10.468  20.527  0.00  0.00    +0.000 A 
ATOM     14  C   UNL     1       0.094  10.091  19.138  0.00  0.00    +0.000 C 
ATOM     15  C   UNL     1      -0.347   9.604  21.600  0.00  0.00    +0.000 A 
ATOM     16  S   UNL     1      -0.835  10.378  23.042  0.00  0.00    +0.000 S 
ENDBRANCH   3  11
ENDBRANCH   1   2
BRANCH   1  17
ATOM     17  C   UNL     1      -4.544  13.095  21.743  0.00  0.00    +0.000 C 
ATOM     18  O   UNL     1      -4.431  14.266  21.381  0.00  0.00    +0.000 OA
ATOM     19  N   UNL     1      -5.169  12.094  21.009  0.00  0.00    +0.000 N 
ATOM     20  H   UNL     1      -5.633  11.382  21.558  0.00  0.00    +0.000 HD
BRANCH  19  21
ATOM     21  C   UNL     1      -5.727  12.347  19.731  0.00  0.00    +0.000 A 
ATOM     22  C   UNL     1      -7.038  12.857  19.593  0.00  0.00    +0.000 A 
ATOM     23  C   UNL     1      -7.916  13.255  20.743  0.00  0.00    +0.000 C 
ATOM     24  C   UNL     1      -7.564  13.060  18.308  0.00  0.00    +0.000 A 
ATOM     25  C   UNL     1      -6.799  12.804  17.177  0.00  0.00    +0.000 A 
ATOM     26  C   UNL     1      -5.491  12.343  17.314  0.00  0.00    +0.000 A 
ATOM     27  C   UNL     1      -4.936  12.116  18.584  0.00  0.00    +0.000 A 
ATOM     28  C   UNL     1      -3.544  11.546  18.658  0.00  0.00    +0.000 C 
ENDBRANCH  19  21
ENDBRANCH   1  17
BRANCH   1  30
ATOM     29  C   UNL     1      -6.368  13.128  23.940  0.00  0.00    +0.000 C 
ATOM     30  C   UNL     1      -4.978  12.599  24.235  0.00  0.00    +0.000 C 
ENDBRANCH   1  30
TORSDOF 5
ENDMDL
MODEL 7
REMARK VINA RESULT:      -6.4      2.224      5.015
REMARK  Name = 
REMARK  9 active torsions:
REMARK  status: ('A' for Active; 'I' for Inactive)
REMARK    1  A    between atoms: C_1  and  C_2
REMARK    2  A    between atoms: C_2  and  C_3
REMARK    3  A    between atoms: C_3  and  C_4
REMARK    4  A    between atoms: C_3  and  N_15
REMARK    5  A    between atoms: N_6  and  C_7
REMARK    6  A    between atoms: C_8  and  C_9
REMARK    7  A    between atoms: C_13  and  C_14
REMARK    8  A    between atoms: C_16  and  C_17
REMARK    9  A    between atoms: C_19  and  C_20
REMARK                            x       y       z     vdW  Elec       q    Type
REMARK                         _______ _______ _______ _____ _____    ______ ____
ROOT
ATOM      1  C   UNL     1      -0.467  12.030  21.384  0.00  0.00    +0.000 C 
ENDROOT
BRANCH   1   2
ATOM      2  N   UNL     1      -1.611  12.006  20.461  0.00  0.00    +0.000 N 
ATOM      3  C   UNL     1      -2.799  12.721  20.593  0.00  0.00    +0.000 A 
ATOM      4  N   UNL     1      -3.600  12.469  19.575  0.00  0.00    +0.000 NA
ATOM      5  C   UNL     1      -2.945  11.590  18.773  0.00  0.00    +0.000 A 
ATOM      6  C   UNL     1      -3.377  10.999  17.565  0.00  0.00    +0.000 A 
ATOM      7  C   UNL     1      -2.527  10.112  16.896  0.00  0.00    +0.000 A 
ATOM      8  C   UNL     1      -1.262   9.839  17.390  0.00  0.00    +0.000 A 
ATOM      9  C   UNL     1      -0.811  10.445  18.562  0.00  0.00    +0.000 A 
ATOM     10  C   UNL     1      -1.678  11.297  19.264  0.00  0.00    +0.000 A 
BRANCH   3  11
ATOM     11  C   UNL     1      -3.190  13.635  21.645  0.00  0.00    +0.000 A 
ATOM     12  C   UNL     1      -2.921  14.983  21.798  0.00  0.00    +0.000 A 
ATOM     13  C   UNL     1      -3.456  15.556  22.999  0.00  0.00    +0.000 A 
ATOM     14  C   UNL     1      -3.316  16.992  23.376  0.00  0.00    +0.000 C 
ATOM     15  C   UNL     1      -4.095  14.596  23.752  0.00  0.00    +0.000 A 
ATOM     16  S   UNL     1      -4.063  13.055  23.015  0.00  0.00    +0.000 S 
ENDBRANCH   3  11
ENDBRANCH   1   2
BRANCH   1  17
ATOM     17  C   UNL     1       0.597  13.011  20.899  0.00  0.00    +0.000 C 
ATOM     18  O   UNL     1       1.612  13.195  21.570  0.00  0.00    +0.000 OA
ATOM     19  N   UNL     1       0.325  13.629  19.686  0.00  0.00    +0.000 N 
ATOM     20  H   UNL     1      -0.654  13.807  19.501  0.00  0.00    +0.000 HD
BRANCH  19  21
ATOM     21  C   UNL     1       1.237  14.539  19.093  0.00  0.00    +0.000 A 
ATOM     22  C   UNL     1       1.096  15.934  19.265  0.00  0.00    +0.000 A 
ATOM     23  C   UNL     1       0.055  16.578  20.135  0.00  0.00    +0.000 C 
ATOM     24  C   UNL     1       2.001  16.799  18.632  0.00  0.00    +0.000 A 
ATOM     25  C   UNL     1       3.052  16.299  17.875  0.00  0.00    +0.000 A 
ATOM     26  C   UNL     1       3.218  14.922  17.741  0.00  0.00    +0.000 A 
ATOM     27  C   UNL     1       2.324  14.026  18.350  0.00  0.00    +0.000 A 
ATOM     28  C   UNL     1       2.517  12.554  18.102  0.00  0.00    +0.000 C 
ENDBRANCH  19  21
ENDBRANCH   1  17
BRANCH   1  30
ATOM     29  C   UNL     1      -0.519   9.995  23.000  0.00  0.00    +0.000 C 
ATOM     30  C   UNL     1       0.072  10.640  21.762  0.00  0.00    +0.000 C 
ENDBRANCH   1  30
TORSDOF 5
ENDMDL
MODEL 8
REMARK VINA RESULT:      -6.4      2.312      6.388
REMARK  Name = 
REMARK  9 active torsions:
REMARK  status: ('A' for Active; 'I' for Inactive)
REMARK    1  A    between atoms: C_1  and  C_2
REMARK    2  A    between atoms: C_2  and  C_3
REMARK    3  A    between atoms: C_3  and  C_4
REMARK    4  A    between atoms: C_3  and  N_15
REMARK    5  A    between atoms: N_6  and  C_7
REMARK    6  A    between atoms: C_8  and  C_9
REMARK    7  A    between atoms: C_13  and  C_14
REMARK    8  A    between atoms: C_16  and  C_17
REMARK    9  A    between atoms: C_19  and  C_20
REMARK                            x       y       z     vdW  Elec       q    Type
REMARK                         _______ _______ _______ _____ _____    ______ ____
ROOT
ATOM      1  C   UNL     1      -0.643  11.068  20.982  0.00  0.00    +0.000 C 
ENDROOT
BRANCH   1   2
ATOM      2  N   UNL     1      -0.240  11.987  19.908  0.00  0.00    +0.000 N 
ATOM      3  C   UNL     1      -0.949  12.260  18.741  0.00  0.00    +0.000 A 
ATOM      4  N   UNL     1      -0.298  13.142  18.006  0.00  0.00    +0.000 NA
ATOM      5  C   UNL     1       0.839  13.450  18.684  0.00  0.00    +0.000 A 
ATOM      6  C   UNL     1       1.878  14.334  18.319  0.00  0.00    +0.000 A 
ATOM      7  C   UNL     1       2.966  14.503  19.181  0.00  0.00    +0.000 A 
ATOM      8  C   UNL     1       3.012  13.840  20.397  0.00  0.00    +0.000 A 
ATOM      9  C   UNL     1       1.973  12.994  20.785  0.00  0.00    +0.000 A 
ATOM     10  C   UNL     1       0.903  12.782  19.901  0.00  0.00    +0.000 A 
BRANCH   3  11
ATOM     11  C   UNL     1      -2.220  11.719  18.309  0.00  0.00    +0.000 A 
ATOM     12  C   UNL     1      -3.495  11.947  18.793  0.00  0.00    +0.000 A 
ATOM     13  C   UNL     1      -4.520  11.200  18.124  0.00  0.00    +0.000 A 
ATOM     14  C   UNL     1      -5.972  11.291  18.452  0.00  0.00    +0.000 C 
ATOM     15  C   UNL     1      -3.973  10.383  17.159  0.00  0.00    +0.000 A 
ATOM     16  S   UNL     1      -2.275  10.534  17.055  0.00  0.00    +0.000 S 
ENDBRANCH   3  11
ENDBRANCH   1   2
BRANCH   1  17
ATOM     17  C   UNL     1      -0.910  11.834  22.275  0.00  0.00    +0.000 C 
ATOM     18  O   UNL     1      -0.481  11.402  23.345  0.00  0.00    +0.000 OA
ATOM     19  N   UNL     1      -1.635  13.010  22.129  0.00  0.00    +0.000 N 
ATOM     20  H   UNL     1      -2.325  13.004  21.388  0.00  0.00    +0.000 HD
BRANCH  19  21
ATOM     21  C   UNL     1      -1.931  13.845  23.236  0.00  0.00    +0.000 A 
ATOM     22  C   UNL     1      -3.037  13.584  24.075  0.00  0.00    +0.000 A 
ATOM     23  C   UNL     1      -3.935  12.388  23.943  0.00  0.00    +0.000 C 
ATOM     24  C   UNL     1      -3.313  14.456  25.139  0.00  0.00    +0.000 A 
ATOM     25  C   UNL     1      -2.490  15.545  25.398  0.00  0.00    +0.000 A 
ATOM     26  C   UNL     1      -1.374  15.777  24.598  0.00  0.00    +0.000 A 
ATOM     27  C   UNL     1      -1.074  14.933  23.516  0.00  0.00    +0.000 A 
ATOM     28  C   UNL     1       0.103  15.286  22.646  0.00  0.00    +0.000 C 
ENDBRANCH  19  21
ENDBRANCH   1  17
BRANCH   1  30
ATOM     29  C   UNL     1      -0.387   8.561  21.620  0.00  0.00    +0.000 C 
ATOM     30  C   UNL     1       0.272   9.842  21.146  0.00  0.00    +0.000 C 
ENDBRANCH   1  30
TORSDOF 5
ENDMDL
MODEL 9
REMARK VINA RESULT:      -6.3      2.324      6.324
REMARK  Name = 
REMARK  9 active torsions:
REMARK  status: ('A' for Active; 'I' for Inactive)
REMARK    1  A    between atoms: C_1  and  C_2
REMARK    2  A    between atoms: C_2  and  C_3
REMARK    3  A    between atoms: C_3  and  C_4
REMARK    4  A    between atoms: C_3  and  N_15
REMARK    5  A    between atoms: N_6  and  C_7
REMARK    6  A    between atoms: C_8  and  C_9
REMARK    7  A    between atoms: C_13  and  C_14
REMARK    8  A    between atoms: C_16  and  C_17
REMARK    9  A    between atoms: C_19  and  C_20
REMARK                            x       y       z     vdW  Elec       q    Type
REMARK                         _______ _______ _______ _____ _____    ______ ____
ROOT
ATOM      1  C   UNL     1      -0.605  11.055  20.985  0.00  0.00    +0.000 C 
ENDROOT
BRANCH   1   2
ATOM      2  N   UNL     1      -0.203  11.966  19.903  0.00  0.00    +0.000 N 
ATOM      3  C   UNL     1      -0.900  12.208  18.721  0.00  0.00    +0.000 A 
ATOM      4  N   UNL     1      -0.255  13.091  17.982  0.00  0.00    +0.000 NA
ATOM      5  C   UNL     1       0.865  13.431  18.673  0.00  0.00    +0.000 A 
ATOM      6  C   UNL     1       1.893  14.329  18.310  0.00  0.00    +0.000 A 
ATOM      7  C   UNL     1       2.965  14.532  19.185  0.00  0.00    +0.000 A 
ATOM      8  C   UNL     1       3.005  13.888  20.412  0.00  0.00    +0.000 A 
ATOM      9  C   UNL     1       1.977  13.028  20.796  0.00  0.00    +0.000 A 
ATOM     10  C   UNL     1       0.924  12.782  19.900  0.00  0.00    +0.000 A 
BRANCH   3  11
ATOM     11  C   UNL     1      -2.154  11.636  18.279  0.00  0.00    +0.000 A 
ATOM     12  C   UNL     1      -3.445  11.879  18.711  0.00  0.00    +0.000 A 
ATOM     13  C   UNL     1      -4.444  11.091  18.051  0.00  0.00    +0.000 A 
ATOM     14  C   UNL     1      -5.906  11.188  18.329  0.00  0.00    +0.000 C 
ATOM     15  C   UNL     1      -3.863  10.230  17.145  0.00  0.00    +0.000 A 
ATOM     16  S   UNL     1      -2.163  10.389  17.085  0.00  0.00    +0.000 S 
ENDBRANCH   3  11
ENDBRANCH   1   2
BRANCH   1  17
ATOM     17  C   UNL     1      -0.862  11.831  22.274  0.00  0.00    +0.000 C 
ATOM     18  O   UNL     1      -0.432  11.400  23.344  0.00  0.00    +0.000 OA
ATOM     19  N   UNL     1      -1.578  13.012  22.124  0.00  0.00    +0.000 N 
ATOM     20  H   UNL     1      -2.270  13.007  21.385  0.00  0.00    +0.000 HD
BRANCH  19  21
ATOM     21  C   UNL     1      -1.863  13.855  23.227  0.00  0.00    +0.000 A 
ATOM     22  C   UNL     1      -1.028  14.949  23.547  0.00  0.00    +0.000 A 
ATOM     23  C   UNL     1       0.159  15.374  22.732  0.00  0.00    +0.000 C 
ATOM     24  C   UNL     1      -1.328  15.737  24.668  0.00  0.00    +0.000 A 
ATOM     25  C   UNL     1      -2.454  15.478  25.439  0.00  0.00    +0.000 A 
ATOM     26  C   UNL     1      -3.302  14.427  25.098  0.00  0.00    +0.000 A 
ATOM     27  C   UNL     1      -3.026  13.609  23.990  0.00  0.00    +0.000 A 
ATOM     28  C   UNL     1      -3.942  12.444  23.723  0.00  0.00    +0.000 C 
ENDBRANCH  19  21
ENDBRANCH   1  17
BRANCH   1  30
ATOM     29  C   UNL     1      -0.369   8.534  21.569  0.00  0.00    +0.000 C 
ATOM     30  C   UNL     1       0.305   9.826  21.151  0.00  0.00    +0.000 C 
ENDBRANCH   1  30
TORSDOF 5
ENDMDL
