MODEL 1
REMARK VINA RESULT:      -8.7      0.000      0.000
REMARK  Name = 
REMARK  5 active torsions:
REMARK  status: ('A' for Active; 'I' for Inactive)
REMARK    1  A    between atoms: C_2  and  C_3
REMARK    2  A    between atoms: C_3  and  C_4
REMARK    3  A    between atoms: C_7  and  O_8
REMARK    4  A    between atoms: N_18  and  S_19
REMARK    5  A    between atoms: S_19  and  C_22
REMARK                            x       y       z     vdW  Elec       q    Type
REMARK                         _______ _______ _______ _____ _____    ______ ____
ROOT
ATOM      1  O   UNL     1       2.217   7.967  17.577  0.00  0.00    +0.000 OA
ATOM      2  C   UNL     1       2.072   8.047  18.799  0.00  0.00    +0.000 C 
ATOM      3  N   UNL     1       1.449   9.132  19.401  0.00  0.00    +0.000 N 
ATOM      4  C   UNL     1       0.910  10.197  18.546  0.00  0.00    +0.000 C 
ATOM      5  C   UNL     1      -0.607  10.333  18.727  0.00  0.00    +0.000 C 
ATOM      6  N   UNL     1      -0.984  10.526  20.167  0.00  0.00    +0.000 NA
ATOM      7  C   UNL     1      -0.484   9.348  20.960  0.00  0.00    +0.000 C 
ATOM      8  C   UNL     1       1.045   9.197  20.819  0.00  0.00    +0.000 C 
ENDROOT
BRANCH   6   9
ATOM      9  S   UNL     1      -0.634  12.027  20.899  0.00  0.00    +0.000 S 
ATOM     10  O   UNL     1       0.187  11.769  22.066  0.00  0.00    +0.000 OA
ATOM     11  O   UNL     1      -0.190  12.950  19.878  0.00  0.00    +0.000 OA
BRANCH   9  12
ATOM     12  C   UNL     1      -2.204  12.597  21.474  0.00  0.00    +0.000 A 
ATOM     13  C   UNL     1      -3.002  13.373  20.629  0.00  0.00    +0.000 A 
ATOM     14  C   UNL     1      -4.225  13.848  21.098  0.00  0.00    +0.000 A 
ATOM     15  C   UNL     1      -4.640  13.533  22.394  0.00  0.00    +0.000 A 
ATOM     16  F   UNL     1      -5.820  14.006  22.821  0.00  0.00    +0.000 F 
ATOM     17  C   UNL     1      -3.847  12.747  23.227  0.00  0.00    +0.000 A 
ATOM     18 CL   UNL     1      -4.365  12.350  24.820  0.00  0.00    +0.000 Cl
ATOM     19  C   UNL     1      -2.619  12.276  22.773  0.00  0.00    +0.000 A 
ENDBRANCH   9  12
ENDBRANCH   6   9
BRANCH   2  20
ATOM     20  C   UNL     1       2.610   6.949  19.697  0.00  0.00    +0.000 C 
BRANCH  20  21
ATOM     21  C   UNL     1       3.257   5.821  18.933  0.00  0.00    +0.000 A 
ATOM     22  N   UNL     1       4.414   6.117  18.284  0.00  0.00    +0.000 NA
ATOM     23  N   UNL     1       5.026   5.201  17.504  0.00  0.00    +0.000 NA
ATOM     24  C   UNL     1       4.475   3.983  17.391  0.00  0.00    +0.000 A 
ATOM     25  C   UNL     1       3.299   3.594  18.021  0.00  0.00    +0.000 A 
ATOM     26  C   UNL     1       2.743   2.308  17.873  0.00  0.00    +0.000 A 
ATOM     27  C   UNL     1       1.564   1.958  18.527  0.00  0.00    +0.000 A 
ATOM     28  C   UNL     1       0.922   2.890  19.336  0.00  0.00    +0.000 A 
ATOM     29  C   UNL     1       1.458   4.172  19.487  0.00  0.00    +0.000 A 
ATOM     30  C   UNL     1       2.657   4.548  18.835  0.00  0.00    +0.000 A 
BRANCH  24  31
ATOM     31  O   UNL     1       5.179   3.132  16.594  0.00  0.00    +0.000 OA
ATOM     32  H   UNL     1       4.726   2.289  16.776  0.00  0.00    +0.000 HD
ENDBRANCH  24  31
ENDBRANCH  20  21
ENDBRANCH   2  20
TORSDOF 5
ENDMDL
MODEL 2
REMARK VINA RESULT:      -8.7      0.888      1.237
REMARK  Name = 
REMARK  5 active torsions:
REMARK  status: ('A' for Active; 'I' for Inactive)
REMARK    1  A    between atoms: C_2  and  C_3
REMARK    2  A    between atoms: C_3  and  C_4
REMARK    3  A    between atoms: C_7  and  O_8
REMARK    4  A    between atoms: N_18  and  S_19
REMARK    5  A    between atoms: S_19  and  C_22
REMARK                            x       y       z     vdW  Elec       q    Type
REMARK                         _______ _______ _______ _____ _____    ______ ____
ROOT
ATOM      1  O   UNL     1       2.287   7.977  17.541  0.00  0.00    +0.000 OA
ATOM      2  C   UNL     1       2.116   8.055  18.760  0.00  0.00    +0.000 C 
ATOM      3  N   UNL     1       1.477   9.136  19.350  0.00  0.00    +0.000 N 
ATOM      4  C   UNL     1       0.952  10.201  18.486  0.00  0.00    +0.000 C 
ATOM      5  C   UNL     1      -0.569  10.331  18.635  0.00  0.00    +0.000 C 
ATOM      6  N   UNL     1      -0.977  10.520  20.067  0.00  0.00    +0.000 NA
ATOM      7  C   UNL     1      -0.489   9.343  20.868  0.00  0.00    +0.000 C 
ATOM      8  C   UNL     1       1.043   9.197  20.760  0.00  0.00    +0.000 C 
ENDROOT
BRANCH   6   9
ATOM      9  S   UNL     1      -0.648  12.020  20.808  0.00  0.00    +0.000 S 
ATOM     10  O   UNL     1       0.405  11.811  21.782  0.00  0.00    +0.000 OA
ATOM     11  O   UNL     1      -0.508  13.027  19.779  0.00  0.00    +0.000 OA
BRANCH   9  12
ATOM     12  C   UNL     1      -2.128  12.387  21.702  0.00  0.00    +0.000 A 
ATOM     13  C   UNL     1      -2.173  12.149  23.079  0.00  0.00    +0.000 A 
ATOM     14  C   UNL     1      -3.353  12.409  23.773  0.00  0.00    +0.000 A 
ATOM     15  C   UNL     1      -4.462  12.914  23.091  0.00  0.00    +0.000 A 
ATOM     16  F   UNL     1      -5.586  13.151  23.784  0.00  0.00    +0.000 F 
ATOM     17  C   UNL     1      -4.407  13.163  21.721  0.00  0.00    +0.000 A 
ATOM     18 CL   UNL     1      -5.771  13.795  20.883  0.00  0.00    +0.000 Cl
ATOM     19  C   UNL     1      -3.237  12.897  21.015  0.00  0.00    +0.000 A 
ENDBRANCH   9  12
ENDBRANCH   6   9
BRANCH   2  20
ATOM     20  C   UNL     1       2.640   6.958  19.667  0.00  0.00    +0.000 C 
BRANCH  20  21
ATOM     21  C   UNL     1       3.300   5.829  18.914  0.00  0.00    +0.000 A 
ATOM     22  N   UNL     1       4.474   6.121  18.297  0.00  0.00    +0.000 NA
ATOM     23  N   UNL     1       5.101   5.205  17.528  0.00  0.00    +0.000 NA
ATOM     24  C   UNL     1       4.546   3.991  17.396  0.00  0.00    +0.000 A 
ATOM     25  C   UNL     1       3.352   3.606  17.995  0.00  0.00    +0.000 A 
ATOM     26  C   UNL     1       2.793   2.324  17.826  0.00  0.00    +0.000 A 
ATOM     27  C   UNL     1       1.597   1.978  18.449  0.00  0.00    +0.000 A 
ATOM     28  C   UNL     1       0.939   2.909  19.245  0.00  0.00    +0.000 A 
ATOM     29  C   UNL     1       1.478   4.188  19.416  0.00  0.00    +0.000 A 
ATOM     30  C   UNL     1       2.695   4.560  18.796  0.00  0.00    +0.000 A 
BRANCH  24  31
ATOM     31  O   UNL     1       5.266   3.140  16.613  0.00  0.00    +0.000 OA
ATOM     32  H   UNL     1       5.733   2.616  17.289  0.00  0.00    +0.000 HD
ENDBRANCH  24  31
ENDBRANCH  20  21
ENDBRANCH   2  20
TORSDOF 5
ENDMDL
MODEL 3
REMARK VINA RESULT:      -8.7      1.352      2.117
REMARK  Name = 
REMARK  5 active torsions:
REMARK  status: ('A' for Active; 'I' for Inactive)
REMARK    1  A    between atoms: C_2  and  C_3
REMARK    2  A    between atoms: C_3  and  C_4
REMARK    3  A    between atoms: C_7  and  O_8
REMARK    4  A    between atoms: N_18  and  S_19
REMARK    5  A    between atoms: S_19  and  C_22
REMARK                            x       y       z     vdW  Elec       q    Type
REMARK                         _______ _______ _______ _____ _____    ______ ____
ROOT
ATOM      1  O   UNL     1       2.093   8.093  17.604  0.00  0.00    +0.000 OA
ATOM      2  C   UNL     1       2.077   8.067  18.837  0.00  0.00    +0.000 C 
ATOM      3  N   UNL     1       1.471   9.063  19.591  0.00  0.00    +0.000 N 
ATOM      4  C   UNL     1       0.790  10.159  18.890  0.00  0.00    +0.000 C 
ATOM      5  C   UNL     1      -0.702  10.192  19.239  0.00  0.00    +0.000 C 
ATOM      6  N   UNL     1      -0.931  10.248  20.721  0.00  0.00    +0.000 NA
ATOM      7  C   UNL     1      -0.290   9.042  21.354  0.00  0.00    +0.000 C 
ATOM      8  C   UNL     1       1.220   8.991  21.044  0.00  0.00    +0.000 C 
ENDROOT
BRANCH   6   9
ATOM      9  S   UNL     1      -0.578  11.703  21.537  0.00  0.00    +0.000 S 
ATOM     10  O   UNL     1       0.055  11.362  22.796  0.00  0.00    +0.000 OA
ATOM     11  O   UNL     1       0.067  12.611  20.613  0.00  0.00    +0.000 OA
BRANCH   9  12
ATOM     12  C   UNL     1      -2.168  12.378  21.911  0.00  0.00    +0.000 A 
ATOM     13  C   UNL     1      -2.803  13.196  20.972  0.00  0.00    +0.000 A 
ATOM     14  C   UNL     1      -4.042  13.752  21.285  0.00  0.00    +0.000 A 
ATOM     15  C   UNL     1      -4.634  13.476  22.519  0.00  0.00    +0.000 A 
ATOM     16  F   UNL     1      -5.825  14.028  22.795  0.00  0.00    +0.000 F 
ATOM     17  C   UNL     1      -4.003  12.649  23.446  0.00  0.00    +0.000 A 
ATOM     18 CL   UNL     1      -4.739  12.301  24.963  0.00  0.00    +0.000 Cl
ATOM     19  C   UNL     1      -2.761  12.097  23.149  0.00  0.00    +0.000 A 
ENDBRANCH   9  12
ENDBRANCH   6   9
BRANCH   2  20
ATOM     20  C   UNL     1       2.764   6.935  19.578  0.00  0.00    +0.000 C 
BRANCH  20  21
ATOM     21  C   UNL     1       2.677   5.614  18.854  0.00  0.00    +0.000 A 
ATOM     22  N   UNL     1       1.654   4.796  19.214  0.00  0.00    +0.000 NA
ATOM     23  N   UNL     1       1.537   3.558  18.688  0.00  0.00    +0.000 NA
ATOM     24  C   UNL     1       2.447   3.154  17.789  0.00  0.00    +0.000 A 
ATOM     25  C   UNL     1       3.521   3.926  17.362  0.00  0.00    +0.000 A 
ATOM     26  C   UNL     1       4.465   3.466  16.422  0.00  0.00    +0.000 A 
ATOM     27  C   UNL     1       5.524   4.275  16.017  0.00  0.00    +0.000 A 
ATOM     28  C   UNL     1       5.657   5.553  16.548  0.00  0.00    +0.000 A 
ATOM     29  C   UNL     1       4.733   6.021  17.487  0.00  0.00    +0.000 A 
ATOM     30  C   UNL     1       3.647   5.218  17.910  0.00  0.00    +0.000 A 
BRANCH  24  31
ATOM     31  O   UNL     1       2.229   1.898  17.311  0.00  0.00    +0.000 OA
ATOM     32  H   UNL     1       2.008   1.422  18.132  0.00  0.00    +0.000 HD
ENDBRANCH  24  31
ENDBRANCH  20  21
ENDBRANCH   2  20
TORSDOF 5
ENDMDL
MODEL 4
REMARK VINA RESULT:      -8.6      5.029      9.891
REMARK  Name = 
REMARK  5 active torsions:
REMARK  status: ('A' for Active; 'I' for Inactive)
REMARK    1  A    between atoms: C_2  and  C_3
REMARK    2  A    between atoms: C_3  and  C_4
REMARK    3  A    between atoms: C_7  and  O_8
REMARK    4  A    between atoms: N_18  and  S_19
REMARK    5  A    between atoms: S_19  and  C_22
REMARK                            x       y       z     vdW  Elec       q    Type
REMARK                         _______ _______ _______ _____ _____    ______ ____
ROOT
ATOM      1  O   UNL     1       0.461   7.572  21.501  0.00  0.00    +0.000 OA
ATOM      2  C   UNL     1       1.308   7.564  20.605  0.00  0.00    +0.000 C 
ATOM      3  N   UNL     1       1.967   6.405  20.219  0.00  0.00    +0.000 N 
ATOM      4  C   UNL     1       1.609   5.141  20.876  0.00  0.00    +0.000 C 
ATOM      5  C   UNL     1       1.061   4.130  19.862  0.00  0.00    +0.000 C 
ATOM      6  N   UNL     1       2.005   3.918  18.715  0.00  0.00    +0.000 NA
ATOM      7  C   UNL     1       2.243   5.238  18.034  0.00  0.00    +0.000 C 
ATOM      8  C   UNL     1       2.820   6.273  19.022  0.00  0.00    +0.000 C 
ENDROOT
BRANCH   6   9
ATOM      9  S   UNL     1       3.440   3.041  19.004  0.00  0.00    +0.000 S 
ATOM     10  O   UNL     1       3.816   3.252  20.388  0.00  0.00    +0.000 OA
ATOM     11  O   UNL     1       3.281   1.702  18.481  0.00  0.00    +0.000 OA
BRANCH   9  12
ATOM     12  C   UNL     1       4.645   3.855  18.000  0.00  0.00    +0.000 A 
ATOM     13  C   UNL     1       4.577   3.727  16.610  0.00  0.00    +0.000 A 
ATOM     14  C   UNL     1       5.549   4.344  15.824  0.00  0.00    +0.000 A 
ATOM     15  C   UNL     1       6.563   5.087  16.432  0.00  0.00    +0.000 A 
ATOM     16  F   UNL     1       7.488   5.667  15.651  0.00  0.00    +0.000 F 
ATOM     17  C   UNL     1       6.618   5.223  17.818  0.00  0.00    +0.000 A 
ATOM     18 CL   UNL     1       7.862   6.148  18.565  0.00  0.00    +0.000 Cl
ATOM     19  C   UNL     1       5.660   4.602  18.613  0.00  0.00    +0.000 A 
ENDBRANCH   9  12
ENDBRANCH   6   9
BRANCH   2  20
ATOM     20  C   UNL     1       1.680   8.858  19.906  0.00  0.00    +0.000 C 
BRANCH  20  21
ATOM     21  C   UNL     1       0.776  10.010  20.268  0.00  0.00    +0.000 A 
ATOM     22  N   UNL     1       1.015  10.610  21.463  0.00  0.00    +0.000 NA
ATOM     23  N   UNL     1       0.210  11.595  21.918  0.00  0.00    +0.000 NA
ATOM     24  C   UNL     1      -0.826  11.980  21.158  0.00  0.00    +0.000 A 
ATOM     25  C   UNL     1      -1.139  11.424  19.923  0.00  0.00    +0.000 A 
ATOM     26  C   UNL     1      -2.242  11.848  19.155  0.00  0.00    +0.000 A 
ATOM     27  C   UNL     1      -2.518  11.267  17.920  0.00  0.00    +0.000 A 
ATOM     28  C   UNL     1      -1.698  10.253  17.436  0.00  0.00    +0.000 A 
ATOM     29  C   UNL     1      -0.605   9.818  18.190  0.00  0.00    +0.000 A 
ATOM     30  C   UNL     1      -0.303  10.396  19.446  0.00  0.00    +0.000 A 
BRANCH  24  31
ATOM     31  O   UNL     1      -1.563  12.988  21.702  0.00  0.00    +0.000 OA
ATOM     32  H   UNL     1      -1.336  12.896  22.645  0.00  0.00    +0.000 HD
ENDBRANCH  24  31
ENDBRANCH  20  21
ENDBRANCH   2  20
TORSDOF 5
ENDMDL
MODEL 5
REMARK VINA RESULT:      -8.6      5.282     10.178
REMARK  Name = 
REMARK  5 active torsions:
REMARK  status: ('A' for Active; 'I' for Inactive)
REMARK    1  A    between atoms: C_2  and  C_3
REMARK    2  A    between atoms: C_3  and  C_4
REMARK    3  A    between atoms: C_7  and  O_8
REMARK    4  A    between atoms: N_18  and  S_19
REMARK    5  A    between atoms: S_19  and  C_22
REMARK                            x       y       z     vdW  Elec       q    Type
REMARK                         _______ _______ _______ _____ _____    ______ ____
ROOT
ATOM      1  O   UNL     1       0.522   7.653  21.254  0.00  0.00    +0.000 OA
ATOM      2  C   UNL     1       1.429   7.749  20.423  0.00  0.00    +0.000 C 
ATOM      3  N   UNL     1       2.199   6.660  20.040  0.00  0.00    +0.000 N 
ATOM      4  C   UNL     1       1.893   5.344  20.614  0.00  0.00    +0.000 C 
ATOM      5  C   UNL     1       1.496   4.346  19.520  0.00  0.00    +0.000 C 
ATOM      6  N   UNL     1       2.533   4.257  18.439  0.00  0.00    +0.000 NA
ATOM      7  C   UNL     1       2.718   5.623  17.834  0.00  0.00    +0.000 C 
ATOM      8  C   UNL     1       3.143   6.649  18.905  0.00  0.00    +0.000 C 
ENDROOT
BRANCH   6   9
ATOM      9  S   UNL     1       4.006   3.474  18.796  0.00  0.00    +0.000 S 
ATOM     10  O   UNL     1       4.491   4.000  20.057  0.00  0.00    +0.000 OA
ATOM     11  O   UNL     1       3.833   2.050  18.612  0.00  0.00    +0.000 OA
BRANCH   9  12
ATOM     12  C   UNL     1       5.105   4.037  17.532  0.00  0.00    +0.000 A 
ATOM     13  C   UNL     1       6.240   4.771  17.888  0.00  0.00    +0.000 A 
ATOM     14  C   UNL     1       7.086   5.240  16.885  0.00  0.00    +0.000 A 
ATOM     15  C   UNL     1       6.797   4.961  15.548  0.00  0.00    +0.000 A 
ATOM     16  F   UNL     1       7.627   5.429  14.603  0.00  0.00    +0.000 F 
ATOM     17  C   UNL     1       5.672   4.217  15.199  0.00  0.00    +0.000 A 
ATOM     18 CL   UNL     1       5.323   3.864  13.551  0.00  0.00    +0.000 Cl
ATOM     19  C   UNL     1       4.814   3.752  16.191  0.00  0.00    +0.000 A 
ENDBRANCH   9  12
ENDBRANCH   6   9
BRANCH   2  20
ATOM     20  C   UNL     1       1.750   9.099  19.809  0.00  0.00    +0.000 C 
BRANCH  20  21
ATOM     21  C   UNL     1       0.778  10.180  20.209  0.00  0.00    +0.000 A 
ATOM     22  N   UNL     1       0.996  10.772  21.413  0.00  0.00    +0.000 NA
ATOM     23  N   UNL     1       0.135  11.692  21.900  0.00  0.00    +0.000 NA
ATOM     24  C   UNL     1      -0.937  12.021  21.165  0.00  0.00    +0.000 A 
ATOM     25  C   UNL     1      -1.233  11.469  19.923  0.00  0.00    +0.000 A 
ATOM     26  C   UNL     1      -2.375  11.832  19.181  0.00  0.00    +0.000 A 
ATOM     27  C   UNL     1      -2.633  11.259  17.939  0.00  0.00    +0.000 A 
ATOM     28  C   UNL     1      -1.755  10.311  17.422  0.00  0.00    +0.000 A 
ATOM     29  C   UNL     1      -0.623   9.936  18.150  0.00  0.00    +0.000 A 
ATOM     30  C   UNL     1      -0.339  10.509  19.413  0.00  0.00    +0.000 A 
BRANCH  24  31
ATOM     31  O   UNL     1      -1.730  12.966  21.741  0.00  0.00    +0.000 OA
ATOM     32  H   UNL     1      -1.129  13.733  21.747  0.00  0.00    +0.000 HD
ENDBRANCH  24  31
ENDBRANCH  20  21
ENDBRANCH   2  20
TORSDOF 5
ENDMDL
MODEL 6
REMARK VINA RESULT:      -8.5      1.682      2.216
REMARK  Name = 
REMARK  5 active torsions:
REMARK  status: ('A' for Active; 'I' for Inactive)
REMARK    1  A    between atoms: C_2  and  C_3
REMARK    2  A    between atoms: C_3  and  C_4
REMARK    3  A    between atoms: C_7  and  O_8
REMARK    4  A    between atoms: N_18  and  S_19
REMARK    5  A    between atoms: S_19  and  C_22
REMARK                            x       y       z     vdW  Elec       q    Type
REMARK                         _______ _______ _______ _____ _____    ______ ____
ROOT
ATOM      1  O   UNL     1       2.180   7.306  20.225  0.00  0.00    +0.000 OA
ATOM      2  C   UNL     1       1.933   8.018  19.248  0.00  0.00    +0.000 C 
ATOM      3  N   UNL     1       1.136   9.150  19.339  0.00  0.00    +0.000 N 
ATOM      4  C   UNL     1       0.604   9.532  20.654  0.00  0.00    +0.000 C 
ATOM      5  C   UNL     1       1.112  10.917  21.071  0.00  0.00    +0.000 C 
ATOM      6  N   UNL     1       0.825  11.957  20.028  0.00  0.00    +0.000 NA
ATOM      7  C   UNL     1       1.485  11.544  18.740  0.00  0.00    +0.000 C 
ATOM      8  C   UNL     1       0.978  10.163  18.277  0.00  0.00    +0.000 C 
ENDROOT
BRANCH   6   9
ATOM      9  S   UNL     1      -0.788  12.471  19.822  0.00  0.00    +0.000 S 
ATOM     10  O   UNL     1      -0.786  13.566  18.872  0.00  0.00    +0.000 OA
ATOM     11  O   UNL     1      -1.622  11.309  19.602  0.00  0.00    +0.000 OA
BRANCH   9  12
ATOM     12  C   UNL     1      -1.227  13.139  21.398  0.00  0.00    +0.000 A 
ATOM     13  C   UNL     1      -0.509  14.227  21.903  0.00  0.00    +0.000 A 
ATOM     14  C   UNL     1      -0.837  14.730  23.161  0.00  0.00    +0.000 A 
ATOM     15  C   UNL     1      -1.880  14.153  23.888  0.00  0.00    +0.000 A 
ATOM     16  F   UNL     1      -2.172  14.655  25.097  0.00  0.00    +0.000 F 
ATOM     17  C   UNL     1      -2.601  13.077  23.373  0.00  0.00    +0.000 A 
ATOM     18 CL   UNL     1      -3.894  12.373  24.266  0.00  0.00    +0.000 Cl
ATOM     19  C   UNL     1      -2.276  12.560  22.123  0.00  0.00    +0.000 A 
ENDBRANCH   9  12
ENDBRANCH   6   9
BRANCH   2  20
ATOM     20  C   UNL     1       2.486   7.646  17.885  0.00  0.00    +0.000 C 
BRANCH  20  21
ATOM     21  C   UNL     1       3.515   6.545  17.941  0.00  0.00    +0.000 A 
ATOM     22  N   UNL     1       4.816   6.936  17.951  0.00  0.00    +0.000 NA
ATOM     23  N   UNL     1       5.815   6.027  17.915  0.00  0.00    +0.000 NA
ATOM     24  C   UNL     1       5.496   4.725  17.883  0.00  0.00    +0.000 A 
ATOM     25  C   UNL     1       4.194   4.238  17.875  0.00  0.00    +0.000 A 
ATOM     26  C   UNL     1       3.896   2.861  17.832  0.00  0.00    +0.000 A 
ATOM     27  C   UNL     1       2.576   2.415  17.830  0.00  0.00    +0.000 A 
ATOM     28  C   UNL     1       1.536   3.338  17.869  0.00  0.00    +0.000 A 
ATOM     29  C   UNL     1       1.817   4.707  17.905  0.00  0.00    +0.000 A 
ATOM     30  C   UNL     1       3.150   5.183  17.911  0.00  0.00    +0.000 A 
BRANCH  24  31
ATOM     31  O   UNL     1       6.576   3.895  17.864  0.00  0.00    +0.000 OA
ATOM     32  H   UNL     1       6.760   3.808  18.816  0.00  0.00    +0.000 HD
ENDBRANCH  24  31
ENDBRANCH  20  21
ENDBRANCH   2  20
TORSDOF 5
ENDMDL
MODEL 7
REMARK VINA RESULT:      -8.4      5.256     10.224
REMARK  Name = 
REMARK  5 active torsions:
REMARK  status: ('A' for Active; 'I' for Inactive)
REMARK    1  A    between atoms: C_2  and  C_3
REMARK    2  A    between atoms: C_3  and  C_4
REMARK    3  A    between atoms: C_7  and  O_8
REMARK    4  A    between atoms: N_18  and  S_19
REMARK    5  A    between atoms: S_19  and  C_22
REMARK                            x       y       z     vdW  Elec       q    Type
REMARK                         _______ _______ _______ _____ _____    ______ ____
ROOT
ATOM      1  O   UNL     1       0.173   7.390  21.388  0.00  0.00    +0.000 OA
ATOM      2  C   UNL     1       1.186   7.654  20.735  0.00  0.00    +0.000 C 
ATOM      3  N   UNL     1       2.028   6.667  20.243  0.00  0.00    +0.000 N 
ATOM      4  C   UNL     1       1.674   5.260  20.475  0.00  0.00    +0.000 C 
ATOM      5  C   UNL     1       1.459   4.521  19.149  0.00  0.00    +0.000 C 
ATOM      6  N   UNL     1       2.640   4.658  18.233  0.00  0.00    +0.000 NA
ATOM      7  C   UNL     1       2.876   6.120  17.964  0.00  0.00    +0.000 C 
ATOM      8  C   UNL     1       3.122   6.890  19.278  0.00  0.00    +0.000 C 
ENDROOT
BRANCH   6   9
ATOM      9  S   UNL     1       4.065   3.806  18.622  0.00  0.00    +0.000 S 
ATOM     10  O   UNL     1       4.603   4.377  19.842  0.00  0.00    +0.000 OA
ATOM     11  O   UNL     1       3.800   2.387  18.530  0.00  0.00    +0.000 OA
BRANCH   9  12
ATOM     12  C   UNL     1       5.178   4.217  17.312  0.00  0.00    +0.000 A 
ATOM     13  C   UNL     1       6.371   4.882  17.610  0.00  0.00    +0.000 A 
ATOM     14  C   UNL     1       7.229   5.232  16.570  0.00  0.00    +0.000 A 
ATOM     15  C   UNL     1       6.895   4.905  15.254  0.00  0.00    +0.000 A 
ATOM     16  F   UNL     1       7.738   5.258  14.273  0.00  0.00    +0.000 F 
ATOM     17  C   UNL     1       5.711   4.229  14.965  0.00  0.00    +0.000 A 
ATOM     18 CL   UNL     1       5.305   3.816  13.344  0.00  0.00    +0.000 Cl
ATOM     19  C   UNL     1       4.841   3.884  15.994  0.00  0.00    +0.000 A 
ENDBRANCH   9  12
ENDBRANCH   6   9
BRANCH   2  20
ATOM     20  C   UNL     1       1.559   9.101  20.474  0.00  0.00    +0.000 C 
BRANCH  20  21
ATOM     21  C   UNL     1       0.429   9.910  19.888  0.00  0.00    +0.000 A 
ATOM     22  N   UNL     1       0.278   9.845  18.540  0.00  0.00    +0.000 NA
ATOM     23  N   UNL     1      -0.650  10.597  17.908  0.00  0.00    +0.000 NA
ATOM     24  C   UNL     1      -1.432  11.402  18.643  0.00  0.00    +0.000 A 
ATOM     25  C   UNL     1      -1.348  11.526  20.025  0.00  0.00    +0.000 A 
ATOM     26  C   UNL     1      -2.181  12.390  20.765  0.00  0.00    +0.000 A 
ATOM     27  C   UNL     1      -2.067  12.480  22.150  0.00  0.00    +0.000 A 
ATOM     28  C   UNL     1      -1.118  11.711  22.815  0.00  0.00    +0.000 A 
ATOM     29  C   UNL     1      -0.281  10.855  22.094  0.00  0.00    +0.000 A 
ATOM     30  C   UNL     1      -0.381  10.745  20.686  0.00  0.00    +0.000 A 
BRANCH  24  31
ATOM     31  O   UNL     1      -2.341  12.104  17.911  0.00  0.00    +0.000 OA
ATOM     32  H   UNL     1      -1.841  12.918  17.724  0.00  0.00    +0.000 HD
ENDBRANCH  24  31
ENDBRANCH  20  21
ENDBRANCH   2  20
TORSDOF 5
ENDMDL
MODEL 8
REMARK VINA RESULT:      -8.4      1.571      2.420
REMARK  Name = 
REMARK  5 active torsions:
REMARK  status: ('A' for Active; 'I' for Inactive)
REMARK    1  A    between atoms: C_2  and  C_3
REMARK    2  A    between atoms: C_3  and  C_4
REMARK    3  A    between atoms: C_7  and  O_8
REMARK    4  A    between atoms: N_18  and  S_19
REMARK    5  A    between atoms: S_19  and  C_22
REMARK                            x       y       z     vdW  Elec       q    Type
REMARK                         _______ _______ _______ _____ _____    ______ ____
ROOT
ATOM      1  O   UNL     1       2.217   8.103  17.435  0.00  0.00    +0.000 OA
ATOM      2  C   UNL     1       2.088   8.126  18.662  0.00  0.00    +0.000 C 
ATOM      3  N   UNL     1       1.453   9.170  19.319  0.00  0.00    +0.000 N 
ATOM      4  C   UNL     1       0.880  10.260  18.520  0.00  0.00    +0.000 C 
ATOM      5  C   UNL     1      -0.636  10.357  18.728  0.00  0.00    +0.000 C 
ATOM      6  N   UNL     1      -0.996  10.478  20.180  0.00  0.00    +0.000 NA
ATOM      7  C   UNL     1      -0.461   9.277  20.912  0.00  0.00    +0.000 C 
ATOM      8  C   UNL     1       1.068   9.164  20.745  0.00  0.00    +0.000 C 
ENDROOT
BRANCH   6   9
ATOM      9  S   UNL     1      -0.666  11.952  20.972  0.00  0.00    +0.000 S 
ATOM     10  O   UNL     1       0.324  11.690  21.999  0.00  0.00    +0.000 OA
ATOM     11  O   UNL     1      -0.438  12.976  19.976  0.00  0.00    +0.000 OA
BRANCH   9  12
ATOM     12  C   UNL     1      -2.183  12.345  21.790  0.00  0.00    +0.000 A 
ATOM     13  C   UNL     1      -2.268  12.205  23.178  0.00  0.00    +0.000 A 
ATOM     14  C   UNL     1      -3.476  12.484  23.814  0.00  0.00    +0.000 A 
ATOM     15  C   UNL     1      -4.573  12.911  23.063  0.00  0.00    +0.000 A 
ATOM     16  F   UNL     1      -5.724  13.169  23.701  0.00  0.00    +0.000 F 
ATOM     17  C   UNL     1      -4.478  13.062  21.681  0.00  0.00    +0.000 A 
ATOM     18 CL   UNL     1      -5.828  13.598  20.757  0.00  0.00    +0.000 Cl
ATOM     19  C   UNL     1      -3.280  12.775  21.034  0.00  0.00    +0.000 A 
ENDBRANCH   9  12
ENDBRANCH   6   9
BRANCH   2  20
ATOM     20  C   UNL     1       2.662   7.001  19.503  0.00  0.00    +0.000 C 
BRANCH  20  21
ATOM     21  C   UNL     1       2.619   5.661  18.811  0.00  0.00    +0.000 A 
ATOM     22  N   UNL     1       1.557   4.866  19.104  0.00  0.00    +0.000 NA
ATOM     23  N   UNL     1       1.468   3.614  18.603  0.00  0.00    +0.000 NA
ATOM     24  C   UNL     1       2.446   3.175  17.797  0.00  0.00    +0.000 A 
ATOM     25  C   UNL     1       3.564   3.922  17.443  0.00  0.00    +0.000 A 
ATOM     26  C   UNL     1       4.577   3.424  16.600  0.00  0.00    +0.000 A 
ATOM     27  C   UNL     1       5.678   4.209  16.266  0.00  0.00    +0.000 A 
ATOM     28  C   UNL     1       5.784   5.500  16.771  0.00  0.00    +0.000 A 
ATOM     29  C   UNL     1       4.790   6.005  17.614  0.00  0.00    +0.000 A 
ATOM     30  C   UNL     1       3.660   5.227  17.964  0.00  0.00    +0.000 A 
BRANCH  24  31
ATOM     31  O   UNL     1       2.252   1.908  17.337  0.00  0.00    +0.000 OA
ATOM     32  H   UNL     1       2.940   1.852  16.650  0.00  0.00    +0.000 HD
ENDBRANCH  24  31
ENDBRANCH  20  21
ENDBRANCH   2  20
TORSDOF 5
ENDMDL
MODEL 9
REMARK VINA RESULT:      -8.3      1.930      2.422
REMARK  Name = 
REMARK  5 active torsions:
REMARK  status: ('A' for Active; 'I' for Inactive)
REMARK    1  A    between atoms: C_2  and  C_3
REMARK    2  A    between atoms: C_3  and  C_4
REMARK    3  A    between atoms: C_7  and  O_8
REMARK    4  A    between atoms: N_18  and  S_19
REMARK    5  A    between atoms: S_19  and  C_22
REMARK                            x       y       z     vdW  Elec       q    Type
REMARK                         _______ _______ _______ _____ _____    ______ ____
ROOT
ATOM      1  O   UNL     1       2.187   7.305  20.204  0.00  0.00    +0.000 OA
ATOM      2  C   UNL     1       1.951   8.023  19.230  0.00  0.00    +0.000 C 
ATOM      3  N   UNL     1       1.142   9.147  19.318  0.00  0.00    +0.000 N 
ATOM      4  C   UNL     1       0.583   9.511  20.626  0.00  0.00    +0.000 C 
ATOM      5  C   UNL     1       1.070  10.897  21.066  0.00  0.00    +0.000 C 
ATOM      6  N   UNL     1       0.792  11.944  20.027  0.00  0.00    +0.000 NA
ATOM      7  C   UNL     1       1.479  11.549  18.748  0.00  0.00    +0.000 C 
ATOM      8  C   UNL     1       0.992  10.168  18.263  0.00  0.00    +0.000 C 
ENDROOT
BRANCH   6   9
ATOM      9  S   UNL     1      -0.822  12.444  19.798  0.00  0.00    +0.000 S 
ATOM     10  O   UNL     1      -0.810  13.580  18.897  0.00  0.00    +0.000 OA
ATOM     11  O   UNL     1      -1.633  11.282  19.504  0.00  0.00    +0.000 OA
BRANCH   9  12
ATOM     12  C   UNL     1      -1.315  13.037  21.388  0.00  0.00    +0.000 A 
ATOM     13  C   UNL     1      -2.319  12.363  22.089  0.00  0.00    +0.000 A 
ATOM     14  C   UNL     1      -2.726  12.854  23.328  0.00  0.00    +0.000 A 
ATOM     15  C   UNL     1      -2.121  13.997  23.855  0.00  0.00    +0.000 A 
ATOM     16  F   UNL     1      -2.536  14.448  25.048  0.00  0.00    +0.000 F 
ATOM     17  C   UNL     1      -1.111  14.656  23.158  0.00  0.00    +0.000 A 
ATOM     18 CL   UNL     1      -0.358  16.059  23.813  0.00  0.00    +0.000 Cl
ATOM     19  C   UNL     1      -0.703  14.182  21.915  0.00  0.00    +0.000 A 
ENDBRANCH   9  12
ENDBRANCH   6   9
BRANCH   2  20
ATOM     20  C   UNL     1       2.531   7.670  17.873  0.00  0.00    +0.000 C 
BRANCH  20  21
ATOM     21  C   UNL     1       3.552   6.561  17.934  0.00  0.00    +0.000 A 
ATOM     22  N   UNL     1       4.856   6.942  17.950  0.00  0.00    +0.000 NA
ATOM     23  N   UNL     1       5.847   6.026  17.918  0.00  0.00    +0.000 NA
ATOM     24  C   UNL     1       5.519   4.725  17.884  0.00  0.00    +0.000 A 
ATOM     25  C   UNL     1       4.213   4.248  17.871  0.00  0.00    +0.000 A 
ATOM     26  C   UNL     1       3.904   2.874  17.826  0.00  0.00    +0.000 A 
ATOM     27  C   UNL     1       2.581   2.439  17.818  0.00  0.00    +0.000 A 
ATOM     28  C   UNL     1       1.549   3.369  17.852  0.00  0.00    +0.000 A 
ATOM     29  C   UNL     1       1.840   4.736  17.890  0.00  0.00    +0.000 A 
ATOM     30  C   UNL     1       3.177   5.202  17.902  0.00  0.00    +0.000 A 
BRANCH  24  31
ATOM     31  O   UNL     1       6.592   3.887  17.870  0.00  0.00    +0.000 OA
ATOM     32  H   UNL     1       7.281   4.474  17.509  0.00  0.00    +0.000 HD
ENDBRANCH  24  31
ENDBRANCH  20  21
ENDBRANCH   2  20
TORSDOF 5
ENDMDL
