MODEL 1
REMARK VINA RESULT:      -8.0      0.000      0.000
REMARK  Name = 
REMARK  10 active torsions:
REMARK  status: ('A' for Active; 'I' for Inactive)
REMARK    1  A    between atoms: C_1  and  O_2
REMARK    2  A    between atoms: O_2  and  C_3
REMARK    3  A    between atoms: C_5  and  C_6
REMARK    4  A    between atoms: C_6  and  C_7
REMARK    5  A    between atoms: C_11  and  C_12
REMARK    6  A    between atoms: C_12  and  C_13
REMARK    7  A    between atoms: C_16  and  O_17
REMARK    8  A    between atoms: C_18  and  O_19
REMARK    9  A    between atoms: O_19  and  C_20
REMARK   10  A    between atoms: C_24  and  O_25
REMARK                            x       y       z     vdW  Elec       q    Type
REMARK                         _______ _______ _______ _____ _____    ______ ____
ROOT
ATOM      1  C   UNL     1       2.900   4.193  20.112  0.00  0.00    +0.000 C 
ATOM      2  C   UNL     1       2.708   2.909  20.917  0.00  0.00    +0.000 C 
ATOM      3  O   UNL     1       1.623   2.177  20.332  0.00  0.00    +0.000 OA
ATOM      4  C   UNL     1       1.177   2.863  19.159  0.00  0.00    +0.000 C 
ATOM      5  C   UNL     1       2.284   3.829  18.758  0.00  0.00    +0.000 C 
ENDROOT
BRANCH   1   6
ATOM      6  C   UNL     1       2.226   5.408  20.787  0.00  0.00    +0.000 C 
BRANCH   6   9
ATOM      7  C   UNL     1       1.495   8.923  19.423  0.00  0.00    +0.000 A 
ATOM      8  C   UNL     1       1.575   7.811  20.272  0.00  0.00    +0.000 A 
ATOM      9  C   UNL     1       2.265   6.640  19.906  0.00  0.00    +0.000 A 
ATOM     10  C   UNL     1       2.942   6.627  18.682  0.00  0.00    +0.000 A 
ATOM     11  C   UNL     1       2.889   7.736  17.830  0.00  0.00    +0.000 A 
ATOM     12  C   UNL     1       2.158   8.871  18.193  0.00  0.00    +0.000 A 
BRANCH   7  14
ATOM     13  C   UNL     1      -0.266   9.593  20.900  0.00  0.00    +0.000 C 
ATOM     14  O   UNL     1       0.727   9.929  19.942  0.00  0.00    +0.000 OA
ENDBRANCH   7  14
BRANCH  12  15
ATOM     15  O   UNL     1       2.112   9.919  17.311  0.00  0.00    +0.000 OA
ATOM     16  H   UNL     1       1.269   9.891  16.832  0.00  0.00    +0.000 HD
ENDBRANCH  12  15
ENDBRANCH   6   9
ENDBRANCH   1   6
BRANCH   5  17
ATOM     17  C   UNL     1       3.293   3.112  17.830  0.00  0.00    +0.000 C 
BRANCH  17  18
ATOM     18  C   UNL     1       4.433   3.995  17.373  0.00  0.00    +0.000 A 
ATOM     19  C   UNL     1       4.309   4.773  16.217  0.00  0.00    +0.000 A 
ATOM     20  C   UNL     1       5.383   5.540  15.765  0.00  0.00    +0.000 A 
ATOM     21  C   UNL     1       6.590   5.555  16.471  0.00  0.00    +0.000 A 
ATOM     22  C   UNL     1       6.720   4.830  17.660  0.00  0.00    +0.000 A 
ATOM     23  C   UNL     1       5.635   4.050  18.093  0.00  0.00    +0.000 A 
BRANCH  21  24
ATOM     24  O   UNL     1       7.627   6.285  15.958  0.00  0.00    +0.000 OA
ATOM     25  H   UNL     1       8.463   5.932  16.303  0.00  0.00    +0.000 HD
ENDBRANCH  21  24
BRANCH  22  26
ATOM     26  O   UNL     1       7.797   4.762  18.503  0.00  0.00    +0.000 OA
ATOM     27  C   UNL     1       7.911   5.741  19.523  0.00  0.00    +0.000 C 
ENDBRANCH  22  26
ENDBRANCH  17  18
ENDBRANCH   5  17
TORSDOF 8
ENDMDL
MODEL 2
REMARK VINA RESULT:      -7.8      0.971      1.806
REMARK  Name = 
REMARK  10 active torsions:
REMARK  status: ('A' for Active; 'I' for Inactive)
REMARK    1  A    between atoms: C_1  and  O_2
REMARK    2  A    between atoms: O_2  and  C_3
REMARK    3  A    between atoms: C_5  and  C_6
REMARK    4  A    between atoms: C_6  and  C_7
REMARK    5  A    between atoms: C_11  and  C_12
REMARK    6  A    between atoms: C_12  and  C_13
REMARK    7  A    between atoms: C_16  and  O_17
REMARK    8  A    between atoms: C_18  and  O_19
REMARK    9  A    between atoms: O_19  and  C_20
REMARK   10  A    between atoms: C_24  and  O_25
REMARK                            x       y       z     vdW  Elec       q    Type
REMARK                         _______ _______ _______ _____ _____    ______ ____
ROOT
ATOM      1  C   UNL     1       2.412   4.681  20.407  0.00  0.00    +0.000 C 
ATOM      2  C   UNL     1       2.322   3.528  21.405  0.00  0.00    +0.000 C 
ATOM      3  O   UNL     1       1.364   2.585  20.908  0.00  0.00    +0.000 OA
ATOM      4  C   UNL     1       0.911   3.016  19.622  0.00  0.00    +0.000 C 
ATOM      5  C   UNL     1       1.921   4.034  19.109  0.00  0.00    +0.000 C 
ENDROOT
BRANCH   1   6
ATOM      6  C   UNL     1       1.565   5.897  20.845  0.00  0.00    +0.000 C 
BRANCH   6   9
ATOM      7  C   UNL     1       1.324   9.447  19.402  0.00  0.00    +0.000 A 
ATOM      8  C   UNL     1       1.228   8.349  20.268  0.00  0.00    +0.000 A 
ATOM      9  C   UNL     1       1.794   7.099  19.953  0.00  0.00    +0.000 A 
ATOM     10  C   UNL     1       2.527   6.985  18.768  0.00  0.00    +0.000 A 
ATOM     11  C   UNL     1       2.650   8.077  17.901  0.00  0.00    +0.000 A 
ATOM     12  C   UNL     1       2.040   9.296  18.210  0.00  0.00    +0.000 A 
BRANCH   7  14
ATOM     13  C   UNL     1      -0.102  10.417  21.063  0.00  0.00    +0.000 C 
ATOM     14  O   UNL     1       0.653  10.546  19.867  0.00  0.00    +0.000 OA
ENDBRANCH   7  14
BRANCH  12  15
ATOM     15  O   UNL     1       2.162  10.326  17.315  0.00  0.00    +0.000 OA
ATOM     16  H   UNL     1       2.475  11.116  17.783  0.00  0.00    +0.000 HD
ENDBRANCH  12  15
ENDBRANCH   6   9
ENDBRANCH   1   6
BRANCH   5  17
ATOM     17  C   UNL     1       3.058   3.307  18.352  0.00  0.00    +0.000 C 
BRANCH  17  18
ATOM     18  C   UNL     1       4.269   4.175  18.094  0.00  0.00    +0.000 A 
ATOM     19  C   UNL     1       5.110   4.550  19.146  0.00  0.00    +0.000 A 
ATOM     20  C   UNL     1       6.192   5.401  18.916  0.00  0.00    +0.000 A 
ATOM     21  C   UNL     1       6.459   5.874  17.627  0.00  0.00    +0.000 A 
ATOM     22  C   UNL     1       5.667   5.467  16.549  0.00  0.00    +0.000 A 
ATOM     23  C   UNL     1       4.572   4.624  16.800  0.00  0.00    +0.000 A 
BRANCH  21  24
ATOM     24  O   UNL     1       7.502   6.744  17.463  0.00  0.00    +0.000 OA
ATOM     25  H   UNL     1       7.334   7.296  16.683  0.00  0.00    +0.000 HD
ENDBRANCH  21  24
BRANCH  22  26
ATOM     26  O   UNL     1       5.803   5.785  15.224  0.00  0.00    +0.000 OA
ATOM     27  C   UNL     1       6.547   4.903  14.397  0.00  0.00    +0.000 C 
ENDBRANCH  22  26
ENDBRANCH  17  18
ENDBRANCH   5  17
TORSDOF 8
ENDMDL
MODEL 3
REMARK VINA RESULT:      -7.7      0.416      5.568
REMARK  Name = 
REMARK  10 active torsions:
REMARK  status: ('A' for Active; 'I' for Inactive)
REMARK    1  A    between atoms: C_1  and  O_2
REMARK    2  A    between atoms: O_2  and  C_3
REMARK    3  A    between atoms: C_5  and  C_6
REMARK    4  A    between atoms: C_6  and  C_7
REMARK    5  A    between atoms: C_11  and  C_12
REMARK    6  A    between atoms: C_12  and  C_13
REMARK    7  A    between atoms: C_16  and  O_17
REMARK    8  A    between atoms: C_18  and  O_19
REMARK    9  A    between atoms: O_19  and  C_20
REMARK   10  A    between atoms: C_24  and  O_25
REMARK                            x       y       z     vdW  Elec       q    Type
REMARK                         _______ _______ _______ _____ _____    ______ ____
ROOT
ATOM      1  C   UNL     1       2.491   3.574  18.505  0.00  0.00    +0.000 C 
ATOM      2  C   UNL     1       1.567   2.520  19.110  0.00  0.00    +0.000 C 
ATOM      3  O   UNL     1       2.127   2.105  20.363  0.00  0.00    +0.000 OA
ATOM      4  C   UNL     1       3.291   2.890  20.635  0.00  0.00    +0.000 C 
ATOM      5  C   UNL     1       3.224   4.117  19.735  0.00  0.00    +0.000 C 
ENDROOT
BRANCH   1   6
ATOM      6  C   UNL     1       3.439   2.975  17.442  0.00  0.00    +0.000 C 
BRANCH   6   9
ATOM      7  C   UNL     1       6.765   4.878  17.697  0.00  0.00    +0.000 A 
ATOM      8  C   UNL     1       5.743   3.942  17.909  0.00  0.00    +0.000 A 
ATOM      9  C   UNL     1       4.584   3.910  17.111  0.00  0.00    +0.000 A 
ATOM     10  C   UNL     1       4.495   4.803  16.038  0.00  0.00    +0.000 A 
ATOM     11  C   UNL     1       5.515   5.731  15.800  0.00  0.00    +0.000 A 
ATOM     12  C   UNL     1       6.636   5.776  16.634  0.00  0.00    +0.000 A 
BRANCH   7  14
ATOM     13  C   UNL     1       7.801   5.713  19.688  0.00  0.00    +0.000 C 
ATOM     14  O   UNL     1       7.771   4.778  18.620  0.00  0.00    +0.000 OA
ENDBRANCH   7  14
BRANCH  12  15
ATOM     15  O   UNL     1       7.593   6.724  16.379  0.00  0.00    +0.000 OA
ATOM     16  H   UNL     1       7.286   7.296  15.659  0.00  0.00    +0.000 HD
ENDBRANCH  12  15
ENDBRANCH   6   9
ENDBRANCH   1   6
BRANCH   5  17
ATOM     17  C   UNL     1       2.427   5.241  20.441  0.00  0.00    +0.000 C 
BRANCH  17  18
ATOM     18  C   UNL     1       2.311   6.509  19.626  0.00  0.00    +0.000 A 
ATOM     19  C   UNL     1       2.832   6.569  18.330  0.00  0.00    +0.000 A 
ATOM     20  C   UNL     1       2.778   7.759  17.602  0.00  0.00    +0.000 A 
ATOM     21  C   UNL     1       2.185   8.900  18.153  0.00  0.00    +0.000 A 
ATOM     22  C   UNL     1       1.606   8.848  19.424  0.00  0.00    +0.000 A 
ATOM     23  C   UNL     1       1.684   7.648  20.151  0.00  0.00    +0.000 A 
BRANCH  21  24
ATOM     24  O   UNL     1       2.202  10.053  17.417  0.00  0.00    +0.000 OA
ATOM     25  H   UNL     1       2.175  10.812  18.020  0.00  0.00    +0.000 HD
ENDBRANCH  21  24
BRANCH  22  26
ATOM     26  O   UNL     1       0.947   9.840  20.101  0.00  0.00    +0.000 OA
ATOM     27  C   UNL     1      -0.440  10.010  19.854  0.00  0.00    +0.000 C 
ENDBRANCH  22  26
ENDBRANCH  17  18
ENDBRANCH   5  17
TORSDOF 8
ENDMDL
MODEL 4
REMARK VINA RESULT:      -7.7      0.983      5.734
REMARK  Name = 
REMARK  10 active torsions:
REMARK  status: ('A' for Active; 'I' for Inactive)
REMARK    1  A    between atoms: C_1  and  O_2
REMARK    2  A    between atoms: O_2  and  C_3
REMARK    3  A    between atoms: C_5  and  C_6
REMARK    4  A    between atoms: C_6  and  C_7
REMARK    5  A    between atoms: C_11  and  C_12
REMARK    6  A    between atoms: C_12  and  C_13
REMARK    7  A    between atoms: C_16  and  O_17
REMARK    8  A    between atoms: C_18  and  O_19
REMARK    9  A    between atoms: O_19  and  C_20
REMARK   10  A    between atoms: C_24  and  O_25
REMARK                            x       y       z     vdW  Elec       q    Type
REMARK                         _______ _______ _______ _____ _____    ______ ____
ROOT
ATOM      1  C   UNL     1       1.921   3.835  19.288  0.00  0.00    +0.000 C 
ATOM      2  C   UNL     1       0.858   2.928  19.904  0.00  0.00    +0.000 C 
ATOM      3  O   UNL     1       1.234   2.663  21.262  0.00  0.00    +0.000 OA
ATOM      4  C   UNL     1       2.411   3.414  21.574  0.00  0.00    +0.000 C 
ATOM      5  C   UNL     1       2.539   4.504  20.519  0.00  0.00    +0.000 C 
ENDROOT
BRANCH   1   6
ATOM      6  C   UNL     1       2.944   3.042  18.443  0.00  0.00    +0.000 C 
BRANCH   6   9
ATOM      7  C   UNL     1       5.471   4.960  16.279  0.00  0.00    +0.000 A 
ATOM      8  C   UNL     1       4.322   4.274  16.699  0.00  0.00    +0.000 A 
ATOM      9  C   UNL     1       4.129   3.894  18.041  0.00  0.00    +0.000 A 
ATOM     10  C   UNL     1       5.091   4.278  18.981  0.00  0.00    +0.000 A 
ATOM     11  C   UNL     1       6.233   4.981  18.582  0.00  0.00    +0.000 A 
ATOM     12  C   UNL     1       6.428   5.306  17.237  0.00  0.00    +0.000 A 
BRANCH   7  14
ATOM     13  C   UNL     1       5.969   4.140  14.085  0.00  0.00    +0.000 C 
ATOM     14  O   UNL     1       5.490   5.178  14.928  0.00  0.00    +0.000 OA
ENDBRANCH   7  14
BRANCH  12  15
ATOM     15  O   UNL     1       7.578   5.967  16.891  0.00  0.00    +0.000 OA
ATOM     16  H   UNL     1       7.370   6.628  16.212  0.00  0.00    +0.000 HD
ENDBRANCH  12  15
ENDBRANCH   6   9
ENDBRANCH   1   6
BRANCH   5  17
ATOM     17  C   UNL     1       1.746   5.757  20.963  0.00  0.00    +0.000 C 
BRANCH  17  18
ATOM     18  C   UNL     1       1.827   6.907  19.983  0.00  0.00    +0.000 A 
ATOM     19  C   UNL     1       2.474   6.747  18.754  0.00  0.00    +0.000 A 
ATOM     20  C   UNL     1       2.600   7.826  17.877  0.00  0.00    +0.000 A 
ATOM     21  C   UNL     1       2.066   9.075  18.210  0.00  0.00    +0.000 A 
ATOM     22  C   UNL     1       1.366   9.245  19.409  0.00  0.00    +0.000 A 
ATOM     23  C   UNL     1       1.261   8.154  20.287  0.00  0.00    +0.000 A 
BRANCH  21  24
ATOM     24  O   UNL     1       2.260  10.111  17.339  0.00  0.00    +0.000 OA
ATOM     25  H   UNL     1       1.533  10.124  16.696  0.00  0.00    +0.000 HD
ENDBRANCH  21  24
BRANCH  22  26
ATOM     26  O   UNL     1       0.740  10.369  19.877  0.00  0.00    +0.000 OA
ATOM     27  C   UNL     1       0.368  10.406  21.246  0.00  0.00    +0.000 C 
ENDBRANCH  22  26
ENDBRANCH  17  18
ENDBRANCH   5  17
TORSDOF 8
ENDMDL
MODEL 5
REMARK VINA RESULT:      -7.7      1.067      1.229
REMARK  Name = 
REMARK  10 active torsions:
REMARK  status: ('A' for Active; 'I' for Inactive)
REMARK    1  A    between atoms: C_1  and  O_2
REMARK    2  A    between atoms: O_2  and  C_3
REMARK    3  A    between atoms: C_5  and  C_6
REMARK    4  A    between atoms: C_6  and  C_7
REMARK    5  A    between atoms: C_11  and  C_12
REMARK    6  A    between atoms: C_12  and  C_13
REMARK    7  A    between atoms: C_16  and  O_17
REMARK    8  A    between atoms: C_18  and  O_19
REMARK    9  A    between atoms: O_19  and  C_20
REMARK   10  A    between atoms: C_24  and  O_25
REMARK                            x       y       z     vdW  Elec       q    Type
REMARK                         _______ _______ _______ _____ _____    ______ ____
ROOT
ATOM      1  C   UNL     1       2.835   4.634  20.636  0.00  0.00    +0.000 C 
ATOM      2  C   UNL     1       2.600   3.339  21.410  0.00  0.00    +0.000 C 
ATOM      3  O   UNL     1       2.252   2.316  20.467  0.00  0.00    +0.000 OA
ATOM      4  C   UNL     1       2.343   2.852  19.144  0.00  0.00    +0.000 C 
ATOM      5  C   UNL     1       3.175   4.124  19.232  0.00  0.00    +0.000 C 
ENDROOT
BRANCH   1   6
ATOM      6  C   UNL     1       1.602   5.564  20.668  0.00  0.00    +0.000 C 
BRANCH   6   9
ATOM      7  C   UNL     1       1.416   9.227  19.529  0.00  0.00    +0.000 A 
ATOM      8  C   UNL     1       1.334   8.066  20.311  0.00  0.00    +0.000 A 
ATOM      9  C   UNL     1       1.820   6.825  19.858  0.00  0.00    +0.000 A 
ATOM     10  C   UNL     1       2.460   6.779  18.616  0.00  0.00    +0.000 A 
ATOM     11  C   UNL     1       2.569   7.933  17.831  0.00  0.00    +0.000 A 
ATOM     12  C   UNL     1       2.037   9.145  18.279  0.00  0.00    +0.000 A 
BRANCH   7  14
ATOM     13  C   UNL     1      -0.541  10.564  19.865  0.00  0.00    +0.000 C 
ATOM     14  O   UNL     1       0.831  10.309  20.128  0.00  0.00    +0.000 OA
ENDBRANCH   7  14
BRANCH  12  15
ATOM     15  O   UNL     1       2.141  10.239  17.460  0.00  0.00    +0.000 OA
ATOM     16  H   UNL     1       1.326  10.322  16.940  0.00  0.00    +0.000 HD
ENDBRANCH  12  15
ENDBRANCH   6   9
ENDBRANCH   1   6
BRANCH   5  17
ATOM     17  C   UNL     1       4.677   3.778  19.084  0.00  0.00    +0.000 C 
BRANCH  17  18
ATOM     18  C   UNL     1       5.291   4.275  17.794  0.00  0.00    +0.000 A 
ATOM     19  C   UNL     1       4.994   3.649  16.579  0.00  0.00    +0.000 A 
ATOM     20  C   UNL     1       5.609   4.072  15.400  0.00  0.00    +0.000 A 
ATOM     21  C   UNL     1       6.515   5.137  15.415  0.00  0.00    +0.000 A 
ATOM     22  C   UNL     1       6.784   5.815  16.608  0.00  0.00    +0.000 A 
ATOM     23  C   UNL     1       6.171   5.367  17.790  0.00  0.00    +0.000 A 
BRANCH  21  24
ATOM     24  O   UNL     1       7.126   5.479  14.241  0.00  0.00    +0.000 OA
ATOM     25  H   UNL     1       7.819   6.133  14.424  0.00  0.00    +0.000 HD
ENDBRANCH  21  24
BRANCH  22  26
ATOM     26  O   UNL     1       7.598   6.898  16.807  0.00  0.00    +0.000 OA
ATOM     27  C   UNL     1       7.935   7.247  18.141  0.00  0.00    +0.000 C 
ENDBRANCH  22  26
ENDBRANCH  17  18
ENDBRANCH   5  17
TORSDOF 8
ENDMDL
MODEL 6
REMARK VINA RESULT:      -7.4      1.370      4.652
REMARK  Name = 
REMARK  10 active torsions:
REMARK  status: ('A' for Active; 'I' for Inactive)
REMARK    1  A    between atoms: C_1  and  O_2
REMARK    2  A    between atoms: O_2  and  C_3
REMARK    3  A    between atoms: C_5  and  C_6
REMARK    4  A    between atoms: C_6  and  C_7
REMARK    5  A    between atoms: C_11  and  C_12
REMARK    6  A    between atoms: C_12  and  C_13
REMARK    7  A    between atoms: C_16  and  O_17
REMARK    8  A    between atoms: C_18  and  O_19
REMARK    9  A    between atoms: O_19  and  C_20
REMARK   10  A    between atoms: C_24  and  O_25
REMARK                            x       y       z     vdW  Elec       q    Type
REMARK                         _______ _______ _______ _____ _____    ______ ____
ROOT
ATOM      1  C   UNL     1       4.467   6.121  17.040  0.00  0.00    +0.000 C 
ATOM      2  C   UNL     1       5.203   5.741  15.758  0.00  0.00    +0.000 C 
ATOM      3  O   UNL     1       6.610   5.876  15.997  0.00  0.00    +0.000 OA
ATOM      4  C   UNL     1       6.817   6.225  17.369  0.00  0.00    +0.000 C 
ATOM      5  C   UNL     1       5.533   5.889  18.115  0.00  0.00    +0.000 C 
ENDROOT
BRANCH   1   6
ATOM      6  C   UNL     1       3.941   7.573  17.001  0.00  0.00    +0.000 C 
BRANCH   6   9
ATOM      7  C   UNL     1       1.210   9.298  19.077  0.00  0.00    +0.000 A 
ATOM      8  C   UNL     1       2.081   8.966  18.030  0.00  0.00    +0.000 A 
ATOM      9  C   UNL     1       2.919   7.836  18.087  0.00  0.00    +0.000 A 
ATOM     10  C   UNL     1       2.820   6.995  19.200  0.00  0.00    +0.000 A 
ATOM     11  C   UNL     1       1.942   7.301  20.245  0.00  0.00    +0.000 A 
ATOM     12  C   UNL     1       1.153   8.454  20.190  0.00  0.00    +0.000 A 
BRANCH   7  14
ATOM     13  C   UNL     1      -0.760  10.391  18.265  0.00  0.00    +0.000 C 
ATOM     14  O   UNL     1       0.533  10.465  18.849  0.00  0.00    +0.000 OA
ENDBRANCH   7  14
BRANCH  12  15
ATOM     15  O   UNL     1       0.332   8.727  21.253  0.00  0.00    +0.000 OA
ATOM     16  H   UNL     1      -0.560   8.402  21.054  0.00  0.00    +0.000 HD
ENDBRANCH  12  15
ENDBRANCH   6   9
ENDBRANCH   1   6
BRANCH   5  17
ATOM     17  C   UNL     1       5.574   4.416  18.590  0.00  0.00    +0.000 C 
BRANCH  17  18
ATOM     18  C   UNL     1       4.222   3.737  18.584  0.00  0.00    +0.000 A 
ATOM     19  C   UNL     1       3.830   2.947  17.499  0.00  0.00    +0.000 A 
ATOM     20  C   UNL     1       2.559   2.372  17.469  0.00  0.00    +0.000 A 
ATOM     21  C   UNL     1       1.669   2.563  18.531  0.00  0.00    +0.000 A 
ATOM     22  C   UNL     1       2.059   3.302  19.652  0.00  0.00    +0.000 A 
ATOM     23  C   UNL     1       3.336   3.889  19.660  0.00  0.00    +0.000 A 
BRANCH  21  24
ATOM     24  O   UNL     1       0.419   2.019  18.429  0.00  0.00    +0.000 OA
ATOM     25  H   UNL     1      -0.242   2.724  18.521  0.00  0.00    +0.000 HD
ENDBRANCH  21  24
BRANCH  22  26
ATOM     26  O   UNL     1       1.349   3.555  20.795  0.00  0.00    +0.000 OA
ATOM     27  C   UNL     1       1.468   2.639  21.873  0.00  0.00    +0.000 C 
ENDBRANCH  22  26
ENDBRANCH  17  18
ENDBRANCH   5  17
TORSDOF 8
ENDMDL
MODEL 7
REMARK VINA RESULT:      -7.2      1.380      6.265
REMARK  Name = 
REMARK  10 active torsions:
REMARK  status: ('A' for Active; 'I' for Inactive)
REMARK    1  A    between atoms: C_1  and  O_2
REMARK    2  A    between atoms: O_2  and  C_3
REMARK    3  A    between atoms: C_5  and  C_6
REMARK    4  A    between atoms: C_6  and  C_7
REMARK    5  A    between atoms: C_11  and  C_12
REMARK    6  A    between atoms: C_12  and  C_13
REMARK    7  A    between atoms: C_16  and  O_17
REMARK    8  A    between atoms: C_18  and  O_19
REMARK    9  A    between atoms: O_19  and  C_20
REMARK   10  A    between atoms: C_24  and  O_25
REMARK                            x       y       z     vdW  Elec       q    Type
REMARK                         _______ _______ _______ _____ _____    ______ ____
ROOT
ATOM      1  C   UNL     1       5.456   5.847  18.132  0.00  0.00    +0.000 C 
ATOM      2  C   UNL     1       6.784   6.204  17.469  0.00  0.00    +0.000 C 
ATOM      3  O   UNL     1       6.628   6.049  16.053  0.00  0.00    +0.000 OA
ATOM      4  C   UNL     1       5.269   5.709  15.768  0.00  0.00    +0.000 C 
ATOM      5  C   UNL     1       4.450   6.072  17.000  0.00  0.00    +0.000 C 
ENDROOT
BRANCH   1   6
ATOM      6  C   UNL     1       5.449   4.403  18.682  0.00  0.00    +0.000 C 
BRANCH   6   9
ATOM      7  C   UNL     1       1.906   3.245  19.605  0.00  0.00    +0.000 A 
ATOM      8  C   UNL     1       3.135   3.920  19.615  0.00  0.00    +0.000 A 
ATOM      9  C   UNL     1       4.079   3.765  18.583  0.00  0.00    +0.000 A 
ATOM     10  C   UNL     1       3.739   2.960  17.490  0.00  0.00    +0.000 A 
ATOM     11  C   UNL     1       2.508   2.294  17.456  0.00  0.00    +0.000 A 
ATOM     12  C   UNL     1       1.604   2.425  18.514  0.00  0.00    +0.000 A 
BRANCH   7  14
ATOM     13  C   UNL     1       1.391   2.678  21.874  0.00  0.00    +0.000 C 
ATOM     14  O   UNL     1       1.163   3.487  20.729  0.00  0.00    +0.000 OA
ENDBRANCH   7  14
BRANCH  12  15
ATOM     15  O   UNL     1       0.426   1.728  18.447  0.00  0.00    +0.000 OA
ATOM     16  H   UNL     1       0.075   1.616  19.345  0.00  0.00    +0.000 HD
ENDBRANCH  12  15
ENDBRANCH   6   9
ENDBRANCH   1   6
BRANCH   5  17
ATOM     17  C   UNL     1       3.992   7.548  16.908  0.00  0.00    +0.000 C 
BRANCH  17  18
ATOM     18  C   UNL     1       3.009   7.948  17.986  0.00  0.00    +0.000 A 
ATOM     19  C   UNL     1       2.866   7.171  19.139  0.00  0.00    +0.000 A 
ATOM     20  C   UNL     1       1.916   7.509  20.104  0.00  0.00    +0.000 A 
ATOM     21  C   UNL     1       1.109   8.639  19.938  0.00  0.00    +0.000 A 
ATOM     22  C   UNL     1       1.273   9.464  18.820  0.00  0.00    +0.000 A 
ATOM     23  C   UNL     1       2.222   9.101  17.850  0.00  0.00    +0.000 A 
BRANCH  21  24
ATOM     24  O   UNL     1       0.160   8.898  20.888  0.00  0.00    +0.000 OA
ATOM     25  H   UNL     1       0.491   8.606  21.752  0.00  0.00    +0.000 HD
ENDBRANCH  21  24
BRANCH  22  26
ATOM     26  O   UNL     1       0.614  10.625  18.514  0.00  0.00    +0.000 OA
ATOM     27  C   UNL     1       0.988  11.808  19.204  0.00  0.00    +0.000 C 
ENDBRANCH  22  26
ENDBRANCH  17  18
ENDBRANCH   5  17
TORSDOF 8
ENDMDL
MODEL 8
REMARK VINA RESULT:      -7.2      1.067      5.664
REMARK  Name = 
REMARK  10 active torsions:
REMARK  status: ('A' for Active; 'I' for Inactive)
REMARK    1  A    between atoms: C_1  and  O_2
REMARK    2  A    between atoms: O_2  and  C_3
REMARK    3  A    between atoms: C_5  and  C_6
REMARK    4  A    between atoms: C_6  and  C_7
REMARK    5  A    between atoms: C_11  and  C_12
REMARK    6  A    between atoms: C_12  and  C_13
REMARK    7  A    between atoms: C_16  and  O_17
REMARK    8  A    between atoms: C_18  and  O_19
REMARK    9  A    between atoms: O_19  and  C_20
REMARK   10  A    between atoms: C_24  and  O_25
REMARK                            x       y       z     vdW  Elec       q    Type
REMARK                         _______ _______ _______ _____ _____    ______ ____
ROOT
ATOM      1  C   UNL     1       3.223   4.087  19.337  0.00  0.00    +0.000 C 
ATOM      2  C   UNL     1       2.411   2.795  19.320  0.00  0.00    +0.000 C 
ATOM      3  O   UNL     1       2.060   2.474  20.672  0.00  0.00    +0.000 OA
ATOM      4  C   UNL     1       2.513   3.522  21.532  0.00  0.00    +0.000 C 
ATOM      5  C   UNL     1       2.786   4.736  20.654  0.00  0.00    +0.000 C 
ENDROOT
BRANCH   1   6
ATOM      6  C   UNL     1       4.743   3.821  19.260  0.00  0.00    +0.000 C 
BRANCH   6   9
ATOM      7  C   UNL     1       6.776   5.776  16.654  0.00  0.00    +0.000 A 
ATOM      8  C   UNL     1       6.303   5.271  17.873  0.00  0.00    +0.000 A 
ATOM      9  C   UNL     1       5.329   4.256  17.933  0.00  0.00    +0.000 A 
ATOM     10  C   UNL     1       4.878   3.701  16.731  0.00  0.00    +0.000 A 
ATOM     11  C   UNL     1       5.354   4.180  15.505  0.00  0.00    +0.000 A 
ATOM     12  C   UNL     1       6.286   5.221  15.468  0.00  0.00    +0.000 A 
BRANCH   7  14
ATOM     13  C   UNL     1       7.914   7.276  18.133  0.00  0.00    +0.000 C 
ATOM     14  O   UNL     1       7.671   6.798  16.818  0.00  0.00    +0.000 OA
ENDBRANCH   7  14
BRANCH  12  15
ATOM     15  O   UNL     1       6.698   5.676  14.242  0.00  0.00    +0.000 OA
ATOM     16  H   UNL     1       7.618   5.406  14.099  0.00  0.00    +0.000 HD
ENDBRANCH  12  15
ENDBRANCH   6   9
ENDBRANCH   1   6
BRANCH   5  17
ATOM     17  C   UNL     1       1.490   5.567  20.494  0.00  0.00    +0.000 C 
BRANCH  17  18
ATOM     18  C   UNL     1       1.674   6.831  19.684  0.00  0.00    +0.000 A 
ATOM     19  C   UNL     1       2.341   6.796  18.455  0.00  0.00    +0.000 A 
ATOM     20  C   UNL     1       2.563   7.973  17.739  0.00  0.00    +0.000 A 
ATOM     21  C   UNL     1       2.106   9.199  18.232  0.00  0.00    +0.000 A 
ATOM     22  C   UNL     1       1.387   9.252  19.430  0.00  0.00    +0.000 A 
ATOM     23  C   UNL     1       1.186   8.061  20.148  0.00  0.00    +0.000 A 
BRANCH  21  24
ATOM     24  O   UNL     1       2.392  10.328  17.516  0.00  0.00    +0.000 OA
ATOM     25  H   UNL     1       3.341  10.341  17.312  0.00  0.00    +0.000 HD
ENDBRANCH  21  24
BRANCH  22  26
ATOM     26  O   UNL     1       0.826  10.343  20.039  0.00  0.00    +0.000 OA
ATOM     27  C   UNL     1       0.665  10.314  21.449  0.00  0.00    +0.000 C 
ENDBRANCH  22  26
ENDBRANCH  17  18
ENDBRANCH   5  17
TORSDOF 8
ENDMDL
MODEL 9
REMARK VINA RESULT:      -7.1      1.176      5.575
REMARK  Name = 
REMARK  10 active torsions:
REMARK  status: ('A' for Active; 'I' for Inactive)
REMARK    1  A    between atoms: C_1  and  O_2
REMARK    2  A    between atoms: O_2  and  C_3
REMARK    3  A    between atoms: C_5  and  C_6
REMARK    4  A    between atoms: C_6  and  C_7
REMARK    5  A    between atoms: C_11  and  C_12
REMARK    6  A    between atoms: C_12  and  C_13
REMARK    7  A    between atoms: C_16  and  O_17
REMARK    8  A    between atoms: C_18  and  O_19
REMARK    9  A    between atoms: O_19  and  C_20
REMARK   10  A    between atoms: C_24  and  O_25
REMARK                            x       y       z     vdW  Elec       q    Type
REMARK                         _______ _______ _______ _____ _____    ______ ____
ROOT
ATOM      1  C   UNL     1       3.320   3.747  19.414  0.00  0.00    +0.000 C 
ATOM      2  C   UNL     1       2.545   2.432  19.438  0.00  0.00    +0.000 C 
ATOM      3  O   UNL     1       2.128   2.188  20.787  0.00  0.00    +0.000 OA
ATOM      4  C   UNL     1       2.505   3.303  21.600  0.00  0.00    +0.000 C 
ATOM      5  C   UNL     1       2.793   4.465  20.660  0.00  0.00    +0.000 C 
ENDROOT
BRANCH   1   6
ATOM      6  C   UNL     1       4.849   3.522  19.437  0.00  0.00    +0.000 C 
BRANCH   6   9
ATOM      7  C   UNL     1       6.045   5.909  16.676  0.00  0.00    +0.000 A 
ATOM      8  C   UNL     1       5.292   4.970  17.395  0.00  0.00    +0.000 A 
ATOM      9  C   UNL     1       5.596   4.632  18.727  0.00  0.00    +0.000 A 
ATOM     10  C   UNL     1       6.644   5.310  19.359  0.00  0.00    +0.000 A 
ATOM     11  C   UNL     1       7.393   6.265  18.662  0.00  0.00    +0.000 A 
ATOM     12  C   UNL     1       7.104   6.551  17.325  0.00  0.00    +0.000 A 
BRANCH   7  14
ATOM     13  C   UNL     1       5.778   4.942  14.503  0.00  0.00    +0.000 C 
ATOM     14  O   UNL     1       5.621   6.045  15.382  0.00  0.00    +0.000 OA
ENDBRANCH   7  14
BRANCH  12  15
ATOM     15  O   UNL     1       7.886   7.471  16.676  0.00  0.00    +0.000 OA
ATOM     16  H   UNL     1       7.428   7.766  15.874  0.00  0.00    +0.000 HD
ENDBRANCH  12  15
ENDBRANCH   6   9
ENDBRANCH   1   6
BRANCH   5  17
ATOM     17  C   UNL     1       1.486   5.245  20.376  0.00  0.00    +0.000 C 
BRANCH  17  18
ATOM     18  C   UNL     1       1.708   6.570  19.680  0.00  0.00    +0.000 A 
ATOM     19  C   UNL     1       2.334   6.619  18.431  0.00  0.00    +0.000 A 
ATOM     20  C   UNL     1       2.592   7.847  17.819  0.00  0.00    +0.000 A 
ATOM     21  C   UNL     1       2.211   9.041  18.439  0.00  0.00    +0.000 A 
ATOM     22  C   UNL     1       1.532   9.015  19.661  0.00  0.00    +0.000 A 
ATOM     23  C   UNL     1       1.295   7.772  20.272  0.00  0.00    +0.000 A 
BRANCH  21  24
ATOM     24  O   UNL     1       2.530  10.218  17.820  0.00  0.00    +0.000 OA
ATOM     25  H   UNL     1       1.866  10.408  17.139  0.00  0.00    +0.000 HD
ENDBRANCH  21  24
BRANCH  22  26
ATOM     26  O   UNL     1       1.044  10.069  20.387  0.00  0.00    +0.000 OA
ATOM     27  C   UNL     1      -0.340  10.366  20.287  0.00  0.00    +0.000 C 
ENDBRANCH  22  26
ENDBRANCH  17  18
ENDBRANCH   5  17
TORSDOF 8
ENDMDL
