MODEL 1
REMARK VINA RESULT:      -6.6      0.000      0.000
REMARK  Name = 
REMARK  12 active torsions:
REMARK  status: ('A' for Active; 'I' for Inactive)
REMARK    1  A    between atoms: C_1  and  N_2
REMARK    2  A    between atoms: N_2  and  C_3
REMARK    3  A    between atoms: N_2  and  C_4
REMARK    4  A    between atoms: C_4  and  C_5
REMARK    5  A    between atoms: C_5  and  O_6
REMARK    6  A    between atoms: O_6  and  C_7
REMARK    7  A    between atoms: C_10  and  C_11
REMARK    8  A    between atoms: C_11  and  C_12
REMARK    9  A    between atoms: C_11  and  C_13
REMARK   10  A    between atoms: C_11  and  C_14
REMARK   11  A    between atoms: C_16  and  C_17
REMARK   12  A    between atoms: C_17  and  C_18
REMARK                            x       y       z     vdW  Elec       q    Type
REMARK                         _______ _______ _______ _____ _____    ______ ____
ROOT
ATOM      1  C   UNL     1      -0.612  12.539  20.272  0.00  0.00    +0.000 C 
ATOM      2  C   UNL     1      -1.058  13.842  21.099  0.00  0.00    +0.000 C 
ATOM      3  O   UNL     1      -2.139  14.355  21.267  0.00  0.00    +0.000 OA
ATOM      4  N   UNL     1       0.137  14.332  21.673  0.00  0.00    +0.000 N 
ATOM      5  C   UNL     1       1.207  13.977  20.862  0.00  0.00    +0.000 A 
ATOM      6  C   UNL     1       2.436  14.615  20.914  0.00  0.00    +0.000 A 
ATOM      7  C   UNL     1       3.109  14.743  19.713  0.00  0.00    +0.000 A 
ATOM      8  C   UNL     1       2.502  14.270  18.535  0.00  0.00    +0.000 A 
ATOM      9  C   UNL     1       1.316  13.498  18.562  0.00  0.00    +0.000 A 
ATOM     10  C   UNL     1       0.713  13.220  19.778  0.00  0.00    +0.000 A 
ATOM     11  H   UNL     1       0.147  15.140  22.279  0.00  0.00    +0.000 HD
ENDROOT
BRANCH   1  17
ATOM     12  C   UNL     1      -1.270  11.146  18.174  0.00  0.00    +0.000 A 
ATOM     13  C   UNL     1      -2.198  10.755  17.197  0.00  0.00    +0.000 A 
ATOM     14  C   UNL     1      -3.541  11.037  17.306  0.00  0.00    +0.000 A 
ATOM     15  C   UNL     1      -4.044  11.747  18.388  0.00  0.00    +0.000 A 
ATOM     16  C   UNL     1      -3.095  12.217  19.356  0.00  0.00    +0.000 A 
ATOM     17  C   UNL     1      -1.685  11.914  19.303  0.00  0.00    +0.000 A 
BRANCH  15  18
ATOM     18  C   UNL     1      -5.584  11.899  18.417  0.00  0.00    +0.000 C 
ATOM     19  C   UNL     1      -5.971  12.804  19.623  0.00  0.00    +0.000 C 
ATOM     20  C   UNL     1      -6.181  12.529  17.154  0.00  0.00    +0.000 C 
ATOM     21  C   UNL     1      -6.295  10.533  18.636  0.00  0.00    +0.000 C 
ENDBRANCH  15  18
BRANCH  12  22
ATOM     22  O   UNL     1       0.062  10.819  18.006  0.00  0.00    +0.000 OA
BRANCH  22  23
ATOM     23  C   UNL     1       0.364   9.410  18.038  0.00  0.00    +0.000 C 
BRANCH  23  24
ATOM     24  C   UNL     1       1.862   9.134  17.866  0.00  0.00    +0.000 C 
BRANCH  24  26
ATOM     25  C   UNL     1       3.585   7.486  17.557  0.00  0.00    +0.000 C 
ATOM     26  N   UNL     1       2.239   7.716  18.091  0.00  0.00    +0.000 NA
ATOM     27  C   UNL     1       2.196   7.311  19.497  0.00  0.00    +0.000 C 
ENDBRANCH  24  26
ENDBRANCH  23  24
ENDBRANCH  22  23
ENDBRANCH  12  22
ENDBRANCH   1  17
BRANCH   1  28
ATOM     28  C   UNL     1      -0.258  11.465  21.415  0.00  0.00    +0.000 A 
ATOM     29  C   UNL     1      -1.080  11.226  22.519  0.00  0.00    +0.000 A 
ATOM     30  C   UNL     1      -0.817  10.149  23.384  0.00  0.00    +0.000 A 
ATOM     31  C   UNL     1       0.268   9.298  23.160  0.00  0.00    +0.000 A 
ATOM     32  C   UNL     1       1.113   9.527  22.089  0.00  0.00    +0.000 A 
ATOM     33  C   UNL     1       0.866  10.607  21.244  0.00  0.00    +0.000 A 
ENDBRANCH   1  28
TORSDOF 7
ENDMDL
MODEL 2
REMARK VINA RESULT:      -6.6      2.517      3.992
REMARK  Name = 
REMARK  12 active torsions:
REMARK  status: ('A' for Active; 'I' for Inactive)
REMARK    1  A    between atoms: C_1  and  N_2
REMARK    2  A    between atoms: N_2  and  C_3
REMARK    3  A    between atoms: N_2  and  C_4
REMARK    4  A    between atoms: C_4  and  C_5
REMARK    5  A    between atoms: C_5  and  O_6
REMARK    6  A    between atoms: O_6  and  C_7
REMARK    7  A    between atoms: C_10  and  C_11
REMARK    8  A    between atoms: C_11  and  C_12
REMARK    9  A    between atoms: C_11  and  C_13
REMARK   10  A    between atoms: C_11  and  C_14
REMARK   11  A    between atoms: C_16  and  C_17
REMARK   12  A    between atoms: C_17  and  C_18
REMARK                            x       y       z     vdW  Elec       q    Type
REMARK                         _______ _______ _______ _____ _____    ______ ____
ROOT
ATOM      1  C   UNL     1      -0.685  13.133  20.771  0.00  0.00    +0.000 C 
ATOM      2  C   UNL     1       0.089  13.647  22.082  0.00  0.00    +0.000 C 
ATOM      3  O   UNL     1      -0.239  13.689  23.244  0.00  0.00    +0.000 OA
ATOM      4  N   UNL     1       1.354  14.068  21.613  0.00  0.00    +0.000 N 
ATOM      5  C   UNL     1       1.231  14.485  20.293  0.00  0.00    +0.000 A 
ATOM      6  C   UNL     1       2.159  15.305  19.672  0.00  0.00    +0.000 A 
ATOM      7  C   UNL     1       1.657  16.210  18.755  0.00  0.00    +0.000 A 
ATOM      8  C   UNL     1       0.267  16.271  18.545  0.00  0.00    +0.000 A 
ATOM      9  C   UNL     1      -0.616  15.312  19.095  0.00  0.00    +0.000 A 
ATOM     10  C   UNL     1      -0.109  14.296  19.890  0.00  0.00    +0.000 A 
ATOM     11  H   UNL     1       2.068  14.416  22.237  0.00  0.00    +0.000 HD
ENDROOT
BRANCH   1  17
ATOM     12  C   UNL     1      -2.987  12.394  19.807  0.00  0.00    +0.000 A 
ATOM     13  C   UNL     1      -4.386  12.321  19.879  0.00  0.00    +0.000 A 
ATOM     14  C   UNL     1      -5.077  12.613  21.033  0.00  0.00    +0.000 A 
ATOM     15  C   UNL     1      -4.418  13.018  22.186  0.00  0.00    +0.000 A 
ATOM     16  C   UNL     1      -2.994  13.168  22.104  0.00  0.00    +0.000 A 
ATOM     17  C   UNL     1      -2.225  12.838  20.928  0.00  0.00    +0.000 A 
BRANCH  15  18
ATOM     18  C   UNL     1      -5.323  13.214  23.427  0.00  0.00    +0.000 C 
ATOM     19  C   UNL     1      -6.746  12.683  23.093  0.00  0.00    +0.000 C 
ATOM     20  C   UNL     1      -4.839  12.482  24.685  0.00  0.00    +0.000 C 
ATOM     21  C   UNL     1      -5.480  14.717  23.796  0.00  0.00    +0.000 C 
ENDBRANCH  15  18
BRANCH  12  22
ATOM     22  O   UNL     1      -2.358  12.076  18.619  0.00  0.00    +0.000 OA
BRANCH  22  23
ATOM     23  C   UNL     1      -2.620  10.753  18.112  0.00  0.00    +0.000 C 
BRANCH  23  24
ATOM     24  C   UNL     1      -2.101  10.566  16.682  0.00  0.00    +0.000 C 
BRANCH  24  26
ATOM     25  C   UNL     1      -3.065  10.068  14.536  0.00  0.00    +0.000 C 
ATOM     26  N   UNL     1      -3.044  11.037  15.636  0.00  0.00    +0.000 NA
ATOM     27  C   UNL     1      -4.407  11.250  16.125  0.00  0.00    +0.000 C 
ENDBRANCH  24  26
ENDBRANCH  23  24
ENDBRANCH  22  23
ENDBRANCH  12  22
ENDBRANCH   1  17
BRANCH   1  28
ATOM     28  C   UNL     1       0.069  11.764  20.396  0.00  0.00    +0.000 A 
ATOM     29  C   UNL     1       0.026  10.623  21.200  0.00  0.00    +0.000 A 
ATOM     30  C   UNL     1       0.545   9.401  20.735  0.00  0.00    +0.000 A 
ATOM     31  C   UNL     1       1.113   9.303  19.462  0.00  0.00    +0.000 A 
ATOM     32  C   UNL     1       1.192  10.423  18.654  0.00  0.00    +0.000 A 
ATOM     33  C   UNL     1       0.698  11.639  19.124  0.00  0.00    +0.000 A 
ENDBRANCH   1  28
TORSDOF 7
ENDMDL
MODEL 3
REMARK VINA RESULT:      -6.5      1.974      5.583
REMARK  Name = 
REMARK  12 active torsions:
REMARK  status: ('A' for Active; 'I' for Inactive)
REMARK    1  A    between atoms: C_1  and  N_2
REMARK    2  A    between atoms: N_2  and  C_3
REMARK    3  A    between atoms: N_2  and  C_4
REMARK    4  A    between atoms: C_4  and  C_5
REMARK    5  A    between atoms: C_5  and  O_6
REMARK    6  A    between atoms: O_6  and  C_7
REMARK    7  A    between atoms: C_10  and  C_11
REMARK    8  A    between atoms: C_11  and  C_12
REMARK    9  A    between atoms: C_11  and  C_13
REMARK   10  A    between atoms: C_11  and  C_14
REMARK   11  A    between atoms: C_16  and  C_17
REMARK   12  A    between atoms: C_17  and  C_18
REMARK                            x       y       z     vdW  Elec       q    Type
REMARK                         _______ _______ _______ _____ _____    ______ ____
ROOT
ATOM      1  C   UNL     1      -1.114  11.691  19.692  0.00  0.00    +0.000 C 
ATOM      2  C   UNL     1      -1.244  11.067  18.217  0.00  0.00    +0.000 C 
ATOM      3  O   UNL     1      -2.146  11.088  17.413  0.00  0.00    +0.000 OA
ATOM      4  N   UNL     1       0.001  10.442  17.978  0.00  0.00    +0.000 N 
ATOM      5  C   UNL     1       0.546  10.042  19.192  0.00  0.00    +0.000 A 
ATOM      6  C   UNL     1       1.535   9.077  19.292  0.00  0.00    +0.000 A 
ATOM      7  C   UNL     1       1.480   8.260  20.406  0.00  0.00    +0.000 A 
ATOM      8  C   UNL     1       0.427   8.424  21.324  0.00  0.00    +0.000 A 
ATOM      9  C   UNL     1      -0.467   9.519  21.249  0.00  0.00    +0.000 A 
ATOM     10  C   UNL     1      -0.327  10.443  20.226  0.00  0.00    +0.000 A 
ATOM     11  H   UNL     1       0.212   9.987  17.102  0.00  0.00    +0.000 HD
ENDROOT
BRANCH   1  17
ATOM     12  C   UNL     1      -2.452  12.612  21.726  0.00  0.00    +0.000 A 
ATOM     13  C   UNL     1      -3.661  12.905  22.374  0.00  0.00    +0.000 A 
ATOM     14  C   UNL     1      -4.868  12.899  21.712  0.00  0.00    +0.000 A 
ATOM     15  C   UNL     1      -4.950  12.580  20.363  0.00  0.00    +0.000 A 
ATOM     16  C   UNL     1      -3.730  12.206  19.707  0.00  0.00    +0.000 A 
ATOM     17  C   UNL     1      -2.438  12.234  20.350  0.00  0.00    +0.000 A 
BRANCH  15  18
ATOM     18  C   UNL     1      -6.360  12.713  19.739  0.00  0.00    +0.000 C 
ATOM     19  C   UNL     1      -6.210  13.222  18.276  0.00  0.00    +0.000 C 
ATOM     20  C   UNL     1      -7.159  11.405  19.695  0.00  0.00    +0.000 C 
ATOM     21  C   UNL     1      -7.228  13.762  20.492  0.00  0.00    +0.000 C 
ENDBRANCH  15  18
BRANCH  12  22
ATOM     22  O   UNL     1      -1.276  12.647  22.450  0.00  0.00    +0.000 OA
BRANCH  22  23
ATOM     23  C   UNL     1      -1.158  13.732  23.391  0.00  0.00    +0.000 C 
BRANCH  23  24
ATOM     24  C   UNL     1      -0.588  15.001  22.746  0.00  0.00    +0.000 C 
BRANCH  24  26
ATOM     25  C   UNL     1       1.099  16.709  22.876  0.00  0.00    +0.000 C 
ATOM     26  N   UNL     1       0.245  15.817  23.665  0.00  0.00    +0.000 NA
ATOM     27  C   UNL     1      -0.533  16.606  24.622  0.00  0.00    +0.000 C 
ENDBRANCH  24  26
ENDBRANCH  23  24
ENDBRANCH  22  23
ENDBRANCH  12  22
ENDBRANCH   1  17
BRANCH   1  28
ATOM     28  C   UNL     1      -0.091  12.917  19.498  0.00  0.00    +0.000 A 
ATOM     29  C   UNL     1      -0.407  14.067  18.773  0.00  0.00    +0.000 A 
ATOM     30  C   UNL     1       0.450  15.182  18.793  0.00  0.00    +0.000 A 
ATOM     31  C   UNL     1       1.633  15.161  19.537  0.00  0.00    +0.000 A 
ATOM     32  C   UNL     1       1.983  14.026  20.244  0.00  0.00    +0.000 A 
ATOM     33  C   UNL     1       1.145  12.913  20.206  0.00  0.00    +0.000 A 
ENDBRANCH   1  28
TORSDOF 7
ENDMDL
MODEL 4
REMARK VINA RESULT:      -6.5      1.675      5.364
REMARK  Name = 
REMARK  12 active torsions:
REMARK  status: ('A' for Active; 'I' for Inactive)
REMARK    1  A    between atoms: C_1  and  N_2
REMARK    2  A    between atoms: N_2  and  C_3
REMARK    3  A    between atoms: N_2  and  C_4
REMARK    4  A    between atoms: C_4  and  C_5
REMARK    5  A    between atoms: C_5  and  O_6
REMARK    6  A    between atoms: O_6  and  C_7
REMARK    7  A    between atoms: C_10  and  C_11
REMARK    8  A    between atoms: C_11  and  C_12
REMARK    9  A    between atoms: C_11  and  C_13
REMARK   10  A    between atoms: C_11  and  C_14
REMARK   11  A    between atoms: C_16  and  C_17
REMARK   12  A    between atoms: C_17  and  C_18
REMARK                            x       y       z     vdW  Elec       q    Type
REMARK                         _______ _______ _______ _____ _____    ______ ____
ROOT
ATOM      1  C   UNL     1      -0.946  11.497  19.460  0.00  0.00    +0.000 C 
ATOM      2  C   UNL     1      -0.997  10.766  18.030  0.00  0.00    +0.000 C 
ATOM      3  O   UNL     1      -1.845  10.741  17.170  0.00  0.00    +0.000 OA
ATOM      4  N   UNL     1       0.247  10.103  17.919  0.00  0.00    +0.000 N 
ATOM      5  C   UNL     1       0.705   9.785  19.191  0.00  0.00    +0.000 A 
ATOM      6  C   UNL     1       1.665   8.814  19.426  0.00  0.00    +0.000 A 
ATOM      7  C   UNL     1       1.521   8.084  20.592  0.00  0.00    +0.000 A 
ATOM      8  C   UNL     1       0.416   8.335  21.425  0.00  0.00    +0.000 A 
ATOM      9  C   UNL     1      -0.447   9.436  21.211  0.00  0.00    +0.000 A 
ATOM     10  C   UNL     1      -0.222  10.279  20.134  0.00  0.00    +0.000 A 
ATOM     11  H   UNL     1       0.502   9.579  17.094  0.00  0.00    +0.000 HD
ENDROOT
BRANCH   1  17
ATOM     12  C   UNL     1      -2.377  12.629  21.316  0.00  0.00    +0.000 A 
ATOM     13  C   UNL     1      -3.615  12.992  21.867  0.00  0.00    +0.000 A 
ATOM     14  C   UNL     1      -4.787  12.923  21.147  0.00  0.00    +0.000 A 
ATOM     15  C   UNL     1      -4.802  12.467  19.836  0.00  0.00    +0.000 A 
ATOM     16  C   UNL     1      -3.554  12.022  19.286  0.00  0.00    +0.000 A 
ATOM     17  C   UNL     1      -2.297  12.111  19.989  0.00  0.00    +0.000 A 
BRANCH  15  18
ATOM     18  C   UNL     1      -6.177  12.541  19.129  0.00  0.00    +0.000 C 
ATOM     19  C   UNL     1      -6.905  13.835  19.594  0.00  0.00    +0.000 C 
ATOM     20  C   UNL     1      -6.101  12.576  17.599  0.00  0.00    +0.000 C 
ATOM     21  C   UNL     1      -7.094  11.346  19.522  0.00  0.00    +0.000 C 
ENDBRANCH  15  18
BRANCH  12  22
ATOM     22  O   UNL     1      -1.239  12.733  22.093  0.00  0.00    +0.000 OA
BRANCH  22  23
ATOM     23  C   UNL     1      -1.434  13.288  23.408  0.00  0.00    +0.000 C 
BRANCH  23  24
ATOM     24  C   UNL     1      -1.044  14.768  23.478  0.00  0.00    +0.000 C 
BRANCH  24  26
ATOM     25  C   UNL     1      -1.135  16.127  21.497  0.00  0.00    +0.000 C 
ATOM     26  N   UNL     1      -0.281  15.243  22.296  0.00  0.00    +0.000 NA
ATOM     27  C   UNL     1       0.960  15.940  22.637  0.00  0.00    +0.000 C 
ENDBRANCH  24  26
ENDBRANCH  23  24
ENDBRANCH  22  23
ENDBRANCH  12  22
ENDBRANCH   1  17
BRANCH   1  28
ATOM     28  C   UNL     1       0.114  12.686  19.243  0.00  0.00    +0.000 A 
ATOM     29  C   UNL     1      -0.178  13.847  18.524  0.00  0.00    +0.000 A 
ATOM     30  C   UNL     1       0.717  14.931  18.524  0.00  0.00    +0.000 A 
ATOM     31  C   UNL     1       1.915  14.870  19.241  0.00  0.00    +0.000 A 
ATOM     32  C   UNL     1       2.242  13.722  19.941  0.00  0.00    +0.000 A 
ATOM     33  C   UNL     1       1.364  12.639  19.922  0.00  0.00    +0.000 A 
ENDBRANCH   1  28
TORSDOF 7
ENDMDL
MODEL 5
REMARK VINA RESULT:      -6.5      2.263      3.712
REMARK  Name = 
REMARK  12 active torsions:
REMARK  status: ('A' for Active; 'I' for Inactive)
REMARK    1  A    between atoms: C_1  and  N_2
REMARK    2  A    between atoms: N_2  and  C_3
REMARK    3  A    between atoms: N_2  and  C_4
REMARK    4  A    between atoms: C_4  and  C_5
REMARK    5  A    between atoms: C_5  and  O_6
REMARK    6  A    between atoms: O_6  and  C_7
REMARK    7  A    between atoms: C_10  and  C_11
REMARK    8  A    between atoms: C_11  and  C_12
REMARK    9  A    between atoms: C_11  and  C_13
REMARK   10  A    between atoms: C_11  and  C_14
REMARK   11  A    between atoms: C_16  and  C_17
REMARK   12  A    between atoms: C_17  and  C_18
REMARK                            x       y       z     vdW  Elec       q    Type
REMARK                         _______ _______ _______ _____ _____    ______ ____
ROOT
ATOM      1  C   UNL     1      -1.511  13.016  21.392  0.00  0.00    +0.000 C 
ATOM      2  C   UNL     1      -1.190  13.858  22.721  0.00  0.00    +0.000 C 
ATOM      3  O   UNL     1      -1.888  14.192  23.649  0.00  0.00    +0.000 OA
ATOM      4  N   UNL     1       0.188  14.161  22.633  0.00  0.00    +0.000 N 
ATOM      5  C   UNL     1       0.552  14.224  21.294  0.00  0.00    +0.000 A 
ATOM      6  C   UNL     1       1.696  14.869  20.853  0.00  0.00    +0.000 A 
ATOM      7  C   UNL     1       1.606  15.502  19.627  0.00  0.00    +0.000 A 
ATOM      8  C   UNL     1       0.379  15.490  18.939  0.00  0.00    +0.000 A 
ATOM      9  C   UNL     1      -0.710  14.693  19.365  0.00  0.00    +0.000 A 
ATOM     10  C   UNL     1      -0.582  13.921  20.509  0.00  0.00    +0.000 A 
ATOM     11  H   UNL     1       0.673  14.667  23.361  0.00  0.00    +0.000 HD
ENDROOT
BRANCH   1  17
ATOM     12  C   UNL     1      -3.420  12.283  19.781  0.00  0.00    +0.000 A 
ATOM     13  C   UNL     1      -4.775  12.235  19.418  0.00  0.00    +0.000 A 
ATOM     14  C   UNL     1      -5.781  12.576  20.293  0.00  0.00    +0.000 A 
ATOM     15  C   UNL     1      -5.501  13.009  21.583  0.00  0.00    +0.000 A 
ATOM     16  C   UNL     1      -4.117  13.133  21.942  0.00  0.00    +0.000 A 
ATOM     17  C   UNL     1      -3.031  12.752  21.072  0.00  0.00    +0.000 A 
BRANCH  15  18
ATOM     18  C   UNL     1      -6.739  13.260  22.476  0.00  0.00    +0.000 C 
ATOM     19  C   UNL     1      -7.713  12.056  22.325  0.00  0.00    +0.000 C 
ATOM     20  C   UNL     1      -6.422  13.416  23.968  0.00  0.00    +0.000 C 
ATOM     21  C   UNL     1      -7.523  14.529  22.033  0.00  0.00    +0.000 C 
ENDBRANCH  15  18
BRANCH  12  22
ATOM     22  O   UNL     1      -2.462  11.915  18.856  0.00  0.00    +0.000 OA
BRANCH  22  23
ATOM     23  C   UNL     1      -2.749  10.717  18.109  0.00  0.00    +0.000 C 
BRANCH  23  24
ATOM     24  C   UNL     1      -2.108  10.733  16.716  0.00  0.00    +0.000 C 
BRANCH  24  26
ATOM     25  C   UNL     1      -2.926  10.052  14.560  0.00  0.00    +0.000 C 
ATOM     26  N   UNL     1      -3.060  11.053  15.623  0.00  0.00    +0.000 NA
ATOM     27  C   UNL     1      -4.456  11.119  16.058  0.00  0.00    +0.000 C 
ENDBRANCH  24  26
ENDBRANCH  23  24
ENDBRANCH  22  23
ENDBRANCH  12  22
ENDBRANCH   1  17
BRANCH   1  28
ATOM     28  C   UNL     1      -0.783  11.605  21.649  0.00  0.00    +0.000 A 
ATOM     29  C   UNL     1       0.200  11.088  20.802  0.00  0.00    +0.000 A 
ATOM     30  C   UNL     1       0.933   9.947  21.174  0.00  0.00    +0.000 A 
ATOM     31  C   UNL     1       0.694   9.308  22.393  0.00  0.00    +0.000 A 
ATOM     32  C   UNL     1      -0.291   9.784  23.240  0.00  0.00    +0.000 A 
ATOM     33  C   UNL     1      -1.033  10.902  22.862  0.00  0.00    +0.000 A 
ENDBRANCH   1  28
TORSDOF 7
ENDMDL
MODEL 6
REMARK VINA RESULT:      -6.5      2.048      5.677
REMARK  Name = 
REMARK  12 active torsions:
REMARK  status: ('A' for Active; 'I' for Inactive)
REMARK    1  A    between atoms: C_1  and  N_2
REMARK    2  A    between atoms: N_2  and  C_3
REMARK    3  A    between atoms: N_2  and  C_4
REMARK    4  A    between atoms: C_4  and  C_5
REMARK    5  A    between atoms: C_5  and  O_6
REMARK    6  A    between atoms: O_6  and  C_7
REMARK    7  A    between atoms: C_10  and  C_11
REMARK    8  A    between atoms: C_11  and  C_12
REMARK    9  A    between atoms: C_11  and  C_13
REMARK   10  A    between atoms: C_11  and  C_14
REMARK   11  A    between atoms: C_16  and  C_17
REMARK   12  A    between atoms: C_17  and  C_18
REMARK                            x       y       z     vdW  Elec       q    Type
REMARK                         _______ _______ _______ _____ _____    ______ ____
ROOT
ATOM      1  C   UNL     1      -1.083  11.544  19.588  0.00  0.00    +0.000 C 
ATOM      2  C   UNL     1      -1.101  10.870  18.130  0.00  0.00    +0.000 C 
ATOM      3  O   UNL     1      -1.942  10.856  17.262  0.00  0.00    +0.000 OA
ATOM      4  N   UNL     1       0.161  10.247  18.004  0.00  0.00    +0.000 N 
ATOM      5  C   UNL     1       0.618   9.892  19.267  0.00  0.00    +0.000 A 
ATOM      6  C   UNL     1       1.603   8.939  19.472  0.00  0.00    +0.000 A 
ATOM      7  C   UNL     1       1.471   8.159  20.606  0.00  0.00    +0.000 A 
ATOM      8  C   UNL     1       0.352   8.346  21.438  0.00  0.00    +0.000 A 
ATOM      9  C   UNL     1      -0.540   9.430  21.261  0.00  0.00    +0.000 A 
ATOM     10  C   UNL     1      -0.330  10.321  20.220  0.00  0.00    +0.000 A 
ATOM     11  H   UNL     1       0.438   9.764  17.161  0.00  0.00    +0.000 HD
ENDROOT
BRANCH   1  17
ATOM     12  C   UNL     1      -2.563  12.547  21.479  0.00  0.00    +0.000 A 
ATOM     13  C   UNL     1      -3.817  12.853  22.031  0.00  0.00    +0.000 A 
ATOM     14  C   UNL     1      -4.977  12.792  21.293  0.00  0.00    +0.000 A 
ATOM     15  C   UNL     1      -4.966  12.402  19.960  0.00  0.00    +0.000 A 
ATOM     16  C   UNL     1      -3.701  12.016  19.405  0.00  0.00    +0.000 A 
ATOM     17  C   UNL     1      -2.455  12.098  20.129  0.00  0.00    +0.000 A 
BRANCH  15  18
ATOM     18  C   UNL     1      -6.333  12.480  19.239  0.00  0.00    +0.000 C 
ATOM     19  C   UNL     1      -7.444  12.705  20.305  0.00  0.00    +0.000 C 
ATOM     20  C   UNL     1      -6.443  13.610  18.210  0.00  0.00    +0.000 C 
ATOM     21  C   UNL     1      -6.677  11.150  18.508  0.00  0.00    +0.000 C 
ENDBRANCH  15  18
BRANCH  12  22
ATOM     22  O   UNL     1      -1.438  12.639  22.275  0.00  0.00    +0.000 OA
BRANCH  22  23
ATOM     23  C   UNL     1      -1.585  13.435  23.468  0.00  0.00    +0.000 C 
BRANCH  23  24
ATOM     24  C   UNL     1      -0.926  14.812  23.331  0.00  0.00    +0.000 C 
BRANCH  24  26
ATOM     25  C   UNL     1      -2.927  15.966  23.997  0.00  0.00    +0.000 C 
ATOM     26  N   UNL     1      -1.488  15.839  24.245  0.00  0.00    +0.000 NA
ATOM     27  C   UNL     1      -1.260  15.554  25.662  0.00  0.00    +0.000 C 
ENDBRANCH  24  26
ENDBRANCH  23  24
ENDBRANCH  22  23
ENDBRANCH  12  22
ENDBRANCH   1  17
BRANCH   1  28
ATOM     28  C   UNL     1      -0.055  12.770  19.428  0.00  0.00    +0.000 A 
ATOM     29  C   UNL     1      -0.306  13.875  18.612  0.00  0.00    +0.000 A 
ATOM     30  C   UNL     1       0.537  15.000  18.654  0.00  0.00    +0.000 A 
ATOM     31  C   UNL     1       1.640  15.036  19.510  0.00  0.00    +0.000 A 
ATOM     32  C   UNL     1       1.927  13.946  20.312  0.00  0.00    +0.000 A 
ATOM     33  C   UNL     1       1.104  12.822  20.253  0.00  0.00    +0.000 A 
ENDBRANCH   1  28
TORSDOF 7
ENDMDL
MODEL 7
REMARK VINA RESULT:      -6.5      1.911      5.533
REMARK  Name = 
REMARK  12 active torsions:
REMARK  status: ('A' for Active; 'I' for Inactive)
REMARK    1  A    between atoms: C_1  and  N_2
REMARK    2  A    between atoms: N_2  and  C_3
REMARK    3  A    between atoms: N_2  and  C_4
REMARK    4  A    between atoms: C_4  and  C_5
REMARK    5  A    between atoms: C_5  and  O_6
REMARK    6  A    between atoms: O_6  and  C_7
REMARK    7  A    between atoms: C_10  and  C_11
REMARK    8  A    between atoms: C_11  and  C_12
REMARK    9  A    between atoms: C_11  and  C_13
REMARK   10  A    between atoms: C_11  and  C_14
REMARK   11  A    between atoms: C_16  and  C_17
REMARK   12  A    between atoms: C_17  and  C_18
REMARK                            x       y       z     vdW  Elec       q    Type
REMARK                         _______ _______ _______ _____ _____    ______ ____
ROOT
ATOM      1  C   UNL     1      -0.971  11.685  19.822  0.00  0.00    +0.000 C 
ATOM      2  C   UNL     1      -0.992  11.136  18.312  0.00  0.00    +0.000 C 
ATOM      3  O   UNL     1      -1.820  11.223  17.437  0.00  0.00    +0.000 OA
ATOM      4  N   UNL     1       0.253  10.486  18.148  0.00  0.00    +0.000 N 
ATOM      5  C   UNL     1       0.682  10.012  19.381  0.00  0.00    +0.000 A 
ATOM      6  C   UNL     1       1.633   9.013  19.515  0.00  0.00    +0.000 A 
ATOM      7  C   UNL     1       1.462   8.146  20.578  0.00  0.00    +0.000 A 
ATOM      8  C   UNL     1       0.339   8.298  21.411  0.00  0.00    +0.000 A 
ATOM      9  C   UNL     1      -0.517   9.422  21.317  0.00  0.00    +0.000 A 
ATOM     10  C   UNL     1      -0.265  10.390  20.357  0.00  0.00    +0.000 A 
ATOM     11  H   UNL     1       0.525  10.067  17.270  0.00  0.00    +0.000 HD
ENDROOT
BRANCH   1  17
ATOM     12  C   UNL     1      -2.442  12.583  21.773  0.00  0.00    +0.000 A 
ATOM     13  C   UNL     1      -3.692  12.881  22.337  0.00  0.00    +0.000 A 
ATOM     14  C   UNL     1      -4.846  12.911  21.587  0.00  0.00    +0.000 A 
ATOM     15  C   UNL     1      -4.832  12.624  20.228  0.00  0.00    +0.000 A 
ATOM     16  C   UNL     1      -3.573  12.245  19.655  0.00  0.00    +0.000 A 
ATOM     17  C   UNL     1      -2.332  12.236  20.393  0.00  0.00    +0.000 A 
BRANCH  15  18
ATOM     18  C   UNL     1      -6.190  12.796  19.505  0.00  0.00    +0.000 C 
ATOM     19  C   UNL     1      -7.156  11.677  19.989  0.00  0.00    +0.000 C 
ATOM     20  C   UNL     1      -6.876  14.143  19.760  0.00  0.00    +0.000 C 
ATOM     21  C   UNL     1      -6.049  12.631  17.964  0.00  0.00    +0.000 C 
ENDBRANCH  15  18
BRANCH  12  22
ATOM     22  O   UNL     1      -1.323  12.581  22.583  0.00  0.00    +0.000 OA
BRANCH  22  23
ATOM     23  C   UNL     1      -1.175  13.730  23.440  0.00  0.00    +0.000 C 
BRANCH  23  24
ATOM     24  C   UNL     1      -0.636  14.951  22.685  0.00  0.00    +0.000 C 
BRANCH  24  26
ATOM     25  C   UNL     1       1.128  16.579  22.545  0.00  0.00    +0.000 C 
ATOM     26  N   UNL     1       0.338  15.755  23.465  0.00  0.00    +0.000 NA
ATOM     27  C   UNL     1      -0.282  16.612  24.477  0.00  0.00    +0.000 C 
ENDBRANCH  24  26
ENDBRANCH  23  24
ENDBRANCH  22  23
ENDBRANCH  12  22
ENDBRANCH   1  17
BRANCH   1  28
ATOM     28  C   UNL     1       0.096  12.887  19.777  0.00  0.00    +0.000 A 
ATOM     29  C   UNL     1       1.330  12.837  20.429  0.00  0.00    +0.000 A 
ATOM     30  C   UNL     1       2.297  13.833  20.202  0.00  0.00    +0.000 A 
ATOM     31  C   UNL     1       2.045  14.889  19.323  0.00  0.00    +0.000 A 
ATOM     32  C   UNL     1       0.822  14.976  18.683  0.00  0.00    +0.000 A 
ATOM     33  C   UNL     1      -0.145  14.002  18.925  0.00  0.00    +0.000 A 
ENDBRANCH   1  28
TORSDOF 7
ENDMDL
MODEL 8
REMARK VINA RESULT:      -6.4      2.161      5.803
REMARK  Name = 
REMARK  12 active torsions:
REMARK  status: ('A' for Active; 'I' for Inactive)
REMARK    1  A    between atoms: C_1  and  N_2
REMARK    2  A    between atoms: N_2  and  C_3
REMARK    3  A    between atoms: N_2  and  C_4
REMARK    4  A    between atoms: C_4  and  C_5
REMARK    5  A    between atoms: C_5  and  O_6
REMARK    6  A    between atoms: O_6  and  C_7
REMARK    7  A    between atoms: C_10  and  C_11
REMARK    8  A    between atoms: C_11  and  C_12
REMARK    9  A    between atoms: C_11  and  C_13
REMARK   10  A    between atoms: C_11  and  C_14
REMARK   11  A    between atoms: C_16  and  C_17
REMARK   12  A    between atoms: C_17  and  C_18
REMARK                            x       y       z     vdW  Elec       q    Type
REMARK                         _______ _______ _______ _____ _____    ______ ____
ROOT
ATOM      1  C   UNL     1      -1.028  11.598  19.529  0.00  0.00    +0.000 C 
ATOM      2  C   UNL     1      -1.010  10.883  18.091  0.00  0.00    +0.000 C 
ATOM      3  O   UNL     1      -1.817  10.865  17.192  0.00  0.00    +0.000 OA
ATOM      4  N   UNL     1       0.241  10.226  18.030  0.00  0.00    +0.000 N 
ATOM      5  C   UNL     1       0.641   9.897  19.319  0.00  0.00    +0.000 A 
ATOM      6  C   UNL     1       1.593   8.926  19.587  0.00  0.00    +0.000 A 
ATOM      7  C   UNL     1       1.399   8.183  20.737  0.00  0.00    +0.000 A 
ATOM      8  C   UNL     1       0.256   8.421  21.521  0.00  0.00    +0.000 A 
ATOM      9  C   UNL     1      -0.601   9.521  21.280  0.00  0.00    +0.000 A 
ATOM     10  C   UNL     1      -0.330  10.376  20.223  0.00  0.00    +0.000 A 
ATOM     11  H   UNL     1       0.536   9.713  17.212  0.00  0.00    +0.000 HD
ENDROOT
BRANCH   1  17
ATOM     12  C   UNL     1      -2.540  12.727  21.322  0.00  0.00    +0.000 A 
ATOM     13  C   UNL     1      -3.803  13.081  21.822  0.00  0.00    +0.000 A 
ATOM     14  C   UNL     1      -4.945  12.994  21.059  0.00  0.00    +0.000 A 
ATOM     15  C   UNL     1      -4.906  12.530  19.751  0.00  0.00    +0.000 A 
ATOM     16  C   UNL     1      -3.633  12.095  19.252  0.00  0.00    +0.000 A 
ATOM     17  C   UNL     1      -2.404  12.201  20.002  0.00  0.00    +0.000 A 
BRANCH  15  18
ATOM     18  C   UNL     1      -6.253  12.585  18.991  0.00  0.00    +0.000 C 
ATOM     19  C   UNL     1      -6.022  12.098  17.532  0.00  0.00    +0.000 C 
ATOM     20  C   UNL     1      -7.359  11.715  19.601  0.00  0.00    +0.000 C 
ATOM     21  C   UNL     1      -6.804  14.037  18.897  0.00  0.00    +0.000 C 
ENDBRANCH  15  18
BRANCH  12  22
ATOM     22  O   UNL     1      -1.435  12.849  22.140  0.00  0.00    +0.000 OA
BRANCH  22  23
ATOM     23  C   UNL     1      -1.717  13.075  23.535  0.00  0.00    +0.000 C 
BRANCH  23  24
ATOM     24  C   UNL     1      -1.360  14.499  23.976  0.00  0.00    +0.000 C 
BRANCH  24  26
ATOM     25  C   UNL     1      -1.243  15.715  26.047  0.00  0.00    +0.000 C 
ATOM     26  N   UNL     1      -2.135  14.975  25.149  0.00  0.00    +0.000 NA
ATOM     27  C   UNL     1      -3.281  15.816  24.797  0.00  0.00    +0.000 C 
ENDBRANCH  24  26
ENDBRANCH  23  24
ENDBRANCH  22  23
ENDBRANCH  12  22
ENDBRANCH   1  17
BRANCH   1  28
ATOM     28  C   UNL     1       0.036  12.794  19.374  0.00  0.00    +0.000 A 
ATOM     29  C   UNL     1      -0.204  13.933  18.602  0.00  0.00    +0.000 A 
ATOM     30  C   UNL     1       0.679  15.027  18.652  0.00  0.00    +0.000 A 
ATOM     31  C   UNL     1       1.809  14.998  19.472  0.00  0.00    +0.000 A 
ATOM     32  C   UNL     1       2.085  13.873  20.228  0.00  0.00    +0.000 A 
ATOM     33  C   UNL     1       1.222  12.779  20.161  0.00  0.00    +0.000 A 
ENDBRANCH   1  28
TORSDOF 7
ENDMDL
MODEL 9
REMARK VINA RESULT:      -6.4      2.248      3.594
REMARK  Name = 
REMARK  12 active torsions:
REMARK  status: ('A' for Active; 'I' for Inactive)
REMARK    1  A    between atoms: C_1  and  N_2
REMARK    2  A    between atoms: N_2  and  C_3
REMARK    3  A    between atoms: N_2  and  C_4
REMARK    4  A    between atoms: C_4  and  C_5
REMARK    5  A    between atoms: C_5  and  O_6
REMARK    6  A    between atoms: O_6  and  C_7
REMARK    7  A    between atoms: C_10  and  C_11
REMARK    8  A    between atoms: C_11  and  C_12
REMARK    9  A    between atoms: C_11  and  C_13
REMARK   10  A    between atoms: C_11  and  C_14
REMARK   11  A    between atoms: C_16  and  C_17
REMARK   12  A    between atoms: C_17  and  C_18
REMARK                            x       y       z     vdW  Elec       q    Type
REMARK                         _______ _______ _______ _____ _____    ______ ____
ROOT
ATOM      1  C   UNL     1      -1.339  13.258  21.446  0.00  0.00    +0.000 C 
ATOM      2  C   UNL     1      -0.983  14.219  22.685  0.00  0.00    +0.000 C 
ATOM      3  O   UNL     1      -1.662  14.655  23.584  0.00  0.00    +0.000 OA
ATOM      4  N   UNL     1       0.399  14.483  22.551  0.00  0.00    +0.000 N 
ATOM      5  C   UNL     1       0.746  14.409  21.208  0.00  0.00    +0.000 A 
ATOM      6  C   UNL     1       1.896  14.985  20.694  0.00  0.00    +0.000 A 
ATOM      7  C   UNL     1       1.802  15.498  19.414  0.00  0.00    +0.000 A 
ATOM      8  C   UNL     1       0.566  15.445  18.744  0.00  0.00    +0.000 A 
ATOM      9  C   UNL     1      -0.533  14.715  19.258  0.00  0.00    +0.000 A 
ATOM     10  C   UNL     1      -0.404  14.055  20.470  0.00  0.00    +0.000 A 
ATOM     11  H   UNL     1       0.903  15.046  23.221  0.00  0.00    +0.000 HD
ENDROOT
BRANCH   1  17
ATOM     12  C   UNL     1      -3.287  12.456  19.919  0.00  0.00    +0.000 A 
ATOM     13  C   UNL     1      -4.649  12.405  19.584  0.00  0.00    +0.000 A 
ATOM     14  C   UNL     1      -5.634  12.811  20.455  0.00  0.00    +0.000 A 
ATOM     15  C   UNL     1      -5.324  13.316  21.711  0.00  0.00    +0.000 A 
ATOM     16  C   UNL     1      -3.933  13.443  22.037  0.00  0.00    +0.000 A 
ATOM     17  C   UNL     1      -2.868  12.996  21.171  0.00  0.00    +0.000 A 
BRANCH  15  18
ATOM     18  C   UNL     1      -6.542  13.637  22.611  0.00  0.00    +0.000 C 
ATOM     19  C   UNL     1      -6.127  14.732  23.636  0.00  0.00    +0.000 C 
ATOM     20  C   UNL     1      -7.770  14.153  21.852  0.00  0.00    +0.000 C 
ATOM     21  C   UNL     1      -6.993  12.398  23.437  0.00  0.00    +0.000 C 
ENDBRANCH  15  18
BRANCH  12  22
ATOM     22  O   UNL     1      -2.352  12.021  18.999  0.00  0.00    +0.000 OA
BRANCH  22  23
ATOM     23  C   UNL     1      -2.564  10.695  18.478  0.00  0.00    +0.000 C 
BRANCH  23  24
ATOM     24  C   UNL     1      -2.168  10.581  17.002  0.00  0.00    +0.000 C 
BRANCH  24  26
ATOM     25  C   UNL     1      -4.391  11.152  16.284  0.00  0.00    +0.000 C 
ATOM     26  N   UNL     1      -3.290  10.199  16.108  0.00  0.00    +0.000 NA
ATOM     27  C   UNL     1      -2.921  10.137  14.692  0.00  0.00    +0.000 C 
ENDBRANCH  24  26
ENDBRANCH  23  24
ENDBRANCH  22  23
ENDBRANCH  12  22
ENDBRANCH   1  17
BRANCH   1  28
ATOM     28  C   UNL     1      -0.635  11.865  21.831  0.00  0.00    +0.000 A 
ATOM     29  C   UNL     1      -0.985  11.117  22.957  0.00  0.00    +0.000 A 
ATOM     30  C   UNL     1      -0.471   9.821  23.141  0.00  0.00    +0.000 A 
ATOM     31  C   UNL     1       0.399   9.256  22.205  0.00  0.00    +0.000 A 
ATOM     32  C   UNL     1       0.783   9.984  21.094  0.00  0.00    +0.000 A 
ATOM     33  C   UNL     1       0.291  11.277  20.922  0.00  0.00    +0.000 A 
ENDBRANCH   1  28
TORSDOF 7
ENDMDL
