MODEL 1
REMARK VINA RESULT:      -6.7      0.000      0.000
REMARK  Name = 
REMARK  8 active torsions:
REMARK  status: ('A' for Active; 'I' for Inactive)
REMARK    1  A    between atoms: C_1  and  C_2
REMARK    2  A    between atoms: C_2  and  C_3
REMARK    3  A    between atoms: C_3  and  C_4
REMARK    4  A    between atoms: C_3  and  C_14
REMARK    5  A    between atoms: C_4  and  N_5
REMARK    6  A    between atoms: N_5  and  C_6
REMARK    7  A    between atoms: C_6  and  C_7
REMARK    8  A    between atoms: C_16  and  C_17
REMARK                            x       y       z     vdW  Elec       q    Type
REMARK                         _______ _______ _______ _____ _____    ______ ____
ROOT
ATOM      1  C   UNL     1       2.145   4.040  18.137  0.00  0.00    +0.000 C 
ENDROOT
BRANCH   1   2
ATOM      2  C   UNL     1       2.285   5.318  18.942  0.00  0.00    +0.000 C 
ATOM      3  C   UNL     1       3.592   5.842  19.451  0.00  0.00    +0.000 C 
ATOM      4  C   UNL     1       2.867   6.612  18.372  0.00  0.00    +0.000 C 
BRANCH   4   5
ATOM      5  C   UNL     1       2.148   7.900  18.722  0.00  0.00    +0.000 A 
ATOM      6  C   UNL     1       1.845   8.887  17.814  0.00  0.00    +0.000 A 
ATOM      7  N   UNL     1       1.195   9.842  18.541  0.00  0.00    +0.000 N 
ATOM      8  C   UNL     1       1.128   9.405  19.833  0.00  0.00    +0.000 A 
ATOM      9  N   UNL     1       1.690   8.226  19.972  0.00  0.00    +0.000 NA
ATOM     10  H   UNL     1       0.821  10.716  18.192  0.00  0.00    +0.000 HD
ENDBRANCH   4   5
ENDBRANCH   1   2
BRANCH   1  12
ATOM     11  C   UNL     1       0.982   3.169  20.265  0.00  0.00    +0.000 C 
ATOM     12  C   UNL     1       1.142   3.042  18.756  0.00  0.00    +0.000 C 
ENDBRANCH   1  12
BRANCH   1  13
ATOM     13  C   UNL     1       3.486   3.341  17.797  0.00  0.00    +0.000 C 
BRANCH  13  14
ATOM     14  N   UNL     1       4.027   3.861  16.541  0.00  0.00    +0.000 NA
ATOM     15  H   UNL     1       3.814   4.856  16.466  0.00  0.00    +0.000 HD
BRANCH  14  16
ATOM     16  C   UNL     1       5.472   3.685  16.417  0.00  0.00    +0.000 C 
BRANCH  16  17
ATOM     17  C   UNL     1       6.179   4.897  16.986  0.00  0.00    +0.000 A 
ATOM     18  C   UNL     1       5.969   6.178  16.457  0.00  0.00    +0.000 A 
ATOM     19  C   UNL     1       6.677   7.275  16.959  0.00  0.00    +0.000 A 
ATOM     20  C   UNL     1       7.597   7.098  17.990  0.00  0.00    +0.000 A 
ATOM     21 CL   UNL     1       8.485   8.444  18.587  0.00  0.00    +0.000 Cl
ATOM     22  C   UNL     1       7.807   5.835  18.536  0.00  0.00    +0.000 A 
ATOM     23  C   UNL     1       7.099   4.740  18.038  0.00  0.00    +0.000 A 
ENDBRANCH  16  17
ENDBRANCH  14  16
ENDBRANCH  13  14
ENDBRANCH   1  13
TORSDOF 7
ENDMDL
MODEL 2
REMARK VINA RESULT:      -6.5      2.445      4.741
REMARK  Name = 
REMARK  8 active torsions:
REMARK  status: ('A' for Active; 'I' for Inactive)
REMARK    1  A    between atoms: C_1  and  C_2
REMARK    2  A    between atoms: C_2  and  C_3
REMARK    3  A    between atoms: C_3  and  C_4
REMARK    4  A    between atoms: C_3  and  C_14
REMARK    5  A    between atoms: C_4  and  N_5
REMARK    6  A    between atoms: N_5  and  C_6
REMARK    7  A    between atoms: C_6  and  C_7
REMARK    8  A    between atoms: C_16  and  C_17
REMARK                            x       y       z     vdW  Elec       q    Type
REMARK                         _______ _______ _______ _____ _____    ______ ____
ROOT
ATOM      1  C   UNL     1       6.468   6.126  17.776  0.00  0.00    +0.000 C 
ENDROOT
BRANCH   1   2
ATOM      2  C   UNL     1       5.303   7.046  17.465  0.00  0.00    +0.000 C 
ATOM      3  C   UNL     1       4.478   6.952  16.219  0.00  0.00    +0.000 C 
ATOM      4  C   UNL     1       3.840   6.607  17.544  0.00  0.00    +0.000 C 
BRANCH   4   5
ATOM      5  C   UNL     1       2.868   7.578  18.185  0.00  0.00    +0.000 A 
ATOM      6  C   UNL     1       2.402   8.720  17.576  0.00  0.00    +0.000 A 
ATOM      7  N   UNL     1       1.553   9.279  18.487  0.00  0.00    +0.000 N 
ATOM      8  C   UNL     1       1.535   8.471  19.588  0.00  0.00    +0.000 A 
ATOM      9  N   UNL     1       2.317   7.426  19.431  0.00  0.00    +0.000 NA
ATOM     10  H   UNL     1       1.023  10.134  18.373  0.00  0.00    +0.000 HD
ENDBRANCH   4   5
ENDBRANCH   1   2
BRANCH   1  12
ATOM     11  C   UNL     1       7.740   8.366  17.795  0.00  0.00    +0.000 C 
ATOM     12  C   UNL     1       7.754   6.888  18.162  0.00  0.00    +0.000 C 
ENDBRANCH   1  12
BRANCH   1  13
ATOM     13  C   UNL     1       6.759   5.061  16.688  0.00  0.00    +0.000 C 
BRANCH  13  14
ATOM     14  N   UNL     1       6.232   3.758  17.097  0.00  0.00    +0.000 NA
ATOM     15  H   UNL     1       6.171   3.722  18.114  0.00  0.00    +0.000 HD
BRANCH  14  16
ATOM     16  C   UNL     1       4.913   3.467  16.542  0.00  0.00    +0.000 C 
BRANCH  16  17
ATOM     17  C   UNL     1       3.922   3.273  17.669  0.00  0.00    +0.000 A 
ATOM     18  C   UNL     1       2.560   3.064  17.414  0.00  0.00    +0.000 A 
ATOM     19  C   UNL     1       1.652   2.946  18.471  0.00  0.00    +0.000 A 
ATOM     20  C   UNL     1       2.099   3.037  19.787  0.00  0.00    +0.000 A 
ATOM     21 CL   UNL     1       0.976   2.919  21.084  0.00  0.00    +0.000 Cl
ATOM     22  C   UNL     1       3.451   3.231  20.059  0.00  0.00    +0.000 A 
ATOM     23  C   UNL     1       4.357   3.346  19.004  0.00  0.00    +0.000 A 
ENDBRANCH  16  17
ENDBRANCH  14  16
ENDBRANCH  13  14
ENDBRANCH   1  13
TORSDOF 7
ENDMDL
MODEL 3
REMARK VINA RESULT:      -6.3      1.130      1.655
REMARK  Name = 
REMARK  8 active torsions:
REMARK  status: ('A' for Active; 'I' for Inactive)
REMARK    1  A    between atoms: C_1  and  C_2
REMARK    2  A    between atoms: C_2  and  C_3
REMARK    3  A    between atoms: C_3  and  C_4
REMARK    4  A    between atoms: C_3  and  C_14
REMARK    5  A    between atoms: C_4  and  N_5
REMARK    6  A    between atoms: N_5  and  C_6
REMARK    7  A    between atoms: C_6  and  C_7
REMARK    8  A    between atoms: C_16  and  C_17
REMARK                            x       y       z     vdW  Elec       q    Type
REMARK                         _______ _______ _______ _____ _____    ______ ____
ROOT
ATOM      1  C   UNL     1       2.855   4.226  18.478  0.00  0.00    +0.000 C 
ENDROOT
BRANCH   1   2
ATOM      2  C   UNL     1       2.119   5.450  18.991  0.00  0.00    +0.000 C 
ATOM      3  C   UNL     1       2.122   5.880  20.426  0.00  0.00    +0.000 C 
ATOM      4  C   UNL     1       2.823   6.743  19.403  0.00  0.00    +0.000 C 
BRANCH   4   5
ATOM      5  C   UNL     1       2.185   8.043  18.952  0.00  0.00    +0.000 A 
ATOM      6  C   UNL     1       2.364   8.600  17.707  0.00  0.00    +0.000 A 
ATOM      7  N   UNL     1       1.610   9.738  17.722  0.00  0.00    +0.000 N 
ATOM      8  C   UNL     1       1.014   9.822  18.949  0.00  0.00    +0.000 A 
ATOM      9  N   UNL     1       1.337   8.804  19.713  0.00  0.00    +0.000 NA
ATOM     10  H   UNL     1       1.501  10.400  16.965  0.00  0.00    +0.000 HD
ENDBRANCH   4   5
ENDBRANCH   1   2
BRANCH   1  12
ATOM     11  C   UNL     1       2.564   1.739  17.871  0.00  0.00    +0.000 C 
ATOM     12  C   UNL     1       1.905   3.106  17.999  0.00  0.00    +0.000 C 
ENDBRANCH   1  12
BRANCH   1  13
ATOM     13  C   UNL     1       3.930   3.667  19.443  0.00  0.00    +0.000 C 
BRANCH  13  14
ATOM     14  N   UNL     1       5.204   3.496  18.742  0.00  0.00    +0.000 NA
ATOM     15  H   UNL     1       5.333   2.511  18.511  0.00  0.00    +0.000 HD
BRANCH  14  16
ATOM     16  C   UNL     1       5.297   4.278  17.512  0.00  0.00    +0.000 C 
BRANCH  16  17
ATOM     17  C   UNL     1       6.228   5.452  17.730  0.00  0.00    +0.000 A 
ATOM     18  C   UNL     1       7.238   5.411  18.699  0.00  0.00    +0.000 A 
ATOM     19  C   UNL     1       8.049   6.528  18.924  0.00  0.00    +0.000 A 
ATOM     20  C   UNL     1       7.854   7.691  18.183  0.00  0.00    +0.000 A 
ATOM     21 CL   UNL     1       8.835   9.073  18.480  0.00  0.00    +0.000 Cl
ATOM     22  C   UNL     1       6.864   7.745  17.206  0.00  0.00    +0.000 A 
ATOM     23  C   UNL     1       6.056   6.629  16.979  0.00  0.00    +0.000 A 
ENDBRANCH  16  17
ENDBRANCH  14  16
ENDBRANCH  13  14
ENDBRANCH   1  13
TORSDOF 7
ENDMDL
MODEL 4
REMARK VINA RESULT:      -6.3      2.192      2.727
REMARK  Name = 
REMARK  8 active torsions:
REMARK  status: ('A' for Active; 'I' for Inactive)
REMARK    1  A    between atoms: C_1  and  C_2
REMARK    2  A    between atoms: C_2  and  C_3
REMARK    3  A    between atoms: C_3  and  C_4
REMARK    4  A    between atoms: C_3  and  C_14
REMARK    5  A    between atoms: C_4  and  N_5
REMARK    6  A    between atoms: N_5  and  C_6
REMARK    7  A    between atoms: C_6  and  C_7
REMARK    8  A    between atoms: C_16  and  C_17
REMARK                            x       y       z     vdW  Elec       q    Type
REMARK                         _______ _______ _______ _____ _____    ______ ____
ROOT
ATOM      1  C   UNL     1       2.741   4.074  18.642  0.00  0.00    +0.000 C 
ENDROOT
BRANCH   1   2
ATOM      2  C   UNL     1       2.010   5.314  19.121  0.00  0.00    +0.000 C 
ATOM      3  C   UNL     1       1.937   5.734  20.557  0.00  0.00    +0.000 C 
ATOM      4  C   UNL     1       2.723   6.584  19.586  0.00  0.00    +0.000 C 
BRANCH   4   5
ATOM      5  C   UNL     1       2.151   7.905  19.109  0.00  0.00    +0.000 A 
ATOM      6  C   UNL     1       1.387   8.743  19.888  0.00  0.00    +0.000 A 
ATOM      7  N   UNL     1       1.101   9.805  19.081  0.00  0.00    +0.000 N 
ATOM      8  C   UNL     1       1.692   9.577  17.870  0.00  0.00    +0.000 A 
ATOM      9  N   UNL     1       2.343   8.435  17.860  0.00  0.00    +0.000 NA
ATOM     10  H   UNL     1       0.557  10.622  19.328  0.00  0.00    +0.000 HD
ENDBRANCH   4   5
ENDBRANCH   1   2
BRANCH   1  12
ATOM     11  C   UNL     1       1.580   1.834  19.165  0.00  0.00    +0.000 C 
ATOM     12  C   UNL     1       1.788   2.959  18.159  0.00  0.00    +0.000 C 
ENDBRANCH   1  12
BRANCH   1  13
ATOM     13  C   UNL     1       3.789   3.517  19.638  0.00  0.00    +0.000 C 
BRANCH  13  14
ATOM     14  N   UNL     1       5.067   3.294  18.961  0.00  0.00    +0.000 NA
ATOM     15  H   UNL     1       4.914   2.723  18.130  0.00  0.00    +0.000 HD
BRANCH  14  16
ATOM     16  C   UNL     1       5.732   4.530  18.560  0.00  0.00    +0.000 C 
BRANCH  16  17
ATOM     17  C   UNL     1       5.972   4.513  17.065  0.00  0.00    +0.000 A 
ATOM     18  C   UNL     1       5.004   4.022  16.178  0.00  0.00    +0.000 A 
ATOM     19  C   UNL     1       5.268   3.961  14.806  0.00  0.00    +0.000 A 
ATOM     20  C   UNL     1       6.499   4.388  14.314  0.00  0.00    +0.000 A 
ATOM     21 CL   UNL     1       6.831   4.286  12.629  0.00  0.00    +0.000 Cl
ATOM     22  C   UNL     1       7.467   4.891  15.179  0.00  0.00    +0.000 A 
ATOM     23  C   UNL     1       7.202   4.955  16.548  0.00  0.00    +0.000 A 
ENDBRANCH  16  17
ENDBRANCH  14  16
ENDBRANCH  13  14
ENDBRANCH   1  13
TORSDOF 7
ENDMDL
MODEL 5
REMARK VINA RESULT:      -6.3      3.049      6.011
REMARK  Name = 
REMARK  8 active torsions:
REMARK  status: ('A' for Active; 'I' for Inactive)
REMARK    1  A    between atoms: C_1  and  C_2
REMARK    2  A    between atoms: C_2  and  C_3
REMARK    3  A    between atoms: C_3  and  C_4
REMARK    4  A    between atoms: C_3  and  C_14
REMARK    5  A    between atoms: C_4  and  N_5
REMARK    6  A    between atoms: N_5  and  C_6
REMARK    7  A    between atoms: C_6  and  C_7
REMARK    8  A    between atoms: C_16  and  C_17
REMARK                            x       y       z     vdW  Elec       q    Type
REMARK                         _______ _______ _______ _____ _____    ______ ____
ROOT
ATOM      1  C   UNL     1       4.143   5.139  17.023  0.00  0.00    +0.000 C 
ENDROOT
BRANCH   1   2
ATOM      2  C   UNL     1       3.044   4.827  18.020  0.00  0.00    +0.000 C 
ATOM      3  C   UNL     1       1.656   4.421  17.628  0.00  0.00    +0.000 C 
ATOM      4  C   UNL     1       2.548   3.409  18.309  0.00  0.00    +0.000 C 
BRANCH   4   5
ATOM      5  C   UNL     1       2.306   3.052  19.762  0.00  0.00    +0.000 A 
ATOM      6  C   UNL     1       3.292   2.657  20.636  0.00  0.00    +0.000 A 
ATOM      7  N   UNL     1       2.648   2.452  21.821  0.00  0.00    +0.000 N 
ATOM      8  C   UNL     1       1.324   2.727  21.625  0.00  0.00    +0.000 A 
ATOM      9  N   UNL     1       1.088   3.101  20.388  0.00  0.00    +0.000 NA
ATOM     10  H   UNL     1       3.067   2.157  22.694  0.00  0.00    +0.000 HD
ENDBRANCH   4   5
ENDBRANCH   1   2
BRANCH   1  12
ATOM     11  C   UNL     1       6.393   4.293  16.096  0.00  0.00    +0.000 C 
ATOM     12  C   UNL     1       5.439   4.340  17.282  0.00  0.00    +0.000 C 
ENDBRANCH   1  12
BRANCH   1  13
ATOM     13  C   UNL     1       4.448   6.649  16.849  0.00  0.00    +0.000 C 
BRANCH  13  14
ATOM     14  N   UNL     1       3.883   7.414  17.962  0.00  0.00    +0.000 NA
ATOM     15  H   UNL     1       4.602   8.025  18.351  0.00  0.00    +0.000 HD
BRANCH  14  16
ATOM     16  C   UNL     1       2.736   8.232  17.579  0.00  0.00    +0.000 C 
BRANCH  16  17
ATOM     17  C   UNL     1       1.881   8.506  18.798  0.00  0.00    +0.000 A 
ATOM     18  C   UNL     1       1.006   9.599  18.843  0.00  0.00    +0.000 A 
ATOM     19  C   UNL     1       0.269   9.869  20.000  0.00  0.00    +0.000 A 
ATOM     20  C   UNL     1       0.403   9.048  21.117  0.00  0.00    +0.000 A 
ATOM     21 CL   UNL     1      -0.485   9.397  22.549  0.00  0.00    +0.000 Cl
ATOM     22  C   UNL     1       1.257   7.949  21.086  0.00  0.00    +0.000 A 
ATOM     23  C   UNL     1       1.991   7.679  19.930  0.00  0.00    +0.000 A 
ENDBRANCH  16  17
ENDBRANCH  14  16
ENDBRANCH  13  14
ENDBRANCH   1  13
TORSDOF 7
ENDMDL
MODEL 6
REMARK VINA RESULT:      -6.3      2.880      5.316
REMARK  Name = 
REMARK  8 active torsions:
REMARK  status: ('A' for Active; 'I' for Inactive)
REMARK    1  A    between atoms: C_1  and  C_2
REMARK    2  A    between atoms: C_2  and  C_3
REMARK    3  A    between atoms: C_3  and  C_4
REMARK    4  A    between atoms: C_3  and  C_14
REMARK    5  A    between atoms: C_4  and  N_5
REMARK    6  A    between atoms: N_5  and  C_6
REMARK    7  A    between atoms: C_6  and  C_7
REMARK    8  A    between atoms: C_16  and  C_17
REMARK                            x       y       z     vdW  Elec       q    Type
REMARK                         _______ _______ _______ _____ _____    ______ ____
ROOT
ATOM      1  C   UNL     1       4.426   2.673  19.624  0.00  0.00    +0.000 C 
ENDROOT
BRANCH   1   2
ATOM      2  C   UNL     1       4.712   3.911  18.797  0.00  0.00    +0.000 C 
ATOM      3  C   UNL     1       5.356   5.148  19.346  0.00  0.00    +0.000 C 
ATOM      4  C   UNL     1       6.116   4.313  18.342  0.00  0.00    +0.000 C 
BRANCH   4   5
ATOM      5  C   UNL     1       6.259   4.800  16.913  0.00  0.00    +0.000 A 
ATOM      6  C   UNL     1       5.396   5.684  16.308  0.00  0.00    +0.000 A 
ATOM      7  N   UNL     1       5.898   5.857  15.051  0.00  0.00    +0.000 N 
ATOM      8  C   UNL     1       7.024   5.089  14.946  0.00  0.00    +0.000 A 
ATOM      9  N   UNL     1       7.272   4.443  16.062  0.00  0.00    +0.000 NA
ATOM     10  H   UNL     1       5.517   6.450  14.325  0.00  0.00    +0.000 HD
ENDBRANCH   4   5
ENDBRANCH   1   2
BRANCH   1  12
ATOM     11  C   UNL     1       3.394   1.899  17.393  0.00  0.00    +0.000 C 
ATOM     12  C   UNL     1       3.863   1.503  18.787  0.00  0.00    +0.000 C 
ENDBRANCH   1  12
BRANCH   1  13
ATOM     13  C   UNL     1       3.556   2.923  20.883  0.00  0.00    +0.000 C 
BRANCH  13  14
ATOM     14  N   UNL     1       2.190   2.450  20.660  0.00  0.00    +0.000 NA
ATOM     15  H   UNL     1       1.996   1.668  21.287  0.00  0.00    +0.000 HD
BRANCH  14  16
ATOM     16  C   UNL     1       1.178   3.480  20.877  0.00  0.00    +0.000 C 
BRANCH  16  17
ATOM     17  C   UNL     1       1.508   4.698  20.040  0.00  0.00    +0.000 A 
ATOM     18  C   UNL     1       1.524   4.637  18.640  0.00  0.00    +0.000 A 
ATOM     19  C   UNL     1       1.890   5.757  17.887  0.00  0.00    +0.000 A 
ATOM     20  C   UNL     1       2.241   6.942  18.528  0.00  0.00    +0.000 A 
ATOM     21 CL   UNL     1       2.715   8.311  17.600  0.00  0.00    +0.000 Cl
ATOM     22  C   UNL     1       2.217   7.025  19.917  0.00  0.00    +0.000 A 
ATOM     23  C   UNL     1       1.850   5.908  20.669  0.00  0.00    +0.000 A 
ENDBRANCH  16  17
ENDBRANCH  14  16
ENDBRANCH  13  14
ENDBRANCH   1  13
TORSDOF 7
ENDMDL
MODEL 7
REMARK VINA RESULT:      -6.2      3.219      6.806
REMARK  Name = 
REMARK  8 active torsions:
REMARK  status: ('A' for Active; 'I' for Inactive)
REMARK    1  A    between atoms: C_1  and  C_2
REMARK    2  A    between atoms: C_2  and  C_3
REMARK    3  A    between atoms: C_3  and  C_4
REMARK    4  A    between atoms: C_3  and  C_14
REMARK    5  A    between atoms: C_4  and  N_5
REMARK    6  A    between atoms: N_5  and  C_6
REMARK    7  A    between atoms: C_6  and  C_7
REMARK    8  A    between atoms: C_16  and  C_17
REMARK                            x       y       z     vdW  Elec       q    Type
REMARK                         _______ _______ _______ _____ _____    ______ ____
ROOT
ATOM      1  C   UNL     1       3.144   4.574  20.073  0.00  0.00    +0.000 C 
ENDROOT
BRANCH   1   2
ATOM      2  C   UNL     1       3.727   4.646  18.674  0.00  0.00    +0.000 C 
ATOM      3  C   UNL     1       3.353   5.691  17.670  0.00  0.00    +0.000 C 
ATOM      4  C   UNL     1       4.751   5.696  18.242  0.00  0.00    +0.000 C 
BRANCH   4   5
ATOM      5  C   UNL     1       5.911   5.212  17.395  0.00  0.00    +0.000 A 
ATOM      6  C   UNL     1       7.053   4.639  17.903  0.00  0.00    +0.000 A 
ATOM      7  N   UNL     1       7.814   4.345  16.809  0.00  0.00    +0.000 N 
ATOM      8  C   UNL     1       7.116   4.740  15.702  0.00  0.00    +0.000 A 
ATOM      9  N   UNL     1       5.955   5.262  16.026  0.00  0.00    +0.000 NA
ATOM     10  H   UNL     1       8.726   3.907  16.808  0.00  0.00    +0.000 HD
ENDBRANCH   4   5
ENDBRANCH   1   2
BRANCH   1  12
ATOM     11  C   UNL     1       4.174   2.215  20.184  0.00  0.00    +0.000 C 
ATOM     12  C   UNL     1       3.034   3.130  20.609  0.00  0.00    +0.000 C 
ENDBRANCH   1  12
BRANCH   1  13
ATOM     13  C   UNL     1       1.808   5.338  20.256  0.00  0.00    +0.000 C 
BRANCH  13  14
ATOM     14  N   UNL     1       2.038   6.610  20.943  0.00  0.00    +0.000 NA
ATOM     15  H   UNL     1       2.997   6.637  21.293  0.00  0.00    +0.000 HD
BRANCH  14  16
ATOM     16  C   UNL     1       1.822   7.775  20.091  0.00  0.00    +0.000 C 
BRANCH  16  17
ATOM     17  C   UNL     1       0.940   8.772  20.813  0.00  0.00    +0.000 A 
ATOM     18  C   UNL     1       0.231   9.758  20.115  0.00  0.00    +0.000 A 
ATOM     19  C   UNL     1      -0.530  10.706  20.805  0.00  0.00    +0.000 A 
ATOM     20  C   UNL     1      -0.587  10.674  22.196  0.00  0.00    +0.000 A 
ATOM     21 CL   UNL     1      -1.503  11.857  23.045  0.00  0.00    +0.000 Cl
ATOM     22  C   UNL     1       0.100   9.693  22.906  0.00  0.00    +0.000 A 
ATOM     23  C   UNL     1       0.858   8.745  22.217  0.00  0.00    +0.000 A 
ENDBRANCH  16  17
ENDBRANCH  14  16
ENDBRANCH  13  14
ENDBRANCH   1  13
TORSDOF 7
ENDMDL
MODEL 8
REMARK VINA RESULT:      -6.2      3.665      6.118
REMARK  Name = 
REMARK  8 active torsions:
REMARK  status: ('A' for Active; 'I' for Inactive)
REMARK    1  A    between atoms: C_1  and  C_2
REMARK    2  A    between atoms: C_2  and  C_3
REMARK    3  A    between atoms: C_3  and  C_4
REMARK    4  A    between atoms: C_3  and  C_14
REMARK    5  A    between atoms: C_4  and  N_5
REMARK    6  A    between atoms: N_5  and  C_6
REMARK    7  A    between atoms: C_6  and  C_7
REMARK    8  A    between atoms: C_16  and  C_17
REMARK                            x       y       z     vdW  Elec       q    Type
REMARK                         _______ _______ _______ _____ _____    ______ ____
ROOT
ATOM      1  C   UNL     1       0.066   8.981  21.209  0.00  0.00    +0.000 C 
ENDROOT
BRANCH   1   2
ATOM      2  C   UNL     1      -0.420  10.080  20.284  0.00  0.00    +0.000 C 
ATOM      3  C   UNL     1       0.483  10.878  19.394  0.00  0.00    +0.000 C 
ATOM      4  C   UNL     1      -0.506   9.924  18.765  0.00  0.00    +0.000 C 
BRANCH   4   5
ATOM      5  C   UNL     1      -1.750  10.468  18.091  0.00  0.00    +0.000 A 
ATOM      6  C   UNL     1      -1.930  11.789  17.750  0.00  0.00    +0.000 A 
ATOM      7  N   UNL     1      -3.161  11.833  17.162  0.00  0.00    +0.000 N 
ATOM      8  C   UNL     1      -3.668  10.565  17.167  0.00  0.00    +0.000 A 
ATOM      9  N   UNL     1      -2.831   9.714  17.716  0.00  0.00    +0.000 NA
ATOM     10  H   UNL     1      -3.619  12.652  16.783  0.00  0.00    +0.000 HD
ENDBRANCH   4   5
ENDBRANCH   1   2
BRANCH   1  12
ATOM     11  C   UNL     1      -0.915  10.529  23.020  0.00  0.00    +0.000 C 
ATOM     12  C   UNL     1      -0.475   9.119  22.649  0.00  0.00    +0.000 C 
ENDBRANCH   1  12
BRANCH   1  13
ATOM     13  C   UNL     1       1.601   8.769  21.211  0.00  0.00    +0.000 C 
BRANCH  13  14
ATOM     14  N   UNL     1       1.947   7.537  20.501  0.00  0.00    +0.000 NA
ATOM     15  H   UNL     1       2.949   7.366  20.588  0.00  0.00    +0.000 HD
BRANCH  14  16
ATOM     16  C   UNL     1       1.232   6.364  20.996  0.00  0.00    +0.000 C 
BRANCH  16  17
ATOM     17  C   UNL     1       1.833   5.113  20.391  0.00  0.00    +0.000 A 
ATOM     18  C   UNL     1       3.163   5.082  19.953  0.00  0.00    +0.000 A 
ATOM     19  C   UNL     1       3.682   3.936  19.344  0.00  0.00    +0.000 A 
ATOM     20  C   UNL     1       2.874   2.815  19.168  0.00  0.00    +0.000 A 
ATOM     21 CL   UNL     1       3.506   1.415  18.394  0.00  0.00    +0.000 Cl
ATOM     22  C   UNL     1       1.553   2.823  19.610  0.00  0.00    +0.000 A 
ATOM     23  C   UNL     1       1.037   3.967  20.220  0.00  0.00    +0.000 A 
ENDBRANCH  16  17
ENDBRANCH  14  16
ENDBRANCH  13  14
ENDBRANCH   1  13
TORSDOF 7
ENDMDL
MODEL 9
REMARK VINA RESULT:      -6.2      3.286      7.027
REMARK  Name = 
REMARK  8 active torsions:
REMARK  status: ('A' for Active; 'I' for Inactive)
REMARK    1  A    between atoms: C_1  and  C_2
REMARK    2  A    between atoms: C_2  and  C_3
REMARK    3  A    between atoms: C_3  and  C_4
REMARK    4  A    between atoms: C_3  and  C_14
REMARK    5  A    between atoms: C_4  and  N_5
REMARK    6  A    between atoms: N_5  and  C_6
REMARK    7  A    between atoms: C_6  and  C_7
REMARK    8  A    between atoms: C_16  and  C_17
REMARK                            x       y       z     vdW  Elec       q    Type
REMARK                         _______ _______ _______ _____ _____    ______ ____
ROOT
ATOM      1  C   UNL     1       3.137   4.940  19.932  0.00  0.00    +0.000 C 
ENDROOT
BRANCH   1   2
ATOM      2  C   UNL     1       3.715   5.105  18.539  0.00  0.00    +0.000 C 
ATOM      3  C   UNL     1       3.607   6.365  17.738  0.00  0.00    +0.000 C 
ATOM      4  C   UNL     1       4.965   5.933  18.239  0.00  0.00    +0.000 C 
BRANCH   4   5
ATOM      5  C   UNL     1       5.967   5.333  17.272  0.00  0.00    +0.000 A 
ATOM      6  C   UNL     1       7.216   4.886  17.633  0.00  0.00    +0.000 A 
ATOM      7  N   UNL     1       7.768   4.419  16.475  0.00  0.00    +0.000 N 
ATOM      8  C   UNL     1       6.850   4.596  15.479  0.00  0.00    +0.000 A 
ATOM      9  N   UNL     1       5.744   5.141  15.934  0.00  0.00    +0.000 NA
ATOM     10  H   UNL     1       8.687   4.009  16.366  0.00  0.00    +0.000 HD
ENDBRANCH   4   5
ENDBRANCH   1   2
BRANCH   1  12
ATOM     11  C   UNL     1       4.100   2.560  19.721  0.00  0.00    +0.000 C 
ATOM     12  C   UNL     1       3.078   3.467  20.392  0.00  0.00    +0.000 C 
ENDBRANCH   1  12
BRANCH   1  13
ATOM     13  C   UNL     1       1.776   5.647  20.155  0.00  0.00    +0.000 C 
BRANCH  13  14
ATOM     14  N   UNL     1       1.957   6.860  20.955  0.00  0.00    +0.000 NA
ATOM     15  H   UNL     1       2.893   6.861  21.361  0.00  0.00    +0.000 HD
BRANCH  14  16
ATOM     16  C   UNL     1       1.782   8.090  20.188  0.00  0.00    +0.000 C 
BRANCH  16  17
ATOM     17  C   UNL     1       0.901   9.047  20.963  0.00  0.00    +0.000 A 
ATOM     18  C   UNL     1       0.722   8.915  22.347  0.00  0.00    +0.000 A 
ATOM     19  C   UNL     1      -0.142   9.773  23.034  0.00  0.00    +0.000 A 
ATOM     20  C   UNL     1      -0.831  10.767  22.343  0.00  0.00    +0.000 A 
ATOM     21 CL   UNL     1      -1.914  11.805  23.186  0.00  0.00    +0.000 Cl
ATOM     22  C   UNL     1      -0.655  10.922  20.970  0.00  0.00    +0.000 A 
ATOM     23  C   UNL     1       0.210  10.067  20.285  0.00  0.00    +0.000 A 
ENDBRANCH  16  17
ENDBRANCH  14  16
ENDBRANCH  13  14
ENDBRANCH   1  13
TORSDOF 7
ENDMDL
