MODEL 1
REMARK VINA RESULT:      -8.3      0.000      0.000
REMARK  Name = 
REMARK  6 active torsions:
REMARK  status: ('A' for Active; 'I' for Inactive)
REMARK    1  A    between atoms: C_1  and  C_2
REMARK    2  A    between atoms: C_2  and  C_3
REMARK    3  A    between atoms: C_2  and  N_4
REMARK    4  A    between atoms: C_5  and  O_6
REMARK    5  A    between atoms: C_11  and  C_12
REMARK    6  A    between atoms: C_16  and  N_17
REMARK                            x       y       z     vdW  Elec       q    Type
REMARK                         _______ _______ _______ _____ _____    ______ ____
ROOT
ATOM      1  N   UNL     1       3.441   4.006  18.857  0.00  0.00    +0.000 N 
ATOM      2  C   UNL     1       3.011   4.968  19.743  0.00  0.00    +0.000 A 
ATOM      3  N   UNL     1       3.338   6.177  19.360  0.00  0.00    +0.000 NA
ATOM      4  C   UNL     1       3.979   6.017  18.163  0.00  0.00    +0.000 A 
ATOM      5  C   UNL     1       4.556   6.977  17.322  0.00  0.00    +0.000 A 
ATOM      6  C   UNL     1       5.192   6.555  16.143  0.00  0.00    +0.000 A 
ATOM      7  C   UNL     1       5.241   5.201  15.763  0.00  0.00    +0.000 A 
ATOM      8  C   UNL     1       4.633   4.249  16.609  0.00  0.00    +0.000 A 
ATOM      9  C   UNL     1       4.036   4.677  17.803  0.00  0.00    +0.000 A 
ENDROOT
BRANCH   7  10
ATOM     10  C   UNL     1       5.915   4.762  14.513  0.00  0.00    +0.000 A 
ATOM     11  C   UNL     1       7.163   5.277  14.121  0.00  0.00    +0.000 A 
ATOM     12  C   UNL     1       7.780   4.884  12.926  0.00  0.00    +0.000 A 
ATOM     13  C   UNL     1       7.151   3.974  12.079  0.00  0.00    +0.000 A 
ATOM     14  C   UNL     1       5.912   3.448  12.449  0.00  0.00    +0.000 A 
ATOM     15  C   UNL     1       5.308   3.822  13.657  0.00  0.00    +0.000 A 
BRANCH  14  16
ATOM     16  N   UNL     1       5.216   2.512  11.555  0.00  0.00    +0.000 N 
ATOM     17  O   UNL     1       4.097   2.844  11.133  0.00  0.00    +0.000 OA
ATOM     18  O   UNL     1       5.784   1.445  11.282  0.00  0.00    +0.000 OA
ENDBRANCH  14  16
ENDBRANCH   7  10
BRANCH   1  20
ATOM     19  C   UNL     1       4.401   2.128  20.163  0.00  0.00    +0.000 C 
ATOM     20  C   UNL     1       3.466   2.558  19.032  0.00  0.00    +0.000 C 
ATOM     21  C   UNL     1       2.082   1.925  19.164  0.00  0.00    +0.000 C 
ENDBRANCH   1  20
BRANCH   2  22
ATOM     22  O   UNL     1       2.375   4.757  20.882  0.00  0.00    +0.000 OA
ATOM     23  H   UNL     1       2.026   3.857  20.881  0.00  0.00    +0.000 HD
ENDBRANCH   2  22
TORSDOF 4
ENDMDL
MODEL 2
REMARK VINA RESULT:      -8.1      1.071      1.321
REMARK  Name = 
REMARK  6 active torsions:
REMARK  status: ('A' for Active; 'I' for Inactive)
REMARK    1  A    between atoms: C_1  and  C_2
REMARK    2  A    between atoms: C_2  and  C_3
REMARK    3  A    between atoms: C_2  and  N_4
REMARK    4  A    between atoms: C_5  and  O_6
REMARK    5  A    between atoms: C_11  and  C_12
REMARK    6  A    between atoms: C_16  and  N_17
REMARK                            x       y       z     vdW  Elec       q    Type
REMARK                         _______ _______ _______ _____ _____    ______ ____
ROOT
ATOM      1  N   UNL     1       3.530   4.251  18.486  0.00  0.00    +0.000 N 
ATOM      2  C   UNL     1       3.721   4.856  19.706  0.00  0.00    +0.000 A 
ATOM      3  N   UNL     1       4.818   5.572  19.738  0.00  0.00    +0.000 NA
ATOM      4  C   UNL     1       5.358   5.465  18.487  0.00  0.00    +0.000 A 
ATOM      5  C   UNL     1       6.539   6.012  17.972  0.00  0.00    +0.000 A 
ATOM      6  C   UNL     1       6.899   5.730  16.644  0.00  0.00    +0.000 A 
ATOM      7  C   UNL     1       6.095   4.939  15.804  0.00  0.00    +0.000 A 
ATOM      8  C   UNL     1       4.894   4.415  16.330  0.00  0.00    +0.000 A 
ATOM      9  C   UNL     1       4.564   4.671  17.669  0.00  0.00    +0.000 A 
ENDROOT
BRANCH   7  10
ATOM     10  C   UNL     1       6.481   4.644  14.400  0.00  0.00    +0.000 A 
ATOM     11  C   UNL     1       7.533   5.324  13.759  0.00  0.00    +0.000 A 
ATOM     12  C   UNL     1       7.873   5.066  12.426  0.00  0.00    +0.000 A 
ATOM     13  C   UNL     1       7.153   4.129  11.687  0.00  0.00    +0.000 A 
ATOM     14  C   UNL     1       6.105   3.441  12.302  0.00  0.00    +0.000 A 
ATOM     15  C   UNL     1       5.782   3.682  13.644  0.00  0.00    +0.000 A 
BRANCH  14  16
ATOM     16  N   UNL     1       5.312   2.474  11.531  0.00  0.00    +0.000 N 
ATOM     17  O   UNL     1       5.836   1.381  11.268  0.00  0.00    +0.000 OA
ATOM     18  O   UNL     1       4.171   2.810  11.184  0.00  0.00    +0.000 OA
ENDBRANCH  14  16
ENDBRANCH   7  10
BRANCH   1  20
ATOM     19  C   UNL     1       2.880   1.875  18.789  0.00  0.00    +0.000 C 
ATOM     20  C   UNL     1       2.564   3.217  18.126  0.00  0.00    +0.000 C 
ATOM     21  C   UNL     1       1.108   3.629  18.337  0.00  0.00    +0.000 C 
ENDBRANCH   1  20
BRANCH   2  22
ATOM     22  O   UNL     1       2.948   4.736  20.771  0.00  0.00    +0.000 OA
ATOM     23  H   UNL     1       2.040   4.948  20.522  0.00  0.00    +0.000 HD
ENDBRANCH   2  22
TORSDOF 4
ENDMDL
MODEL 3
REMARK VINA RESULT:      -8.1      3.962      7.774
REMARK  Name = 
REMARK  6 active torsions:
REMARK  status: ('A' for Active; 'I' for Inactive)
REMARK    1  A    between atoms: C_1  and  C_2
REMARK    2  A    between atoms: C_2  and  C_3
REMARK    3  A    between atoms: C_2  and  N_4
REMARK    4  A    between atoms: C_5  and  O_6
REMARK    5  A    between atoms: C_11  and  C_12
REMARK    6  A    between atoms: C_16  and  N_17
REMARK                            x       y       z     vdW  Elec       q    Type
REMARK                         _______ _______ _______ _____ _____    ______ ____
ROOT
ATOM      1  N   UNL     1       2.907   3.176  19.122  0.00  0.00    +0.000 N 
ATOM      2  C   UNL     1       3.839   2.553  18.324  0.00  0.00    +0.000 A 
ATOM      3  N   UNL     1       4.456   3.394  17.532  0.00  0.00    +0.000 NA
ATOM      4  C   UNL     1       3.939   4.623  17.835  0.00  0.00    +0.000 A 
ATOM      5  C   UNL     1       4.225   5.876  17.279  0.00  0.00    +0.000 A 
ATOM      6  C   UNL     1       3.531   7.004  17.746  0.00  0.00    +0.000 A 
ATOM      7  C   UNL     1       2.578   6.920  18.778  0.00  0.00    +0.000 A 
ATOM      8  C   UNL     1       2.319   5.654  19.346  0.00  0.00    +0.000 A 
ATOM      9  C   UNL     1       2.990   4.529  18.845  0.00  0.00    +0.000 A 
ENDROOT
BRANCH   7  10
ATOM     10  C   UNL     1       1.848   8.118  19.269  0.00  0.00    +0.000 A 
ATOM     11  C   UNL     1       1.511   9.185  18.417  0.00  0.00    +0.000 A 
ATOM     12  C   UNL     1       0.851  10.325  18.889  0.00  0.00    +0.000 A 
ATOM     13  C   UNL     1       0.524  10.438  20.239  0.00  0.00    +0.000 A 
ATOM     14  C   UNL     1       0.847   9.390  21.104  0.00  0.00    +0.000 A 
ATOM     15  C   UNL     1       1.485   8.238  20.625  0.00  0.00    +0.000 A 
BRANCH  14  16
ATOM     16  N   UNL     1       0.542   9.502  22.537  0.00  0.00    +0.000 N 
ATOM     17  O   UNL     1      -0.653   9.564  22.867  0.00  0.00    +0.000 OA
ATOM     18  O   UNL     1       1.494   9.537  23.329  0.00  0.00    +0.000 OA
ENDBRANCH  14  16
ENDBRANCH   7  10
BRANCH   1  20
ATOM     19  C   UNL     1       2.048   2.938  21.437  0.00  0.00    +0.000 C 
ATOM     20  C   UNL     1       1.880   2.569  19.962  0.00  0.00    +0.000 C 
ATOM     21  C   UNL     1       0.454   2.812  19.472  0.00  0.00    +0.000 C 
ENDBRANCH   1  20
BRANCH   2  22
ATOM     22  O   UNL     1       4.099   1.258  18.287  0.00  0.00    +0.000 OA
ATOM     23  H   UNL     1       3.830   0.912  17.426  0.00  0.00    +0.000 HD
ENDBRANCH   2  22
TORSDOF 4
ENDMDL
MODEL 4
REMARK VINA RESULT:      -7.9      0.420      1.072
REMARK  Name = 
REMARK  6 active torsions:
REMARK  status: ('A' for Active; 'I' for Inactive)
REMARK    1  A    between atoms: C_1  and  C_2
REMARK    2  A    between atoms: C_2  and  C_3
REMARK    3  A    between atoms: C_2  and  N_4
REMARK    4  A    between atoms: C_5  and  O_6
REMARK    5  A    between atoms: C_11  and  C_12
REMARK    6  A    between atoms: C_16  and  N_17
REMARK                            x       y       z     vdW  Elec       q    Type
REMARK                         _______ _______ _______ _____ _____    ______ ____
ROOT
ATOM      1  N   UNL     1       3.126   4.172  18.928  0.00  0.00    +0.000 N 
ATOM      2  C   UNL     1       2.679   5.154  19.783  0.00  0.00    +0.000 A 
ATOM      3  N   UNL     1       3.046   6.351  19.399  0.00  0.00    +0.000 NA
ATOM      4  C   UNL     1       3.734   6.163  18.232  0.00  0.00    +0.000 A 
ATOM      5  C   UNL     1       4.364   7.099  17.404  0.00  0.00    +0.000 A 
ATOM      6  C   UNL     1       5.039   6.650  16.257  0.00  0.00    +0.000 A 
ATOM      7  C   UNL     1       5.077   5.291  15.897  0.00  0.00    +0.000 A 
ATOM      8  C   UNL     1       4.415   4.362  16.728  0.00  0.00    +0.000 A 
ATOM      9  C   UNL     1       3.777   4.817  17.891  0.00  0.00    +0.000 A 
ENDROOT
BRANCH   7  10
ATOM     10  C   UNL     1       5.792   4.822  14.682  0.00  0.00    +0.000 A 
ATOM     11  C   UNL     1       7.087   5.268  14.362  0.00  0.00    +0.000 A 
ATOM     12  C   UNL     1       7.746   4.849  13.199  0.00  0.00    +0.000 A 
ATOM     13  C   UNL     1       7.115   3.980  12.311  0.00  0.00    +0.000 A 
ATOM     14  C   UNL     1       5.830   3.522  12.608  0.00  0.00    +0.000 A 
ATOM     15  C   UNL     1       5.182   3.922  13.785  0.00  0.00    +0.000 A 
BRANCH  14  16
ATOM     16  N   UNL     1       5.134   2.632  11.669  0.00  0.00    +0.000 N 
ATOM     17  O   UNL     1       5.710   1.586  11.333  0.00  0.00    +0.000 OA
ATOM     18  O   UNL     1       4.017   2.983  11.262  0.00  0.00    +0.000 OA
ENDBRANCH  14  16
ENDBRANCH   7  10
BRANCH   1  20
ATOM     19  C   UNL     1       2.689   1.977  17.856  0.00  0.00    +0.000 C 
ATOM     20  C   UNL     1       3.114   2.726  19.120  0.00  0.00    +0.000 C 
ATOM     21  C   UNL     1       4.410   2.168  19.706  0.00  0.00    +0.000 C 
ENDBRANCH   1  20
BRANCH   2  22
ATOM     22  O   UNL     1       1.992   4.971  20.897  0.00  0.00    +0.000 OA
ATOM     23  H   UNL     1       2.305   4.164  21.326  0.00  0.00    +0.000 HD
ENDBRANCH   2  22
TORSDOF 4
ENDMDL
MODEL 5
REMARK VINA RESULT:      -7.9      4.275      8.276
REMARK  Name = 
REMARK  6 active torsions:
REMARK  status: ('A' for Active; 'I' for Inactive)
REMARK    1  A    between atoms: C_1  and  C_2
REMARK    2  A    between atoms: C_2  and  C_3
REMARK    3  A    between atoms: C_2  and  N_4
REMARK    4  A    between atoms: C_5  and  O_6
REMARK    5  A    between atoms: C_11  and  C_12
REMARK    6  A    between atoms: C_16  and  N_17
REMARK                            x       y       z     vdW  Elec       q    Type
REMARK                         _______ _______ _______ _____ _____    ______ ____
ROOT
ATOM      1  N   UNL     1       2.971   4.104  19.453  0.00  0.00    +0.000 N 
ATOM      2  C   UNL     1       3.965   3.585  18.657  0.00  0.00    +0.000 A 
ATOM      3  N   UNL     1       4.464   4.478  17.840  0.00  0.00    +0.000 NA
ATOM      4  C   UNL     1       3.801   5.640  18.123  0.00  0.00    +0.000 A 
ATOM      5  C   UNL     1       3.922   6.905  17.537  0.00  0.00    +0.000 A 
ATOM      6  C   UNL     1       3.097   7.948  17.989  0.00  0.00    +0.000 A 
ATOM      7  C   UNL     1       2.173   7.770  19.035  0.00  0.00    +0.000 A 
ATOM      8  C   UNL     1       2.080   6.494  19.633  0.00  0.00    +0.000 A 
ATOM      9  C   UNL     1       2.881   5.451  19.146  0.00  0.00    +0.000 A 
ENDROOT
BRANCH   7  10
ATOM     10  C   UNL     1       1.304   8.877  19.510  0.00  0.00    +0.000 A 
ATOM     11  C   UNL     1       0.854   9.892  18.647  0.00  0.00    +0.000 A 
ATOM     12  C   UNL     1       0.061  10.952  19.105  0.00  0.00    +0.000 A 
ATOM     13  C   UNL     1      -0.290  11.034  20.450  0.00  0.00    +0.000 A 
ATOM     14  C   UNL     1       0.144  10.036  21.326  0.00  0.00    +0.000 A 
ATOM     15  C   UNL     1       0.916   8.963  20.862  0.00  0.00    +0.000 A 
BRANCH  14  16
ATOM     16  N   UNL     1      -0.187  10.121  22.755  0.00  0.00    +0.000 N 
ATOM     17  O   UNL     1      -1.268  10.646  23.065  0.00  0.00    +0.000 OA
ATOM     18  O   UNL     1       0.636   9.673  23.566  0.00  0.00    +0.000 OA
ENDBRANCH  14  16
ENDBRANCH   7  10
BRANCH   1  20
ATOM     19  C   UNL     1       1.119   2.454  19.534  0.00  0.00    +0.000 C 
ATOM     20  C   UNL     1       2.037   3.393  20.319  0.00  0.00    +0.000 C 
ATOM     21  C   UNL     1       2.701   2.686  21.500  0.00  0.00    +0.000 C 
ENDBRANCH   1  20
BRANCH   2  22
ATOM     22  O   UNL     1       4.385   2.332  18.643  0.00  0.00    +0.000 OA
ATOM     23  H   UNL     1       5.161   2.257  19.212  0.00  0.00    +0.000 HD
ENDBRANCH   2  22
TORSDOF 4
ENDMDL
MODEL 6
REMARK VINA RESULT:      -7.8      2.080      7.187
REMARK  Name = 
REMARK  6 active torsions:
REMARK  status: ('A' for Active; 'I' for Inactive)
REMARK    1  A    between atoms: C_1  and  C_2
REMARK    2  A    between atoms: C_2  and  C_3
REMARK    3  A    between atoms: C_2  and  N_4
REMARK    4  A    between atoms: C_5  and  O_6
REMARK    5  A    between atoms: C_11  and  C_12
REMARK    6  A    between atoms: C_16  and  N_17
REMARK                            x       y       z     vdW  Elec       q    Type
REMARK                         _______ _______ _______ _____ _____    ______ ____
ROOT
ATOM      1  N   UNL     1       6.092   3.730  13.112  0.00  0.00    +0.000 N 
ATOM      2  C   UNL     1       7.142   4.532  12.729  0.00  0.00    +0.000 A 
ATOM      3  N   UNL     1       7.502   5.365  13.674  0.00  0.00    +0.000 NA
ATOM      4  C   UNL     1       6.684   5.086  14.733  0.00  0.00    +0.000 A 
ATOM      5  C   UNL     1       6.619   5.687  15.996  0.00  0.00    +0.000 A 
ATOM      6  C   UNL     1       5.660   5.235  16.917  0.00  0.00    +0.000 A 
ATOM      7  C   UNL     1       4.781   4.177  16.623  0.00  0.00    +0.000 A 
ATOM      8  C   UNL     1       4.875   3.565  15.354  0.00  0.00    +0.000 A 
ATOM      9  C   UNL     1       5.810   4.050  14.429  0.00  0.00    +0.000 A 
ENDROOT
BRANCH   7  10
ATOM     10  C   UNL     1       3.768   3.704  17.602  0.00  0.00    +0.000 A 
ATOM     11  C   UNL     1       2.388   3.781  17.342  0.00  0.00    +0.000 A 
ATOM     12  C   UNL     1       1.436   3.364  18.280  0.00  0.00    +0.000 A 
ATOM     13  C   UNL     1       1.842   2.872  19.519  0.00  0.00    +0.000 A 
ATOM     14  C   UNL     1       3.207   2.784  19.799  0.00  0.00    +0.000 A 
ATOM     15  C   UNL     1       4.159   3.178  18.850  0.00  0.00    +0.000 A 
BRANCH  14  16
ATOM     16  N   UNL     1       3.656   2.299  21.112  0.00  0.00    +0.000 N 
ATOM     17  O   UNL     1       2.859   2.383  22.059  0.00  0.00    +0.000 OA
ATOM     18  O   UNL     1       4.806   1.845  21.197  0.00  0.00    +0.000 OA
ENDBRANCH  14  16
ENDBRANCH   7  10
BRANCH   1  20
ATOM     19  C   UNL     1       4.285   3.619  11.415  0.00  0.00    +0.000 C 
ATOM     20  C   UNL     1       5.276   2.846  12.286  0.00  0.00    +0.000 C 
ATOM     21  C   UNL     1       6.085   1.837  11.473  0.00  0.00    +0.000 C 
ENDBRANCH   1  20
BRANCH   2  22
ATOM     22  O   UNL     1       7.734   4.538  11.547  0.00  0.00    +0.000 OA
ATOM     23  H   UNL     1       8.632   4.877  11.651  0.00  0.00    +0.000 HD
ENDBRANCH   2  22
TORSDOF 4
ENDMDL
MODEL 7
REMARK VINA RESULT:      -7.8      4.012      8.731
REMARK  Name = 
REMARK  6 active torsions:
REMARK  status: ('A' for Active; 'I' for Inactive)
REMARK    1  A    between atoms: C_1  and  C_2
REMARK    2  A    between atoms: C_2  and  C_3
REMARK    3  A    between atoms: C_2  and  N_4
REMARK    4  A    between atoms: C_5  and  O_6
REMARK    5  A    between atoms: C_11  and  C_12
REMARK    6  A    between atoms: C_16  and  N_17
REMARK                            x       y       z     vdW  Elec       q    Type
REMARK                         _______ _______ _______ _____ _____    ______ ____
ROOT
ATOM      1  N   UNL     1       4.520   5.480  17.486  0.00  0.00    +0.000 N 
ATOM      2  C   UNL     1       4.768   4.140  17.673  0.00  0.00    +0.000 A 
ATOM      3  N   UNL     1       4.092   3.647  18.681  0.00  0.00    +0.000 NA
ATOM      4  C   UNL     1       3.346   4.687  19.161  0.00  0.00    +0.000 A 
ATOM      5  C   UNL     1       2.458   4.726  20.243  0.00  0.00    +0.000 A 
ATOM      6  C   UNL     1       1.823   5.939  20.560  0.00  0.00    +0.000 A 
ATOM      7  C   UNL     1       2.028   7.109  19.806  0.00  0.00    +0.000 A 
ATOM      8  C   UNL     1       2.907   7.046  18.703  0.00  0.00    +0.000 A 
ATOM      9  C   UNL     1       3.565   5.840  18.420  0.00  0.00    +0.000 A 
ENDROOT
BRANCH   7  10
ATOM     10  C   UNL     1       1.353   8.388  20.146  0.00  0.00    +0.000 A 
ATOM     11  C   UNL     1       1.251   9.444  19.222  0.00  0.00    +0.000 A 
ATOM     12  C   UNL     1       0.642  10.660  19.557  0.00  0.00    +0.000 A 
ATOM     13  C   UNL     1       0.133  10.859  20.838  0.00  0.00    +0.000 A 
ATOM     14  C   UNL     1       0.221   9.825  21.771  0.00  0.00    +0.000 A 
ATOM     15  C   UNL     1       0.807   8.599  21.428  0.00  0.00    +0.000 A 
BRANCH  14  16
ATOM     16  N   UNL     1      -0.280  10.026  23.138  0.00  0.00    +0.000 N 
ATOM     17  O   UNL     1      -1.381  10.583  23.271  0.00  0.00    +0.000 OA
ATOM     18  O   UNL     1       0.430   9.637  24.076  0.00  0.00    +0.000 OA
ENDBRANCH  14  16
ENDBRANCH   7  10
BRANCH   1  20
ATOM     19  C   UNL     1       6.584   6.828  17.205  0.00  0.00    +0.000 C 
ATOM     20  C   UNL     1       5.228   6.423  16.626  0.00  0.00    +0.000 C 
ATOM     21  C   UNL     1       5.340   5.971  15.170  0.00  0.00    +0.000 C 
ENDBRANCH   1  20
BRANCH   2  22
ATOM     22  O   UNL     1       5.607   3.393  16.978  0.00  0.00    +0.000 OA
ATOM     23  H   UNL     1       5.779   2.579  17.469  0.00  0.00    +0.000 HD
ENDBRANCH   2  22
TORSDOF 4
ENDMDL
MODEL 8
REMARK VINA RESULT:      -7.7      4.063      7.903
REMARK  Name = 
REMARK  6 active torsions:
REMARK  status: ('A' for Active; 'I' for Inactive)
REMARK    1  A    between atoms: C_1  and  C_2
REMARK    2  A    between atoms: C_2  and  C_3
REMARK    3  A    between atoms: C_2  and  N_4
REMARK    4  A    between atoms: C_5  and  O_6
REMARK    5  A    between atoms: C_11  and  C_12
REMARK    6  A    between atoms: C_16  and  N_17
REMARK                            x       y       z     vdW  Elec       q    Type
REMARK                         _______ _______ _______ _____ _____    ______ ____
ROOT
ATOM      1  N   UNL     1       4.605   3.776  19.175  0.00  0.00    +0.000 N 
ATOM      2  C   UNL     1       4.377   2.585  19.826  0.00  0.00    +0.000 A 
ATOM      3  N   UNL     1       3.322   2.638  20.601  0.00  0.00    +0.000 NA
ATOM      4  C   UNL     1       2.814   3.896  20.437  0.00  0.00    +0.000 A 
ATOM      5  C   UNL     1       1.703   4.498  21.040  0.00  0.00    +0.000 A 
ATOM      6  C   UNL     1       1.395   5.832  20.724  0.00  0.00    +0.000 A 
ATOM      7  C   UNL     1       2.149   6.573  19.796  0.00  0.00    +0.000 A 
ATOM      8  C   UNL     1       3.251   5.944  19.178  0.00  0.00    +0.000 A 
ATOM      9  C   UNL     1       3.572   4.625  19.530  0.00  0.00    +0.000 A 
ENDROOT
BRANCH   7  10
ATOM     10  C   UNL     1       1.818   7.984  19.466  0.00  0.00    +0.000 A 
ATOM     11  C   UNL     1       2.131   8.548  18.216  0.00  0.00    +0.000 A 
ATOM     12  C   UNL     1       1.846   9.887  17.920  0.00  0.00    +0.000 A 
ATOM     13  C   UNL     1       1.253  10.706  18.878  0.00  0.00    +0.000 A 
ATOM     14  C   UNL     1       0.931  10.167  20.125  0.00  0.00    +0.000 A 
ATOM     15  C   UNL     1       1.194   8.821  20.412  0.00  0.00    +0.000 A 
BRANCH  14  16
ATOM     16  N   UNL     1       0.336  11.022  21.162  0.00  0.00    +0.000 N 
ATOM     17  O   UNL     1       0.882  12.112  21.392  0.00  0.00    +0.000 OA
ATOM     18  O   UNL     1      -0.670  10.600  21.750  0.00  0.00    +0.000 OA
ENDBRANCH  14  16
ENDBRANCH   7  10
BRANCH   1  20
ATOM     19  C   UNL     1       5.458   4.410  16.933  0.00  0.00    +0.000 C 
ATOM     20  C   UNL     1       5.780   4.182  18.411  0.00  0.00    +0.000 C 
ATOM     21  C   UNL     1       6.539   5.360  19.019  0.00  0.00    +0.000 C 
ENDBRANCH   1  20
BRANCH   2  22
ATOM     22  O   UNL     1       5.120   1.495  19.751  0.00  0.00    +0.000 OA
ATOM     23  H   UNL     1       4.541   0.722  19.764  0.00  0.00    +0.000 HD
ENDBRANCH   2  22
TORSDOF 4
ENDMDL
MODEL 9
REMARK VINA RESULT:      -7.6      4.010      7.564
REMARK  Name = 
REMARK  6 active torsions:
REMARK  status: ('A' for Active; 'I' for Inactive)
REMARK    1  A    between atoms: C_1  and  C_2
REMARK    2  A    between atoms: C_2  and  C_3
REMARK    3  A    between atoms: C_2  and  N_4
REMARK    4  A    between atoms: C_5  and  O_6
REMARK    5  A    between atoms: C_11  and  C_12
REMARK    6  A    between atoms: C_16  and  N_17
REMARK                            x       y       z     vdW  Elec       q    Type
REMARK                         _______ _______ _______ _____ _____    ______ ____
ROOT
ATOM      1  N   UNL     1       2.971   3.222  19.110  0.00  0.00    +0.000 N 
ATOM      2  C   UNL     1       3.849   2.700  18.188  0.00  0.00    +0.000 A 
ATOM      3  N   UNL     1       4.360   3.623  17.411  0.00  0.00    +0.000 NA
ATOM      4  C   UNL     1       3.827   4.803  17.851  0.00  0.00    +0.000 A 
ATOM      5  C   UNL     1       4.014   6.104  17.368  0.00  0.00    +0.000 A 
ATOM      6  C   UNL     1       3.324   7.163  17.980  0.00  0.00    +0.000 A 
ATOM      7  C   UNL     1       2.474   6.963  19.083  0.00  0.00    +0.000 A 
ATOM      8  C   UNL     1       2.315   5.649  19.573  0.00  0.00    +0.000 A 
ATOM      9  C   UNL     1       2.978   4.594  18.931  0.00  0.00    +0.000 A 
ENDROOT
BRANCH   7  10
ATOM     10  C   UNL     1       1.747   8.089  19.726  0.00  0.00    +0.000 A 
ATOM     11  C   UNL     1       1.326   8.033  21.067  0.00  0.00    +0.000 A 
ATOM     12  C   UNL     1       0.614   9.082  21.661  0.00  0.00    +0.000 A 
ATOM     13  C   UNL     1       0.285  10.214  20.918  0.00  0.00    +0.000 A 
ATOM     14  C   UNL     1       0.693  10.293  19.585  0.00  0.00    +0.000 A 
ATOM     15  C   UNL     1       1.429   9.253  19.000  0.00  0.00    +0.000 A 
BRANCH  14  16
ATOM     16  N   UNL     1       0.329  11.463  18.774  0.00  0.00    +0.000 N 
ATOM     17  O   UNL     1      -0.833  11.523  18.342  0.00  0.00    +0.000 OA
ATOM     18  O   UNL     1       1.204  12.314  18.563  0.00  0.00    +0.000 OA
ENDBRANCH  14  16
ENDBRANCH   7  10
BRANCH   1  20
ATOM     19  C   UNL     1       2.272   2.858  21.463  0.00  0.00    +0.000 C 
ATOM     20  C   UNL     1       2.049   2.511  19.990  0.00  0.00    +0.000 C 
ATOM     21  C   UNL     1       0.581   2.645  19.588  0.00  0.00    +0.000 C 
ENDBRANCH   1  20
BRANCH   2  22
ATOM     22  O   UNL     1       4.153   1.424  18.029  0.00  0.00    +0.000 OA
ATOM     23  H   UNL     1       3.484   1.013  17.466  0.00  0.00    +0.000 HD
ENDBRANCH   2  22
TORSDOF 4
ENDMDL
