MODEL 1
REMARK VINA RESULT:      -9.6      0.000      0.000
REMARK  Name = 
REMARK  6 active torsions:
REMARK  status: ('A' for Active; 'I' for Inactive)
REMARK    1  A    between atoms: C_2  and  C_3
REMARK    2  A    between atoms: C_2  and  C_13
REMARK    3  A    between atoms: C_4  and  N_5
REMARK    4  A    between atoms: N_5  and  C_6
REMARK    5  A    between atoms: N_15  and  C_16
REMARK    6  A    between atoms: C_23  and  C_24
REMARK                            x       y       z     vdW  Elec       q    Type
REMARK                         _______ _______ _______ _____ _____    ______ ____
ROOT
ATOM      1  C   UNL     1       6.149   5.484  18.319  0.00  0.00    +0.000 A 
ATOM      2  C   UNL     1       5.337   5.234  19.408  0.00  0.00    +0.000 A 
ATOM      3  N   UNL     1       4.314   4.426  18.988  0.00  0.00    +0.000 N 
ATOM      4  N   UNL     1       4.448   4.111  17.680  0.00  0.00    +0.000 NA
ATOM      5  C   UNL     1       5.540   4.765  17.249  0.00  0.00    +0.000 A 
ENDROOT
BRANCH   5   6
ATOM      6  C   UNL     1       5.964   4.637  15.845  0.00  0.00    +0.000 A 
ATOM      7  C   UNL     1       5.077   4.117  14.889  0.00  0.00    +0.000 A 
ATOM      8  C   UNL     1       5.469   3.959  13.554  0.00  0.00    +0.000 A 
ATOM      9  C   UNL     1       6.753   4.327  13.163  0.00  0.00    +0.000 A 
ATOM     10 CL   UNL     1       7.246   4.123  11.528  0.00  0.00    +0.000 Cl
ATOM     11  C   UNL     1       7.646   4.849  14.094  0.00  0.00    +0.000 A 
ATOM     12  C   UNL     1       7.256   4.993  15.430  0.00  0.00    +0.000 A 
ENDBRANCH   5   6
BRANCH   3  13
ATOM     13  C   UNL     1       3.230   3.939  19.770  0.00  0.00    +0.000 A 
ATOM     14  C   UNL     1       1.945   4.491  19.644  0.00  0.00    +0.000 A 
ATOM     15  C   UNL     1       0.890   3.999  20.419  0.00  0.00    +0.000 A 
ATOM     16  C   UNL     1       1.112   2.965  21.322  0.00  0.00    +0.000 A 
ATOM     17  C   UNL     1       2.384   2.412  21.453  0.00  0.00    +0.000 A 
ATOM     18  C   UNL     1       3.442   2.891  20.676  0.00  0.00    +0.000 A 
ENDBRANCH   3  13
BRANCH   1  20
ATOM     19  O   UNL     1       8.332   6.127  18.972  0.00  0.00    +0.000 OA
ATOM     20  C   UNL     1       7.314   6.348  18.326  0.00  0.00    +0.000 C 
BRANCH  20  21
ATOM     21  C   UNL     1       7.158   7.553  17.468  0.00  0.00    +0.000 C 
ATOM     22  C   UNL     1       7.825   8.688  17.708  0.00  0.00    +0.000 C 
BRANCH  22  23
ATOM     23  N   UNL     1       8.709   8.944  18.720  0.00  0.00    +0.000 N 
ATOM     24  H   UNL     1       8.935   8.138  19.308  0.00  0.00    +0.000 HD
BRANCH  23  25
ATOM     25  C   UNL     1       9.306  10.161  19.084  0.00  0.00    +0.000 A 
ATOM     26  C   UNL     1       9.313  10.654  20.395  0.00  0.00    +0.000 A 
ATOM     27  C   UNL     1       9.885  11.892  20.701  0.00  0.00    +0.000 A 
ATOM     28  C   UNL     1      10.454  12.658  19.690  0.00  0.00    +0.000 A 
ATOM     29 CL   UNL     1      11.153  14.184  20.065  0.00  0.00    +0.000 Cl
ATOM     30  C   UNL     1      10.455  12.196  18.378  0.00  0.00    +0.000 A 
ATOM     31  C   UNL     1       9.882  10.955  18.080  0.00  0.00    +0.000 A 
ENDBRANCH  23  25
ENDBRANCH  22  23
ENDBRANCH  20  21
ENDBRANCH   1  20
TORSDOF 6
ENDMDL
MODEL 2
REMARK VINA RESULT:      -9.5      0.144      1.254
REMARK  Name = 
REMARK  6 active torsions:
REMARK  status: ('A' for Active; 'I' for Inactive)
REMARK    1  A    between atoms: C_2  and  C_3
REMARK    2  A    between atoms: C_2  and  C_13
REMARK    3  A    between atoms: C_4  and  N_5
REMARK    4  A    between atoms: N_5  and  C_6
REMARK    5  A    between atoms: N_15  and  C_16
REMARK    6  A    between atoms: C_23  and  C_24
REMARK                            x       y       z     vdW  Elec       q    Type
REMARK                         _______ _______ _______ _____ _____    ______ ____
ROOT
ATOM      1  C   UNL     1       6.208   5.438  18.324  0.00  0.00    +0.000 A 
ATOM      2  C   UNL     1       5.394   5.200  19.413  0.00  0.00    +0.000 A 
ATOM      3  N   UNL     1       4.374   4.383  19.000  0.00  0.00    +0.000 N 
ATOM      4  N   UNL     1       4.513   4.053  17.696  0.00  0.00    +0.000 NA
ATOM      5  C   UNL     1       5.606   4.705  17.260  0.00  0.00    +0.000 A 
ENDROOT
BRANCH   5   6
ATOM      6  C   UNL     1       6.035   4.560  15.860  0.00  0.00    +0.000 A 
ATOM      7  C   UNL     1       7.308   5.005  15.466  0.00  0.00    +0.000 A 
ATOM      8  C   UNL     1       7.724   4.903  14.133  0.00  0.00    +0.000 A 
ATOM      9  C   UNL     1       6.871   4.350  13.183  0.00  0.00    +0.000 A 
ATOM     10 CL   UNL     1       7.372   4.235  11.541  0.00  0.00    +0.000 Cl
ATOM     11  C   UNL     1       5.608   3.899  13.553  0.00  0.00    +0.000 A 
ATOM     12  C   UNL     1       5.189   4.014  14.883  0.00  0.00    +0.000 A 
ENDBRANCH   5   6
BRANCH   3  13
ATOM     13  C   UNL     1       3.288   3.904  19.783  0.00  0.00    +0.000 A 
ATOM     14  C   UNL     1       3.458   2.827  20.668  0.00  0.00    +0.000 A 
ATOM     15  C   UNL     1       2.379   2.369  21.432  0.00  0.00    +0.000 A 
ATOM     16  C   UNL     1       1.133   2.976  21.313  0.00  0.00    +0.000 A 
ATOM     17  C   UNL     1       0.957   4.044  20.436  0.00  0.00    +0.000 A 
ATOM     18  C   UNL     1       2.031   4.514  19.675  0.00  0.00    +0.000 A 
ENDBRANCH   3  13
BRANCH   1  20
ATOM     19  O   UNL     1       8.383   6.101  18.986  0.00  0.00    +0.000 OA
ATOM     20  C   UNL     1       7.371   6.305  18.324  0.00  0.00    +0.000 C 
BRANCH  20  21
ATOM     21  C   UNL     1       7.222   7.491  17.439  0.00  0.00    +0.000 C 
ATOM     22  C   UNL     1       7.823   8.656  17.704  0.00  0.00    +0.000 C 
BRANCH  22  23
ATOM     23  N   UNL     1       8.627   8.964  18.767  0.00  0.00    +0.000 N 
ATOM     24  H   UNL     1       8.723   8.220  19.463  0.00  0.00    +0.000 HD
BRANCH  23  25
ATOM     25  C   UNL     1       9.295  10.165  19.051  0.00  0.00    +0.000 A 
ATOM     26  C   UNL     1       9.551  10.615  20.353  0.00  0.00    +0.000 A 
ATOM     27  C   UNL     1      10.184  11.840  20.584  0.00  0.00    +0.000 A 
ATOM     28  C   UNL     1      10.564  12.635  19.509  0.00  0.00    +0.000 A 
ATOM     29 CL   UNL     1      11.338  14.144  19.794  0.00  0.00    +0.000 Cl
ATOM     30  C   UNL     1      10.316  12.215  18.206  0.00  0.00    +0.000 A 
ATOM     31  C   UNL     1       9.684  10.987  17.982  0.00  0.00    +0.000 A 
ENDBRANCH  23  25
ENDBRANCH  22  23
ENDBRANCH  20  21
ENDBRANCH   1  20
TORSDOF 6
ENDMDL
MODEL 3
REMARK VINA RESULT:      -9.0      0.835      1.743
REMARK  Name = 
REMARK  6 active torsions:
REMARK  status: ('A' for Active; 'I' for Inactive)
REMARK    1  A    between atoms: C_2  and  C_3
REMARK    2  A    between atoms: C_2  and  C_13
REMARK    3  A    between atoms: C_4  and  N_5
REMARK    4  A    between atoms: N_5  and  C_6
REMARK    5  A    between atoms: N_15  and  C_16
REMARK    6  A    between atoms: C_23  and  C_24
REMARK                            x       y       z     vdW  Elec       q    Type
REMARK                         _______ _______ _______ _____ _____    ______ ____
ROOT
ATOM      1  C   UNL     1       5.651   5.884  17.700  0.00  0.00    +0.000 A 
ATOM      2  C   UNL     1       4.889   5.664  18.830  0.00  0.00    +0.000 A 
ATOM      3  N   UNL     1       4.099   4.570  18.594  0.00  0.00    +0.000 N 
ATOM      4  N   UNL     1       4.343   4.049  17.370  0.00  0.00    +0.000 NA
ATOM      5  C   UNL     1       5.263   4.848  16.801  0.00  0.00    +0.000 A 
ENDROOT
BRANCH   5   6
ATOM      6  C   UNL     1       5.747   4.555  15.443  0.00  0.00    +0.000 A 
ATOM      7  C   UNL     1       7.043   4.939  15.060  0.00  0.00    +0.000 A 
ATOM      8  C   UNL     1       7.513   4.695  13.765  0.00  0.00    +0.000 A 
ATOM      9  C   UNL     1       6.690   4.060  12.839  0.00  0.00    +0.000 A 
ATOM     10 CL   UNL     1       7.256   3.770  11.241  0.00  0.00    +0.000 Cl
ATOM     11  C   UNL     1       5.404   3.667  13.198  0.00  0.00    +0.000 A 
ATOM     12  C   UNL     1       4.933   3.923  14.490  0.00  0.00    +0.000 A 
ENDBRANCH   5   6
BRANCH   3  13
ATOM     13  C   UNL     1       3.138   4.001  19.474  0.00  0.00    +0.000 A 
ATOM     14  C   UNL     1       3.520   3.076  20.459  0.00  0.00    +0.000 A 
ATOM     15  C   UNL     1       2.561   2.527  21.317  0.00  0.00    +0.000 A 
ATOM     16  C   UNL     1       1.224   2.891  21.192  0.00  0.00    +0.000 A 
ATOM     17  C   UNL     1       0.837   3.807  20.216  0.00  0.00    +0.000 A 
ATOM     18  C   UNL     1       1.790   4.367  19.360  0.00  0.00    +0.000 A 
ENDBRANCH   3  13
BRANCH   1  20
ATOM     19  O   UNL     1       6.399   7.915  16.740  0.00  0.00    +0.000 OA
ATOM     20  C   UNL     1       6.578   6.984  17.518  0.00  0.00    +0.000 C 
BRANCH  20  21
ATOM     21  C   UNL     1       7.794   6.878  18.368  0.00  0.00    +0.000 C 
ATOM     22  C   UNL     1       8.557   7.939  18.653  0.00  0.00    +0.000 C 
BRANCH  22  23
ATOM     23  N   UNL     1       8.386   9.232  18.242  0.00  0.00    +0.000 N 
ATOM     24  H   UNL     1       7.707   9.356  17.487  0.00  0.00    +0.000 HD
BRANCH  23  25
ATOM     25  C   UNL     1       9.042  10.392  18.679  0.00  0.00    +0.000 A 
ATOM     26  C   UNL     1       9.427  11.431  17.821  0.00  0.00    +0.000 A 
ATOM     27  C   UNL     1      10.115  12.549  18.300  0.00  0.00    +0.000 A 
ATOM     28  C   UNL     1      10.435  12.638  19.649  0.00  0.00    +0.000 A 
ATOM     29 CL   UNL     1      11.287  14.011  20.238  0.00  0.00    +0.000 Cl
ATOM     30  C   UNL     1      10.071  11.618  20.523  0.00  0.00    +0.000 A 
ATOM     31  C   UNL     1       9.380  10.503  20.037  0.00  0.00    +0.000 A 
ENDBRANCH  23  25
ENDBRANCH  22  23
ENDBRANCH  20  21
ENDBRANCH   1  20
TORSDOF 6
ENDMDL
MODEL 4
REMARK VINA RESULT:      -8.9      1.043      1.420
REMARK  Name = 
REMARK  6 active torsions:
REMARK  status: ('A' for Active; 'I' for Inactive)
REMARK    1  A    between atoms: C_2  and  C_3
REMARK    2  A    between atoms: C_2  and  C_13
REMARK    3  A    between atoms: C_4  and  N_5
REMARK    4  A    between atoms: N_5  and  C_6
REMARK    5  A    between atoms: N_15  and  C_16
REMARK    6  A    between atoms: C_23  and  C_24
REMARK                            x       y       z     vdW  Elec       q    Type
REMARK                         _______ _______ _______ _____ _____    ______ ____
ROOT
ATOM      1  C   UNL     1       5.549   5.924  17.481  0.00  0.00    +0.000 A 
ATOM      2  C   UNL     1       4.718   5.718  18.564  0.00  0.00    +0.000 A 
ATOM      3  N   UNL     1       3.914   4.647  18.275  0.00  0.00    +0.000 N 
ATOM      4  N   UNL     1       4.213   4.126  17.064  0.00  0.00    +0.000 NA
ATOM      5  C   UNL     1       5.185   4.904  16.553  0.00  0.00    +0.000 A 
ENDROOT
BRANCH   5   6
ATOM      6  C   UNL     1       5.737   4.606  15.223  0.00  0.00    +0.000 A 
ATOM      7  C   UNL     1       7.032   5.035  14.887  0.00  0.00    +0.000 A 
ATOM      8  C   UNL     1       7.566   4.787  13.617  0.00  0.00    +0.000 A 
ATOM      9  C   UNL     1       6.809   4.102  12.671  0.00  0.00    +0.000 A 
ATOM     10 CL   UNL     1       7.453   3.806  11.104  0.00  0.00    +0.000 Cl
ATOM     11  C   UNL     1       5.525   3.664  12.984  0.00  0.00    +0.000 A 
ATOM     12  C   UNL     1       4.989   3.924  14.250  0.00  0.00    +0.000 A 
ENDBRANCH   5   6
BRANCH   3  13
ATOM     13  C   UNL     1       2.889   4.098  19.095  0.00  0.00    +0.000 A 
ATOM     14  C   UNL     1       1.854   3.330  18.538  0.00  0.00    +0.000 A 
ATOM     15  C   UNL     1       0.855   2.797  19.359  0.00  0.00    +0.000 A 
ATOM     16  C   UNL     1       0.881   3.031  20.730  0.00  0.00    +0.000 A 
ATOM     17  C   UNL     1       1.905   3.793  21.290  0.00  0.00    +0.000 A 
ATOM     18  C   UNL     1       2.912   4.322  20.478  0.00  0.00    +0.000 A 
ENDBRANCH   3  13
BRANCH   1  20
ATOM     19  O   UNL     1       6.380   7.964  16.615  0.00  0.00    +0.000 OA
ATOM     20  C   UNL     1       6.513   7.000  17.359  0.00  0.00    +0.000 C 
BRANCH  20  21
ATOM     21  C   UNL     1       7.707   6.822  18.230  0.00  0.00    +0.000 C 
ATOM     22  C   UNL     1       8.485   7.849  18.587  0.00  0.00    +0.000 C 
BRANCH  22  23
ATOM     23  N   UNL     1       8.351   9.165  18.241  0.00  0.00    +0.000 N 
ATOM     24  H   UNL     1       7.690   9.345  17.480  0.00  0.00    +0.000 HD
BRANCH  23  25
ATOM     25  C   UNL     1       9.023  10.287  18.750  0.00  0.00    +0.000 A 
ATOM     26  C   UNL     1       9.358  10.436  20.103  0.00  0.00    +0.000 A 
ATOM     27  C   UNL     1       9.992  11.592  20.568  0.00  0.00    +0.000 A 
ATOM     28  C   UNL     1      10.294  12.619  19.682  0.00  0.00    +0.000 A 
ATOM     29 CL   UNL     1      11.068  14.043  20.256  0.00  0.00    +0.000 Cl
ATOM     30  C   UNL     1       9.966  12.500  18.335  0.00  0.00    +0.000 A 
ATOM     31  C   UNL     1       9.334  11.340  17.876  0.00  0.00    +0.000 A 
ENDBRANCH  23  25
ENDBRANCH  22  23
ENDBRANCH  20  21
ENDBRANCH   1  20
TORSDOF 6
ENDMDL
MODEL 5
REMARK VINA RESULT:      -8.8      1.060      1.440
REMARK  Name = 
REMARK  6 active torsions:
REMARK  status: ('A' for Active; 'I' for Inactive)
REMARK    1  A    between atoms: C_2  and  C_3
REMARK    2  A    between atoms: C_2  and  C_13
REMARK    3  A    between atoms: C_4  and  N_5
REMARK    4  A    between atoms: N_5  and  C_6
REMARK    5  A    between atoms: N_15  and  C_16
REMARK    6  A    between atoms: C_23  and  C_24
REMARK                            x       y       z     vdW  Elec       q    Type
REMARK                         _______ _______ _______ _____ _____    ______ ____
ROOT
ATOM      1  C   UNL     1       5.607   5.894  17.535  0.00  0.00    +0.000 A 
ATOM      2  C   UNL     1       4.802   5.646  18.629  0.00  0.00    +0.000 A 
ATOM      3  N   UNL     1       4.032   4.551  18.340  0.00  0.00    +0.000 N 
ATOM      4  N   UNL     1       4.329   4.055  17.118  0.00  0.00    +0.000 NA
ATOM      5  C   UNL     1       5.264   4.873  16.602  0.00  0.00    +0.000 A 
ENDROOT
BRANCH   5   6
ATOM      6  C   UNL     1       5.805   4.610  15.259  0.00  0.00    +0.000 A 
ATOM      7  C   UNL     1       5.030   3.920  14.312  0.00  0.00    +0.000 A 
ATOM      8  C   UNL     1       5.536   3.634  13.038  0.00  0.00    +0.000 A 
ATOM      9  C   UNL     1       6.823   4.041  12.699  0.00  0.00    +0.000 A 
ATOM     10 CL   UNL     1       7.456   3.681  11.140  0.00  0.00    +0.000 Cl
ATOM     11  C   UNL     1       7.606   4.730  13.620  0.00  0.00    +0.000 A 
ATOM     12  C   UNL     1       7.102   5.003  14.897  0.00  0.00    +0.000 A 
ENDBRANCH   5   6
BRANCH   3  13
ATOM     13  C   UNL     1       3.040   3.957  19.169  0.00  0.00    +0.000 A 
ATOM     14  C   UNL     1       2.835   4.407  20.483  0.00  0.00    +0.000 A 
ATOM     15  C   UNL     1       1.854   3.813  21.284  0.00  0.00    +0.000 A 
ATOM     16  C   UNL     1       1.083   2.769  20.783  0.00  0.00    +0.000 A 
ATOM     17  C   UNL     1       1.282   2.316  19.480  0.00  0.00    +0.000 A 
ATOM     18  C   UNL     1       2.254   2.910  18.670  0.00  0.00    +0.000 A 
ENDBRANCH   3  13
BRANCH   1  20
ATOM     19  O   UNL     1       6.349   7.976  16.686  0.00  0.00    +0.000 OA
ATOM     20  C   UNL     1       6.531   7.005  17.412  0.00  0.00    +0.000 C 
BRANCH  20  21
ATOM     21  C   UNL     1       7.748   6.855  18.254  0.00  0.00    +0.000 C 
ATOM     22  C   UNL     1       8.525   7.897  18.573  0.00  0.00    +0.000 C 
BRANCH  22  23
ATOM     23  N   UNL     1       8.367   9.205  18.207  0.00  0.00    +0.000 N 
ATOM     24  H   UNL     1       7.634   9.372  17.513  0.00  0.00    +0.000 HD
BRANCH  23  25
ATOM     25  C   UNL     1       9.098  10.331  18.615  0.00  0.00    +0.000 A 
ATOM     26  C   UNL     1       9.498  11.350  17.740  0.00  0.00    +0.000 A 
ATOM     27  C   UNL     1      10.260  12.432  18.189  0.00  0.00    +0.000 A 
ATOM     28  C   UNL     1      10.639  12.504  19.525  0.00  0.00    +0.000 A 
ATOM     29 CL   UNL     1      11.582  13.832  20.075  0.00  0.00    +0.000 Cl
ATOM     30  C   UNL     1      10.262  11.502  20.414  0.00  0.00    +0.000 A 
ATOM     31  C   UNL     1       9.497  10.423  19.958  0.00  0.00    +0.000 A 
ENDBRANCH  23  25
ENDBRANCH  22  23
ENDBRANCH  20  21
ENDBRANCH   1  20
TORSDOF 6
ENDMDL
MODEL 6
REMARK VINA RESULT:      -8.6      8.043     11.546
REMARK  Name = 
REMARK  6 active torsions:
REMARK  status: ('A' for Active; 'I' for Inactive)
REMARK    1  A    between atoms: C_2  and  C_3
REMARK    2  A    between atoms: C_2  and  C_13
REMARK    3  A    between atoms: C_4  and  N_5
REMARK    4  A    between atoms: N_5  and  C_6
REMARK    5  A    between atoms: N_15  and  C_16
REMARK    6  A    between atoms: C_23  and  C_24
REMARK                            x       y       z     vdW  Elec       q    Type
REMARK                         _______ _______ _______ _____ _____    ______ ____
ROOT
ATOM      1  C   UNL     1      -0.556  10.882  20.597  0.00  0.00    +0.000 A 
ATOM      2  C   UNL     1      -0.823  10.421  19.324  0.00  0.00    +0.000 A 
ATOM      3  N   UNL     1      -1.959  11.046  18.883  0.00  0.00    +0.000 N 
ATOM      4  N   UNL     1      -2.421  11.922  19.804  0.00  0.00    +0.000 NA
ATOM      5  C   UNL     1      -1.599  11.818  20.863  0.00  0.00    +0.000 A 
ENDROOT
BRANCH   5   6
ATOM      6  C   UNL     1      -1.834  12.646  22.056  0.00  0.00    +0.000 A 
ATOM      7  C   UNL     1      -2.974  12.431  22.848  0.00  0.00    +0.000 A 
ATOM      8  C   UNL     1      -3.231  13.226  23.971  0.00  0.00    +0.000 A 
ATOM      9  C   UNL     1      -2.345  14.243  24.315  0.00  0.00    +0.000 A 
ATOM     10 CL   UNL     1      -2.663  15.234  25.685  0.00  0.00    +0.000 Cl
ATOM     11  C   UNL     1      -1.207  14.471  23.547  0.00  0.00    +0.000 A 
ATOM     12  C   UNL     1      -0.959  13.683  22.418  0.00  0.00    +0.000 A 
ENDBRANCH   5   6
BRANCH   3  13
ATOM     13  C   UNL     1      -2.615  10.855  17.636  0.00  0.00    +0.000 A 
ATOM     14  C   UNL     1      -3.841  11.482  17.362  0.00  0.00    +0.000 A 
ATOM     15  C   UNL     1      -4.471  11.285  16.128  0.00  0.00    +0.000 A 
ATOM     16  C   UNL     1      -3.888  10.460  15.172  0.00  0.00    +0.000 A 
ATOM     17  C   UNL     1      -2.672   9.833  15.437  0.00  0.00    +0.000 A 
ATOM     18  C   UNL     1      -2.031  10.032  16.663  0.00  0.00    +0.000 A 
ENDBRANCH   3  13
BRANCH   1  20
ATOM     19  O   UNL     1       1.571  11.046  21.623  0.00  0.00    +0.000 OA
ATOM     20  C   UNL     1       0.530  10.425  21.442  0.00  0.00    +0.000 C 
BRANCH  20  21
ATOM     21  C   UNL     1       0.268   9.104  22.075  0.00  0.00    +0.000 C 
ATOM     22  C   UNL     1       0.890   7.989  21.677  0.00  0.00    +0.000 C 
BRANCH  22  23
ATOM     23  N   UNL     1       1.814   7.853  20.678  0.00  0.00    +0.000 N 
ATOM     24  H   UNL     1       2.333   8.706  20.453  0.00  0.00    +0.000 HD
BRANCH  23  25
ATOM     25  C   UNL     1       2.112   6.726  19.897  0.00  0.00    +0.000 A 
ATOM     26  C   UNL     1       2.642   6.803  18.603  0.00  0.00    +0.000 A 
ATOM     27  C   UNL     1       2.884   5.651  17.849  0.00  0.00    +0.000 A 
ATOM     28  C   UNL     1       2.589   4.402  18.382  0.00  0.00    +0.000 A 
ATOM     29 CL   UNL     1       2.880   2.985  17.453  0.00  0.00    +0.000 Cl
ATOM     30  C   UNL     1       2.054   4.296  19.663  0.00  0.00    +0.000 A 
ATOM     31  C   UNL     1       1.818   5.454  20.412  0.00  0.00    +0.000 A 
ENDBRANCH  23  25
ENDBRANCH  22  23
ENDBRANCH  20  21
ENDBRANCH   1  20
TORSDOF 6
ENDMDL
MODEL 7
REMARK VINA RESULT:      -8.5      7.598     11.276
REMARK  Name = 
REMARK  6 active torsions:
REMARK  status: ('A' for Active; 'I' for Inactive)
REMARK    1  A    between atoms: C_2  and  C_3
REMARK    2  A    between atoms: C_2  and  C_13
REMARK    3  A    between atoms: C_4  and  N_5
REMARK    4  A    between atoms: N_5  and  C_6
REMARK    5  A    between atoms: N_15  and  C_16
REMARK    6  A    between atoms: C_23  and  C_24
REMARK                            x       y       z     vdW  Elec       q    Type
REMARK                         _______ _______ _______ _____ _____    ______ ____
ROOT
ATOM      1  C   UNL     1       0.726  11.273  18.799  0.00  0.00    +0.000 A 
ATOM      2  C   UNL     1       1.839  12.090  18.806  0.00  0.00    +0.000 A 
ATOM      3  N   UNL     1       1.417  13.372  18.570  0.00  0.00    +0.000 N 
ATOM      4  N   UNL     1       0.071  13.426  18.447  0.00  0.00    +0.000 NA
ATOM      5  C   UNL     1      -0.365  12.159  18.556  0.00  0.00    +0.000 A 
ENDROOT
BRANCH   5   6
ATOM      6  C   UNL     1      -1.804  11.869  18.459  0.00  0.00    +0.000 A 
ATOM      7  C   UNL     1      -2.303  11.151  17.360  0.00  0.00    +0.000 A 
ATOM      8  C   UNL     1      -3.673  10.889  17.233  0.00  0.00    +0.000 A 
ATOM      9  C   UNL     1      -4.556  11.341  18.210  0.00  0.00    +0.000 A 
ATOM     10 CL   UNL     1      -6.241  11.035  18.054  0.00  0.00    +0.000 Cl
ATOM     11  C   UNL     1      -4.082  12.050  19.309  0.00  0.00    +0.000 A 
ATOM     12  C   UNL     1      -2.714  12.321  19.427  0.00  0.00    +0.000 A 
ENDBRANCH   5   6
BRANCH   3  13
ATOM     13  C   UNL     1       2.227  14.536  18.465  0.00  0.00    +0.000 A 
ATOM     14  C   UNL     1       3.586  14.441  18.126  0.00  0.00    +0.000 A 
ATOM     15  C   UNL     1       4.368  15.597  18.025  0.00  0.00    +0.000 A 
ATOM     16  C   UNL     1       3.801  16.844  18.266  0.00  0.00    +0.000 A 
ATOM     17  C   UNL     1       2.453  16.947  18.603  0.00  0.00    +0.000 A 
ATOM     18  C   UNL     1       1.663  15.798  18.698  0.00  0.00    +0.000 A 
ENDBRANCH   3  13
BRANCH   1  20
ATOM     19  O   UNL     1       0.925   9.043  18.031  0.00  0.00    +0.000 OA
ATOM     20  C   UNL     1       0.747   9.832  18.953  0.00  0.00    +0.000 C 
BRANCH  20  21
ATOM     21  C   UNL     1       0.520   9.385  20.354  0.00  0.00    +0.000 C 
ATOM     22  C   UNL     1       1.205   8.372  20.896  0.00  0.00    +0.000 C 
BRANCH  22  23
ATOM     23  N   UNL     1       2.170   7.600  20.309  0.00  0.00    +0.000 N 
ATOM     24  H   UNL     1       3.067   8.070  20.166  0.00  0.00    +0.000 HD
BRANCH  23  25
ATOM     25  C   UNL     1       2.082   6.280  19.841  0.00  0.00    +0.000 A 
ATOM     26  C   UNL     1       2.365   5.911  18.520  0.00  0.00    +0.000 A 
ATOM     27  C   UNL     1       2.223   4.588  18.092  0.00  0.00    +0.000 A 
ATOM     28  C   UNL     1       1.787   3.616  18.984  0.00  0.00    +0.000 A 
ATOM     29 CL   UNL     1       1.606   1.989  18.455  0.00  0.00    +0.000 Cl
ATOM     30  C   UNL     1       1.492   3.956  20.300  0.00  0.00    +0.000 A 
ATOM     31  C   UNL     1       1.638   5.282  20.722  0.00  0.00    +0.000 A 
ENDBRANCH  23  25
ENDBRANCH  22  23
ENDBRANCH  20  21
ENDBRANCH   1  20
TORSDOF 6
ENDMDL
MODEL 8
REMARK VINA RESULT:      -8.4      7.220     10.477
REMARK  Name = 
REMARK  6 active torsions:
REMARK  status: ('A' for Active; 'I' for Inactive)
REMARK    1  A    between atoms: C_2  and  C_3
REMARK    2  A    between atoms: C_2  and  C_13
REMARK    3  A    between atoms: C_4  and  N_5
REMARK    4  A    between atoms: N_5  and  C_6
REMARK    5  A    between atoms: N_15  and  C_16
REMARK    6  A    between atoms: C_23  and  C_24
REMARK                            x       y       z     vdW  Elec       q    Type
REMARK                         _______ _______ _______ _____ _____    ______ ____
ROOT
ATOM      1  C   UNL     1       0.064  10.567  19.004  0.00  0.00    +0.000 A 
ATOM      2  C   UNL     1      -1.274  10.322  18.764  0.00  0.00    +0.000 A 
ATOM      3  N   UNL     1      -1.913  11.531  18.686  0.00  0.00    +0.000 N 
ATOM      4  N   UNL     1      -1.039  12.553  18.829  0.00  0.00    +0.000 NA
ATOM      5  C   UNL     1       0.162  11.989  19.050  0.00  0.00    +0.000 A 
ENDROOT
BRANCH   5   6
ATOM      6  C   UNL     1       1.344  12.841  19.257  0.00  0.00    +0.000 A 
ATOM      7  C   UNL     1       2.124  13.238  18.158  0.00  0.00    +0.000 A 
ATOM      8  C   UNL     1       3.268  14.025  18.335  0.00  0.00    +0.000 A 
ATOM      9  C   UNL     1       3.640  14.426  19.615  0.00  0.00    +0.000 A 
ATOM     10 CL   UNL     1       5.053  15.380  19.840  0.00  0.00    +0.000 Cl
ATOM     11  C   UNL     1       2.879  14.047  20.717  0.00  0.00    +0.000 A 
ATOM     12  C   UNL     1       1.743  13.250  20.538  0.00  0.00    +0.000 A 
ENDBRANCH   5   6
BRANCH   3  13
ATOM     13  C   UNL     1      -3.301  11.755  18.477  0.00  0.00    +0.000 A 
ATOM     14  C   UNL     1      -4.105  12.298  19.492  0.00  0.00    +0.000 A 
ATOM     15  C   UNL     1      -5.469  12.514  19.268  0.00  0.00    +0.000 A 
ATOM     16  C   UNL     1      -6.035  12.185  18.040  0.00  0.00    +0.000 A 
ATOM     17  C   UNL     1      -5.243  11.646  17.028  0.00  0.00    +0.000 A 
ATOM     18  C   UNL     1      -3.878  11.435  17.240  0.00  0.00    +0.000 A 
ENDBRANCH   3  13
BRANCH   1  20
ATOM     19  O   UNL     1       1.250   8.957  20.271  0.00  0.00    +0.000 OA
ATOM     20  C   UNL     1       1.076   9.551  19.212  0.00  0.00    +0.000 C 
BRANCH  20  21
ATOM     21  C   UNL     1       1.908   9.292  18.006  0.00  0.00    +0.000 C 
ATOM     22  C   UNL     1       2.720   8.233  17.917  0.00  0.00    +0.000 C 
BRANCH  22  23
ATOM     23  N   UNL     1       2.935   7.258  18.852  0.00  0.00    +0.000 N 
ATOM     24  H   UNL     1       3.644   7.483  19.554  0.00  0.00    +0.000 HD
BRANCH  23  25
ATOM     25  C   UNL     1       2.353   5.985  18.951  0.00  0.00    +0.000 A 
ATOM     26  C   UNL     1       1.883   5.443  20.154  0.00  0.00    +0.000 A 
ATOM     27  C   UNL     1       1.348   4.153  20.208  0.00  0.00    +0.000 A 
ATOM     28  C   UNL     1       1.283   3.383  19.052  0.00  0.00    +0.000 A 
ATOM     29 CL   UNL     1       0.630   1.794  19.119  0.00  0.00    +0.000 Cl
ATOM     30  C   UNL     1       1.749   3.894  17.844  0.00  0.00    +0.000 A 
ATOM     31  C   UNL     1       2.281   5.187  17.798  0.00  0.00    +0.000 A 
ENDBRANCH  23  25
ENDBRANCH  22  23
ENDBRANCH  20  21
ENDBRANCH   1  20
TORSDOF 6
ENDMDL
MODEL 9
REMARK VINA RESULT:      -8.4      4.694      7.288
REMARK  Name = 
REMARK  6 active torsions:
REMARK  status: ('A' for Active; 'I' for Inactive)
REMARK    1  A    between atoms: C_2  and  C_3
REMARK    2  A    between atoms: C_2  and  C_13
REMARK    3  A    between atoms: C_4  and  N_5
REMARK    4  A    between atoms: N_5  and  C_6
REMARK    5  A    between atoms: N_15  and  C_16
REMARK    6  A    between atoms: C_23  and  C_24
REMARK                            x       y       z     vdW  Elec       q    Type
REMARK                         _______ _______ _______ _____ _____    ______ ____
ROOT
ATOM      1  C   UNL     1       3.843   7.168  17.594  0.00  0.00    +0.000 A 
ATOM      2  C   UNL     1       3.184   8.361  17.815  0.00  0.00    +0.000 A 
ATOM      3  N   UNL     1       2.113   8.102  18.629  0.00  0.00    +0.000 N 
ATOM      4  N   UNL     1       2.071   6.795  18.976  0.00  0.00    +0.000 NA
ATOM      5  C   UNL     1       3.097   6.206  18.336  0.00  0.00    +0.000 A 
ENDROOT
BRANCH   5   6
ATOM      6  C   UNL     1       3.329   4.762  18.500  0.00  0.00    +0.000 A 
ATOM      7  C   UNL     1       2.817   3.857  17.556  0.00  0.00    +0.000 A 
ATOM      8  C   UNL     1       3.001   2.478  17.708  0.00  0.00    +0.000 A 
ATOM      9  C   UNL     1       3.705   1.991  18.806  0.00  0.00    +0.000 A 
ATOM     10 CL   UNL     1       3.924   0.297  19.006  0.00  0.00    +0.000 Cl
ATOM     11  C   UNL     1       4.225   2.871  19.750  0.00  0.00    +0.000 A 
ATOM     12  C   UNL     1       4.028   4.249  19.603  0.00  0.00    +0.000 A 
ENDBRANCH   5   6
BRANCH   3  13
ATOM     13  C   UNL     1       1.143   9.032  19.092  0.00  0.00    +0.000 A 
ATOM     14  C   UNL     1       0.867   9.165  20.462  0.00  0.00    +0.000 A 
ATOM     15  C   UNL     1      -0.090  10.086  20.901  0.00  0.00    +0.000 A 
ATOM     16  C   UNL     1      -0.776  10.871  19.979  0.00  0.00    +0.000 A 
ATOM     17  C   UNL     1      -0.508  10.744  18.617  0.00  0.00    +0.000 A 
ATOM     18  C   UNL     1       0.453   9.832  18.171  0.00  0.00    +0.000 A 
ENDBRANCH   3  13
BRANCH   1  20
ATOM     19  O   UNL     1       5.050   7.365  15.567  0.00  0.00    +0.000 OA
ATOM     20  C   UNL     1       4.999   6.998  16.736  0.00  0.00    +0.000 C 
BRANCH  20  21
ATOM     21  C   UNL     1       6.138   6.318  17.409  0.00  0.00    +0.000 C 
ATOM     22  C   UNL     1       7.176   5.824  16.725  0.00  0.00    +0.000 C 
BRANCH  22  23
ATOM     23  N   UNL     1       7.374   5.839  15.372  0.00  0.00    +0.000 N 
ATOM     24  H   UNL     1       7.952   6.611  15.030  0.00  0.00    +0.000 HD
BRANCH  23  25
ATOM     25  C   UNL     1       6.860   4.974  14.393  0.00  0.00    +0.000 A 
ATOM     26  C   UNL     1       5.737   4.161  14.596  0.00  0.00    +0.000 A 
ATOM     27  C   UNL     1       5.289   3.285  13.603  0.00  0.00    +0.000 A 
ATOM     28  C   UNL     1       5.967   3.207  12.393  0.00  0.00    +0.000 A 
ATOM     29 CL   UNL     1       5.419   2.125  11.174  0.00  0.00    +0.000 Cl
ATOM     30  C   UNL     1       7.090   3.998  12.167  0.00  0.00    +0.000 A 
ATOM     31  C   UNL     1       7.532   4.874  13.164  0.00  0.00    +0.000 A 
ENDBRANCH  23  25
ENDBRANCH  22  23
ENDBRANCH  20  21
ENDBRANCH   1  20
TORSDOF 6
ENDMDL
