MODEL 1
REMARK VINA RESULT:      -6.7      0.000      0.000
REMARK  Name = 
REMARK  4 active torsions:
REMARK  status: ('A' for Active; 'I' for Inactive)
REMARK    1  A    between atoms: C_2  and  C_3
REMARK    2  A    between atoms: C_3  and  O_4
REMARK    3  A    between atoms: O_4  and  N_5
REMARK    4  A    between atoms: N_8  and  C_9
REMARK                            x       y       z     vdW  Elec       q    Type
REMARK                         _______ _______ _______ _____ _____    ______ ____
ROOT
ATOM      1  N   UNL     1       6.429   4.119  17.646  0.00  0.00    +0.000 N 
ATOM      2  C   UNL     1       5.503   4.274  18.659  0.00  0.00    +0.000 C 
ATOM      3  O   UNL     1       5.639   5.036  19.613  0.00  0.00    +0.000 OA
ATOM      4  N   UNL     1       4.435   3.405  18.495  0.00  0.00    +0.000 N 
ATOM      5  H   UNL     1       6.094   3.923  16.713  0.00  0.00    +0.000 HD
ATOM      6  H   UNL     1       4.677   2.544  18.019  0.00  0.00    +0.000 HD
ENDROOT
BRANCH   4   7
ATOM      7  C   UNL     1       3.386   3.286  19.441  0.00  0.00    +0.000 A 
ATOM      8  C   UNL     1       3.563   2.620  20.655  0.00  0.00    +0.000 A 
ATOM      9  C   UNL     1       2.502   2.502  21.563  0.00  0.00    +0.000 A 
ATOM     10  C   UNL     1       1.253   3.037  21.251  0.00  0.00    +0.000 A 
ATOM     11  C   UNL     1       1.066   3.714  20.047  0.00  0.00    +0.000 A 
ATOM     12  C   UNL     1       2.134   3.852  19.153  0.00  0.00    +0.000 A 
ATOM     13 CL   UNL     1       1.851   4.672  17.654  0.00  0.00    +0.000 Cl
ENDBRANCH   4   7
BRANCH   1  14
ATOM     14  O   UNL     1       7.540   5.000  17.763  0.00  0.00    +0.000 OA
BRANCH  14  15
ATOM     15  C   UNL     1       7.266   6.238  17.112  0.00  0.00    +0.000 C 
BRANCH  15  17
ATOM     16  C   UNL     1       7.916   8.611  17.636  0.00  0.00    +0.000 C 
ATOM     17  C   UNL     1       7.759   7.332  18.004  0.00  0.00    +0.000 C 
ENDBRANCH  15  17
ENDBRANCH  14  15
ENDBRANCH   1  14
TORSDOF 4
ENDMDL
MODEL 2
REMARK VINA RESULT:      -6.7      1.958      2.525
REMARK  Name = 
REMARK  4 active torsions:
REMARK  status: ('A' for Active; 'I' for Inactive)
REMARK    1  A    between atoms: C_2  and  C_3
REMARK    2  A    between atoms: C_3  and  O_4
REMARK    3  A    between atoms: O_4  and  N_5
REMARK    4  A    between atoms: N_8  and  C_9
REMARK                            x       y       z     vdW  Elec       q    Type
REMARK                         _______ _______ _______ _____ _____    ______ ____
ROOT
ATOM      1  N   UNL     1       5.642   3.801  16.678  0.00  0.00    +0.000 N 
ATOM      2  C   UNL     1       4.838   4.127  17.753  0.00  0.00    +0.000 C 
ATOM      3  O   UNL     1       4.922   5.174  18.390  0.00  0.00    +0.000 OA
ATOM      4  N   UNL     1       3.973   3.087  18.063  0.00  0.00    +0.000 N 
ATOM      5  H   UNL     1       5.244   3.253  15.927  0.00  0.00    +0.000 HD
ATOM      6  H   UNL     1       4.336   2.171  17.830  0.00  0.00    +0.000 HD
ENDROOT
BRANCH   4   7
ATOM      7  C   UNL     1       3.103   3.116  19.180  0.00  0.00    +0.000 A 
ATOM      8  C   UNL     1       3.470   2.573  20.412  0.00  0.00    +0.000 A 
ATOM      9  C   UNL     1       2.580   2.600  21.495  0.00  0.00    +0.000 A 
ATOM     10  C   UNL     1       1.311   3.157  21.343  0.00  0.00    +0.000 A 
ATOM     11  C   UNL     1       0.936   3.712  20.121  0.00  0.00    +0.000 A 
ATOM     12  C   UNL     1       1.836   3.707  19.048  0.00  0.00    +0.000 A 
ATOM     13 CL   UNL     1       1.319   4.378  17.538  0.00  0.00    +0.000 Cl
ENDBRANCH   4   7
BRANCH   1  14
ATOM     14  O   UNL     1       6.539   4.842  16.312  0.00  0.00    +0.000 OA
BRANCH  14  15
ATOM     15  C   UNL     1       7.085   4.599  15.018  0.00  0.00    +0.000 C 
BRANCH  15  17
ATOM     16  C   UNL     1       6.112   3.682  12.887  0.00  0.00    +0.000 C 
ATOM     17  C   UNL     1       6.017   3.950  14.196  0.00  0.00    +0.000 C 
ENDBRANCH  15  17
ENDBRANCH  14  15
ENDBRANCH   1  14
TORSDOF 4
ENDMDL
MODEL 3
REMARK VINA RESULT:      -6.6      1.573      1.688
REMARK  Name = 
REMARK  4 active torsions:
REMARK  status: ('A' for Active; 'I' for Inactive)
REMARK    1  A    between atoms: C_2  and  C_3
REMARK    2  A    between atoms: C_3  and  O_4
REMARK    3  A    between atoms: O_4  and  N_5
REMARK    4  A    between atoms: N_8  and  C_9
REMARK                            x       y       z     vdW  Elec       q    Type
REMARK                         _______ _______ _______ _____ _____    ______ ____
ROOT
ATOM      1  N   UNL     1       7.020   4.454  18.425  0.00  0.00    +0.000 N 
ATOM      2  C   UNL     1       5.645   4.571  18.473  0.00  0.00    +0.000 C 
ATOM      3  O   UNL     1       5.009   5.492  17.966  0.00  0.00    +0.000 OA
ATOM      4  N   UNL     1       5.083   3.552  19.228  0.00  0.00    +0.000 N 
ATOM      5  H   UNL     1       7.424   3.529  18.378  0.00  0.00    +0.000 HD
ATOM      6  H   UNL     1       5.690   3.204  19.961  0.00  0.00    +0.000 HD
ENDROOT
BRANCH   4   7
ATOM      7  C   UNL     1       3.699   3.483  19.520  0.00  0.00    +0.000 A 
ATOM      8  C   UNL     1       3.039   4.504  20.205  0.00  0.00    +0.000 A 
ATOM      9  C   UNL     1       1.673   4.400  20.495  0.00  0.00    +0.000 A 
ATOM     10  C   UNL     1       0.963   3.261  20.116  0.00  0.00    +0.000 A 
ATOM     11  C   UNL     1       1.607   2.238  19.422  0.00  0.00    +0.000 A 
ATOM     12  C   UNL     1       2.966   2.357  19.111  0.00  0.00    +0.000 A 
ATOM     13 CL   UNL     1       3.735   1.049  18.276  0.00  0.00    +0.000 Cl
ENDBRANCH   4   7
BRANCH   1  14
ATOM     14  O   UNL     1       7.643   5.471  17.650  0.00  0.00    +0.000 OA
BRANCH  14  15
ATOM     15  C   UNL     1       7.922   6.613  18.456  0.00  0.00    +0.000 C 
BRANCH  15  17
ATOM     16  C   UNL     1       8.156   9.055  17.899  0.00  0.00    +0.000 C 
ATOM     17  C   UNL     1       7.720   7.824  17.602  0.00  0.00    +0.000 C 
ENDBRANCH  15  17
ENDBRANCH  14  15
ENDBRANCH   1  14
TORSDOF 4
ENDMDL
MODEL 4
REMARK VINA RESULT:      -6.5      2.217      5.930
REMARK  Name = 
REMARK  4 active torsions:
REMARK  status: ('A' for Active; 'I' for Inactive)
REMARK    1  A    between atoms: C_2  and  C_3
REMARK    2  A    between atoms: C_3  and  O_4
REMARK    3  A    between atoms: O_4  and  N_5
REMARK    4  A    between atoms: N_8  and  C_9
REMARK                            x       y       z     vdW  Elec       q    Type
REMARK                         _______ _______ _______ _____ _____    ______ ____
ROOT
ATOM      1  N   UNL     1       2.815   3.441  17.228  0.00  0.00    +0.000 N 
ATOM      2  C   UNL     1       3.629   4.407  17.787  0.00  0.00    +0.000 C 
ATOM      3  O   UNL     1       3.232   5.308  18.522  0.00  0.00    +0.000 OA
ATOM      4  N   UNL     1       4.939   4.269  17.352  0.00  0.00    +0.000 N 
ATOM      5  H   UNL     1       3.193   2.513  17.092  0.00  0.00    +0.000 HD
ATOM      6  H   UNL     1       5.022   3.865  16.427  0.00  0.00    +0.000 HD
ENDROOT
BRANCH   4   7
ATOM      7  C   UNL     1       5.965   5.184  17.695  0.00  0.00    +0.000 A 
ATOM      8  C   UNL     1       6.805   4.970  18.790  0.00  0.00    +0.000 A 
ATOM      9  C   UNL     1       7.799   5.901  19.116  0.00  0.00    +0.000 A 
ATOM     10  C   UNL     1       7.946   7.061  18.358  0.00  0.00    +0.000 A 
ATOM     11  C   UNL     1       7.121   7.283  17.256  0.00  0.00    +0.000 A 
ATOM     12  C   UNL     1       6.146   6.338  16.917  0.00  0.00    +0.000 A 
ATOM     13 CL   UNL     1       5.121   6.666  15.560  0.00  0.00    +0.000 Cl
ENDBRANCH   4   7
BRANCH   1  14
ATOM     14  O   UNL     1       1.462   3.533  17.654  0.00  0.00    +0.000 OA
BRANCH  14  15
ATOM     15  C   UNL     1       1.166   2.508  18.600  0.00  0.00    +0.000 C 
BRANCH  15  17
ATOM     16  C   UNL     1       1.379   2.883  21.078  0.00  0.00    +0.000 C 
ATOM     17  C   UNL     1       0.826   3.176  19.894  0.00  0.00    +0.000 C 
ENDBRANCH  15  17
ENDBRANCH  14  15
ENDBRANCH   1  14
TORSDOF 4
ENDMDL
MODEL 5
REMARK VINA RESULT:      -6.5      0.979      1.597
REMARK  Name = 
REMARK  4 active torsions:
REMARK  status: ('A' for Active; 'I' for Inactive)
REMARK    1  A    between atoms: C_2  and  C_3
REMARK    2  A    between atoms: C_3  and  O_4
REMARK    3  A    between atoms: O_4  and  N_5
REMARK    4  A    between atoms: N_8  and  C_9
REMARK                            x       y       z     vdW  Elec       q    Type
REMARK                         _______ _______ _______ _____ _____    ______ ____
ROOT
ATOM      1  N   UNL     1       6.616   4.166  18.130  0.00  0.00    +0.000 N 
ATOM      2  C   UNL     1       5.446   4.392  18.828  0.00  0.00    +0.000 C 
ATOM      3  O   UNL     1       5.151   5.458  19.362  0.00  0.00    +0.000 OA
ATOM      4  N   UNL     1       4.682   3.237  18.907  0.00  0.00    +0.000 N 
ATOM      5  H   UNL     1       6.592   3.539  17.338  0.00  0.00    +0.000 HD
ATOM      6  H   UNL     1       5.228   2.384  18.894  0.00  0.00    +0.000 HD
ENDROOT
BRANCH   4   7
ATOM      7  C   UNL     1       3.476   3.160  19.647  0.00  0.00    +0.000 A 
ATOM      8  C   UNL     1       3.441   2.649  20.945  0.00  0.00    +0.000 A 
ATOM      9  C   UNL     1       2.230   2.569  21.646  0.00  0.00    +0.000 A 
ATOM     10  C   UNL     1       1.044   2.984  21.041  0.00  0.00    +0.000 A 
ATOM     11  C   UNL     1       1.067   3.505  19.749  0.00  0.00    +0.000 A 
ATOM     12  C   UNL     1       2.281   3.608  19.061  0.00  0.00    +0.000 A 
ATOM     13 CL   UNL     1       2.261   4.232  17.446  0.00  0.00    +0.000 Cl
ENDBRANCH   4   7
BRANCH   1  14
ATOM     14  O   UNL     1       7.430   5.326  18.010  0.00  0.00    +0.000 OA
BRANCH  14  15
ATOM     15  C   UNL     1       7.133   6.021  16.801  0.00  0.00    +0.000 C 
BRANCH  15  17
ATOM     16  C   UNL     1       5.999   5.028  14.787  0.00  0.00    +0.000 C 
ATOM     17  C   UNL     1       6.953   4.996  15.727  0.00  0.00    +0.000 C 
ENDBRANCH  15  17
ENDBRANCH  14  15
ENDBRANCH   1  14
TORSDOF 4
ENDMDL
MODEL 6
REMARK VINA RESULT:      -6.4      1.123      1.200
REMARK  Name = 
REMARK  4 active torsions:
REMARK  status: ('A' for Active; 'I' for Inactive)
REMARK    1  A    between atoms: C_2  and  C_3
REMARK    2  A    between atoms: C_3  and  O_4
REMARK    3  A    between atoms: O_4  and  N_5
REMARK    4  A    between atoms: N_8  and  C_9
REMARK                            x       y       z     vdW  Elec       q    Type
REMARK                         _______ _______ _______ _____ _____    ______ ____
ROOT
ATOM      1  N   UNL     1       6.697   4.707  19.226  0.00  0.00    +0.000 N 
ATOM      2  C   UNL     1       5.320   4.763  19.318  0.00  0.00    +0.000 C 
ATOM      3  O   UNL     1       4.669   5.805  19.355  0.00  0.00    +0.000 OA
ATOM      4  N   UNL     1       4.775   3.493  19.434  0.00  0.00    +0.000 N 
ATOM      5  H   UNL     1       7.115   3.944  18.710  0.00  0.00    +0.000 HD
ATOM      6  H   UNL     1       5.388   2.825  19.886  0.00  0.00    +0.000 HD
ENDROOT
BRANCH   4   7
ATOM      7  C   UNL     1       3.392   3.263  19.638  0.00  0.00    +0.000 A 
ATOM      8  C   UNL     1       2.858   3.076  20.914  0.00  0.00    +0.000 A 
ATOM      9  C   UNL     1       1.489   2.833  21.084  0.00  0.00    +0.000 A 
ATOM     10  C   UNL     1       0.650   2.759  19.973  0.00  0.00    +0.000 A 
ATOM     11  C   UNL     1       1.168   2.954  18.694  0.00  0.00    +0.000 A 
ATOM     12  C   UNL     1       2.532   3.222  18.529  0.00  0.00    +0.000 A 
ATOM     13 CL   UNL     1       3.141   3.426  16.922  0.00  0.00    +0.000 Cl
ENDBRANCH   4   7
BRANCH   1  14
ATOM     14  O   UNL     1       7.303   5.986  19.091  0.00  0.00    +0.000 OA
BRANCH  14  15
ATOM     15  C   UNL     1       7.598   6.257  17.724  0.00  0.00    +0.000 C 
BRANCH  15  17
ATOM     16  C   UNL     1       8.194   8.689  17.966  0.00  0.00    +0.000 C 
ATOM     17  C   UNL     1       7.391   7.722  17.503  0.00  0.00    +0.000 C 
ENDBRANCH  15  17
ENDBRANCH  14  15
ENDBRANCH   1  14
TORSDOF 4
ENDMDL
MODEL 7
REMARK VINA RESULT:      -6.4      2.059      5.715
REMARK  Name = 
REMARK  4 active torsions:
REMARK  status: ('A' for Active; 'I' for Inactive)
REMARK    1  A    between atoms: C_2  and  C_3
REMARK    2  A    between atoms: C_3  and  O_4
REMARK    3  A    between atoms: O_4  and  N_5
REMARK    4  A    between atoms: N_8  and  C_9
REMARK                            x       y       z     vdW  Elec       q    Type
REMARK                         _______ _______ _______ _____ _____    ______ ____
ROOT
ATOM      1  N   UNL     1       4.371   2.551  18.656  0.00  0.00    +0.000 N 
ATOM      2  C   UNL     1       4.870   3.821  18.875  0.00  0.00    +0.000 C 
ATOM      3  O   UNL     1       4.329   4.665  19.586  0.00  0.00    +0.000 OA
ATOM      4  N   UNL     1       6.020   4.040  18.131  0.00  0.00    +0.000 N 
ATOM      5  H   UNL     1       5.026   1.792  18.529  0.00  0.00    +0.000 HD
ATOM      6  H   UNL     1       6.054   3.514  17.267  0.00  0.00    +0.000 HD
ENDROOT
BRANCH   4   7
ATOM      7  C   UNL     1       6.686   5.290  18.094  0.00  0.00    +0.000 A 
ATOM      8  C   UNL     1       7.708   5.606  18.990  0.00  0.00    +0.000 A 
ATOM      9  C   UNL     1       8.337   6.857  18.941  0.00  0.00    +0.000 A 
ATOM     10  C   UNL     1       7.931   7.806  18.004  0.00  0.00    +0.000 A 
ATOM     11  C   UNL     1       6.918   7.500  17.096  0.00  0.00    +0.000 A 
ATOM     12  C   UNL     1       6.310   6.240  17.131  0.00  0.00    +0.000 A 
ATOM     13 CL   UNL     1       5.034   5.912  16.007  0.00  0.00    +0.000 Cl
ENDBRANCH   4   7
BRANCH   1  14
ATOM     14  O   UNL     1       3.196   2.272  19.408  0.00  0.00    +0.000 OA
BRANCH  14  15
ATOM     15  C   UNL     1       2.084   2.071  18.539  0.00  0.00    +0.000 C 
BRANCH  15  17
ATOM     16  C   UNL     1       1.402   4.327  17.660  0.00  0.00    +0.000 C 
ATOM     17  C   UNL     1       1.277   3.330  18.546  0.00  0.00    +0.000 C 
ENDBRANCH  15  17
ENDBRANCH  14  15
ENDBRANCH   1  14
TORSDOF 4
ENDMDL
MODEL 8
REMARK VINA RESULT:      -6.4      1.634      1.704
REMARK  Name = 
REMARK  4 active torsions:
REMARK  status: ('A' for Active; 'I' for Inactive)
REMARK    1  A    between atoms: C_2  and  C_3
REMARK    2  A    between atoms: C_3  and  O_4
REMARK    3  A    between atoms: O_4  and  N_5
REMARK    4  A    between atoms: N_8  and  C_9
REMARK                            x       y       z     vdW  Elec       q    Type
REMARK                         _______ _______ _______ _____ _____    ______ ____
ROOT
ATOM      1  N   UNL     1       6.046   5.564  17.340  0.00  0.00    +0.000 N 
ATOM      2  C   UNL     1       5.233   4.801  18.156  0.00  0.00    +0.000 C 
ATOM      3  O   UNL     1       5.643   4.054  19.041  0.00  0.00    +0.000 OA
ATOM      4  N   UNL     1       3.900   4.935  17.796  0.00  0.00    +0.000 N 
ATOM      5  H   UNL     1       5.709   6.465  17.031  0.00  0.00    +0.000 HD
ATOM      6  H   UNL     1       3.760   5.135  16.814  0.00  0.00    +0.000 HD
ENDROOT
BRANCH   4   7
ATOM      7  C   UNL     1       2.860   4.191  18.406  0.00  0.00    +0.000 A 
ATOM      8  C   UNL     1       2.546   2.893  17.997  0.00  0.00    +0.000 A 
ATOM      9  C   UNL     1       1.500   2.188  18.606  0.00  0.00    +0.000 A 
ATOM     10  C   UNL     1       0.750   2.787  19.617  0.00  0.00    +0.000 A 
ATOM     11  C   UNL     1       1.059   4.078  20.042  0.00  0.00    +0.000 A 
ATOM     12  C   UNL     1       2.121   4.770  19.449  0.00  0.00    +0.000 A 
ATOM     13 CL   UNL     1       2.451   6.384  19.985  0.00  0.00    +0.000 Cl
ENDBRANCH   4   7
BRANCH   1  14
ATOM     14  O   UNL     1       7.425   5.471  17.678  0.00  0.00    +0.000 OA
BRANCH  14  15
ATOM     15  C   UNL     1       7.819   6.584  18.476  0.00  0.00    +0.000 C 
BRANCH  15  17
ATOM     16  C   UNL     1       8.213   9.012  17.946  0.00  0.00    +0.000 C 
ATOM     17  C   UNL     1       7.735   7.805  17.615  0.00  0.00    +0.000 C 
ENDBRANCH  15  17
ENDBRANCH  14  15
ENDBRANCH   1  14
TORSDOF 4
ENDMDL
MODEL 9
REMARK VINA RESULT:      -6.4      1.370      1.400
REMARK  Name = 
REMARK  4 active torsions:
REMARK  status: ('A' for Active; 'I' for Inactive)
REMARK    1  A    between atoms: C_2  and  C_3
REMARK    2  A    between atoms: C_3  and  O_4
REMARK    3  A    between atoms: O_4  and  N_5
REMARK    4  A    between atoms: N_8  and  C_9
REMARK                            x       y       z     vdW  Elec       q    Type
REMARK                         _______ _______ _______ _____ _____    ______ ____
ROOT
ATOM      1  N   UNL     1       5.912   6.036  18.089  0.00  0.00    +0.000 N 
ATOM      2  C   UNL     1       5.240   5.046  18.779  0.00  0.00    +0.000 C 
ATOM      3  O   UNL     1       5.760   4.010  19.187  0.00  0.00    +0.000 OA
ATOM      4  N   UNL     1       3.889   5.341  18.886  0.00  0.00    +0.000 N 
ATOM      5  H   UNL     1       5.629   6.996  18.227  0.00  0.00    +0.000 HD
ATOM      6  H   UNL     1       3.531   5.900  18.121  0.00  0.00    +0.000 HD
ENDROOT
BRANCH   4   7
ATOM      7  C   UNL     1       2.950   4.452  19.464  0.00  0.00    +0.000 A 
ATOM      8  C   UNL     1       2.627   4.503  20.821  0.00  0.00    +0.000 A 
ATOM      9  C   UNL     1       1.708   3.598  21.368  0.00  0.00    +0.000 A 
ATOM     10  C   UNL     1       1.119   2.626  20.561  0.00  0.00    +0.000 A 
ATOM     11  C   UNL     1       1.425   2.570  19.202  0.00  0.00    +0.000 A 
ATOM     12  C   UNL     1       2.324   3.491  18.653  0.00  0.00    +0.000 A 
ATOM     13 CL   UNL     1       2.700   3.368  16.967  0.00  0.00    +0.000 Cl
ENDBRANCH   4   7
BRANCH   1  14
ATOM     14  O   UNL     1       7.306   5.785  17.964  0.00  0.00    +0.000 OA
BRANCH  14  15
ATOM     15  C   UNL     1       8.059   6.843  18.552  0.00  0.00    +0.000 C 
BRANCH  15  17
ATOM     16  C   UNL     1       8.270   9.291  18.013  0.00  0.00    +0.000 C 
ATOM     17  C   UNL     1       7.889   8.049  17.685  0.00  0.00    +0.000 C 
ENDBRANCH  15  17
ENDBRANCH  14  15
ENDBRANCH   1  14
TORSDOF 4
ENDMDL
