MODEL 1
REMARK VINA RESULT:      -8.1      0.000      0.000
REMARK  Name = 
REMARK  9 active torsions:
REMARK  status: ('A' for Active; 'I' for Inactive)
REMARK    1  A    between atoms: C_1  and  C_2
REMARK    2  A    between atoms: C_9  and  C_10
REMARK    3  A    between atoms: C_10  and  S_11
REMARK    4  A    between atoms: S_11  and  C_12
REMARK    5  A    between atoms: C_15  and  C_16
REMARK    6  A    between atoms: N_17  and  N_18
REMARK    7  A    between atoms: C_21  and  C_22
REMARK    8  A    between atoms: C_22  and  C_23
REMARK    9  A    between atoms: C_22  and  C_24
REMARK                            x       y       z     vdW  Elec       q    Type
REMARK                         _______ _______ _______ _____ _____    ______ ____
ROOT
ATOM      1  C   UNL     1       7.451   4.580  11.351  0.00  0.00    +0.000 C 
ATOM      2  C   UNL     1       6.917   4.430  12.752  0.00  0.00    +0.000 A 
ATOM      3  C   UNL     1       7.458   5.243  13.758  0.00  0.00    +0.000 A 
ATOM      4  C   UNL     1       6.991   5.150  15.073  0.00  0.00    +0.000 A 
ATOM      5  O   UNL     1       7.609   6.005  16.005  0.00  0.00    +0.000 OA
ATOM      6  C   UNL     1       7.227   5.992  17.332  0.00  0.00    +0.000 A 
ATOM      7  O   UNL     1       7.753   6.712  18.175  0.00  0.00    +0.000 OA
ATOM      8  C   UNL     1       6.124   5.091  17.700  0.00  0.00    +0.000 A 
ATOM      9  C   UNL     1       5.513   4.256  16.842  0.00  0.00    +0.000 A 
ATOM     10  C   UNL     1       5.984   4.264  15.442  0.00  0.00    +0.000 A 
ATOM     11  C   UNL     1       5.462   3.443  14.435  0.00  0.00    +0.000 A 
ATOM     12  C   UNL     1       5.898   3.511  13.089  0.00  0.00    +0.000 A 
ENDROOT
BRANCH  12  13
ATOM     13  C   UNL     1       5.282   2.576  12.044  0.00  0.00    +0.000 C 
ATOM     14  C   UNL     1       4.301   3.336  11.148  0.00  0.00    +0.000 C 
ATOM     15  C   UNL     1       6.319   1.846  11.178  0.00  0.00    +0.000 C 
ENDBRANCH  12  13
BRANCH   9  16
ATOM     16  C   UNL     1       4.298   3.466  17.285  0.00  0.00    +0.000 C 
BRANCH  16  17
ATOM     17  S   UNL     1       2.824   4.508  17.532  0.00  0.00    +0.000 S 
BRANCH  17  18
ATOM     18  C   UNL     1       2.556   4.251  19.228  0.00  0.00    +0.000 A 
ATOM     19  N   UNL     1       2.706   5.134  20.190  0.00  0.00    +0.000 NA
ATOM     20  N   UNL     1       2.291   4.547  21.367  0.00  0.00    +0.000 NA
ATOM     21  C   UNL     1       1.889   3.319  21.095  0.00  0.00    +0.000 A 
ATOM     22  C   UNL     1       1.273   2.360  22.039  0.00  0.00    +0.000 C 
ATOM     23  N   UNL     1       2.086   3.071  19.757  0.00  0.00    +0.000 N 
BRANCH  23  24
ATOM     24  N   UNL     1       1.800   1.845  19.072  0.00  0.00    +0.000 N 
ATOM     25  H   UNL     1       1.485   1.119  19.709  0.00  0.00    +0.000 HD
ATOM     26  H   UNL     1       1.045   1.977  18.398  0.00  0.00    +0.000 HD
ENDBRANCH  23  24
ENDBRANCH  17  18
ENDBRANCH  16  17
ENDBRANCH   9  16
TORSDOF 5
ENDMDL
MODEL 2
REMARK VINA RESULT:      -8.0      3.887      7.309
REMARK  Name = 
REMARK  9 active torsions:
REMARK  status: ('A' for Active; 'I' for Inactive)
REMARK    1  A    between atoms: C_1  and  C_2
REMARK    2  A    between atoms: C_9  and  C_10
REMARK    3  A    between atoms: C_10  and  S_11
REMARK    4  A    between atoms: S_11  and  C_12
REMARK    5  A    between atoms: C_15  and  C_16
REMARK    6  A    between atoms: N_17  and  N_18
REMARK    7  A    between atoms: C_21  and  C_22
REMARK    8  A    between atoms: C_22  and  C_23
REMARK    9  A    between atoms: C_22  and  C_24
REMARK                            x       y       z     vdW  Elec       q    Type
REMARK                         _______ _______ _______ _____ _____    ______ ____
ROOT
ATOM      1  C   UNL     1       1.445   2.783  21.744  0.00  0.00    +0.000 C 
ATOM      2  C   UNL     1       1.897   3.845  20.775  0.00  0.00    +0.000 A 
ATOM      3  C   UNL     1       1.430   5.154  20.960  0.00  0.00    +0.000 A 
ATOM      4  C   UNL     1       1.825   6.178  20.095  0.00  0.00    +0.000 A 
ATOM      5  O   UNL     1       1.291   7.451  20.365  0.00  0.00    +0.000 OA
ATOM      6  C   UNL     1       1.613   8.533  19.570  0.00  0.00    +0.000 A 
ATOM      7  O   UNL     1       1.154   9.654  19.768  0.00  0.00    +0.000 OA
ATOM      8  C   UNL     1       2.569   8.297  18.478  0.00  0.00    +0.000 A 
ATOM      9  C   UNL     1       3.097   7.096  18.183  0.00  0.00    +0.000 A 
ATOM     10  C   UNL     1       2.689   5.955  19.026  0.00  0.00    +0.000 A 
ATOM     11  C   UNL     1       3.136   4.642  18.838  0.00  0.00    +0.000 A 
ATOM     12  C   UNL     1       2.769   3.576  19.696  0.00  0.00    +0.000 A 
ENDROOT
BRANCH  12  13
ATOM     13  C   UNL     1       3.296   2.165  19.422  0.00  0.00    +0.000 C 
ATOM     14  C   UNL     1       3.370   1.895  17.918  0.00  0.00    +0.000 C 
ATOM     15  C   UNL     1       4.657   1.875  20.070  0.00  0.00    +0.000 C 
ENDBRANCH  12  13
BRANCH   9  16
ATOM     16  C   UNL     1       4.175   6.980  17.125  0.00  0.00    +0.000 C 
BRANCH  16  17
ATOM     17  S   UNL     1       5.655   6.096  17.714  0.00  0.00    +0.000 S 
BRANCH  17  18
ATOM     18  C   UNL     1       6.359   5.644  16.192  0.00  0.00    +0.000 A 
ATOM     19  N   UNL     1       7.544   5.990  15.740  0.00  0.00    +0.000 NA
ATOM     20  N   UNL     1       7.745   5.334  14.544  0.00  0.00    +0.000 NA
ATOM     21  C   UNL     1       6.680   4.594  14.296  0.00  0.00    +0.000 A 
ATOM     22  C   UNL     1       6.501   3.649  13.172  0.00  0.00    +0.000 C 
ATOM     23  N   UNL     1       5.754   4.798  15.292  0.00  0.00    +0.000 N 
BRANCH  23  24
ATOM     24  N   UNL     1       4.454   4.198  15.375  0.00  0.00    +0.000 N 
ATOM     25  H   UNL     1       4.076   4.243  16.317  0.00  0.00    +0.000 HD
ATOM     26  H   UNL     1       3.791   4.695  14.780  0.00  0.00    +0.000 HD
ENDBRANCH  23  24
ENDBRANCH  17  18
ENDBRANCH  16  17
ENDBRANCH   9  16
TORSDOF 5
ENDMDL
MODEL 3
REMARK VINA RESULT:      -8.0      1.194      1.429
REMARK  Name = 
REMARK  9 active torsions:
REMARK  status: ('A' for Active; 'I' for Inactive)
REMARK    1  A    between atoms: C_1  and  C_2
REMARK    2  A    between atoms: C_9  and  C_10
REMARK    3  A    between atoms: C_10  and  S_11
REMARK    4  A    between atoms: S_11  and  C_12
REMARK    5  A    between atoms: C_15  and  C_16
REMARK    6  A    between atoms: N_17  and  N_18
REMARK    7  A    between atoms: C_21  and  C_22
REMARK    8  A    between atoms: C_22  and  C_23
REMARK    9  A    between atoms: C_22  and  C_24
REMARK                            x       y       z     vdW  Elec       q    Type
REMARK                         _______ _______ _______ _____ _____    ______ ____
ROOT
ATOM      1  C   UNL     1       7.772   4.850  11.327  0.00  0.00    +0.000 C 
ATOM      2  C   UNL     1       7.078   4.658  12.651  0.00  0.00    +0.000 A 
ATOM      3  C   UNL     1       7.619   5.288  13.780  0.00  0.00    +0.000 A 
ATOM      4  C   UNL     1       7.009   5.150  15.031  0.00  0.00    +0.000 A 
ATOM      5  O   UNL     1       7.639   5.816  16.099  0.00  0.00    +0.000 OA
ATOM      6  C   UNL     1       7.122   5.742  17.377  0.00  0.00    +0.000 A 
ATOM      7  O   UNL     1       7.653   6.298  18.334  0.00  0.00    +0.000 OA
ATOM      8  C   UNL     1       5.872   4.987  17.549  0.00  0.00    +0.000 A 
ATOM      9  C   UNL     1       5.243   4.332  16.557  0.00  0.00    +0.000 A 
ATOM     10  C   UNL     1       5.855   4.394  15.214  0.00  0.00    +0.000 A 
ATOM     11  C   UNL     1       5.331   3.754  14.084  0.00  0.00    +0.000 A 
ATOM     12  C   UNL     1       5.911   3.875  12.798  0.00  0.00    +0.000 A 
ENDROOT
BRANCH  12  13
ATOM     13  C   UNL     1       5.283   3.140  11.610  0.00  0.00    +0.000 C 
ATOM     14  C   UNL     1       5.735   1.678  11.576  0.00  0.00    +0.000 C 
ATOM     15  C   UNL     1       3.750   3.212  11.577  0.00  0.00    +0.000 C 
ENDBRANCH  12  13
BRANCH   9  16
ATOM     16  C   UNL     1       3.890   3.696  16.804  0.00  0.00    +0.000 C 
BRANCH  16  17
ATOM     17  S   UNL     1       4.010   1.964  17.356  0.00  0.00    +0.000 S 
BRANCH  17  18
ATOM     18  C   UNL     1       3.611   2.157  19.035  0.00  0.00    +0.000 A 
ATOM     19  N   UNL     1       4.451   2.358  20.024  0.00  0.00    +0.000 NA
ATOM     20  N   UNL     1       3.712   2.557  21.171  0.00  0.00    +0.000 NA
ATOM     21  C   UNL     1       2.432   2.480  20.853  0.00  0.00    +0.000 A 
ATOM     22  C   UNL     1       1.281   2.728  21.749  0.00  0.00    +0.000 C 
ATOM     23  N   UNL     1       2.322   2.179  19.516  0.00  0.00    +0.000 N 
BRANCH  23  24
ATOM     24  N   UNL     1       1.102   1.986  18.789  0.00  0.00    +0.000 N 
ATOM     25  H   UNL     1       1.129   2.432  17.876  0.00  0.00    +0.000 HD
ATOM     26  H   UNL     1       0.942   0.993  18.612  0.00  0.00    +0.000 HD
ENDBRANCH  23  24
ENDBRANCH  17  18
ENDBRANCH  16  17
ENDBRANCH   9  16
TORSDOF 5
ENDMDL
MODEL 4
REMARK VINA RESULT:      -8.0      0.798      1.568
REMARK  Name = 
REMARK  9 active torsions:
REMARK  status: ('A' for Active; 'I' for Inactive)
REMARK    1  A    between atoms: C_1  and  C_2
REMARK    2  A    between atoms: C_9  and  C_10
REMARK    3  A    between atoms: C_10  and  S_11
REMARK    4  A    between atoms: S_11  and  C_12
REMARK    5  A    between atoms: C_15  and  C_16
REMARK    6  A    between atoms: N_17  and  N_18
REMARK    7  A    between atoms: C_21  and  C_22
REMARK    8  A    between atoms: C_22  and  C_23
REMARK    9  A    between atoms: C_22  and  C_24
REMARK                            x       y       z     vdW  Elec       q    Type
REMARK                         _______ _______ _______ _____ _____    ______ ____
ROOT
ATOM      1  C   UNL     1       7.867   5.281  11.775  0.00  0.00    +0.000 C 
ATOM      2  C   UNL     1       7.181   4.870  13.052  0.00  0.00    +0.000 A 
ATOM      3  C   UNL     1       7.647   5.412  14.258  0.00  0.00    +0.000 A 
ATOM      4  C   UNL     1       7.040   5.071  15.471  0.00  0.00    +0.000 A 
ATOM      5  O   UNL     1       7.590   5.664  16.622  0.00  0.00    +0.000 OA
ATOM      6  C   UNL     1       7.070   5.393  17.871  0.00  0.00    +0.000 A 
ATOM      7  O   UNL     1       7.534   5.881  18.897  0.00  0.00    +0.000 OA
ATOM      8  C   UNL     1       5.897   4.508  17.927  0.00  0.00    +0.000 A 
ATOM      9  C   UNL     1       5.345   3.916  16.853  0.00  0.00    +0.000 A 
ATOM     10  C   UNL     1       5.963   4.192  15.540  0.00  0.00    +0.000 A 
ATOM     11  C   UNL     1       5.516   3.642  14.333  0.00  0.00    +0.000 A 
ATOM     12  C   UNL     1       6.095   3.967  13.082  0.00  0.00    +0.000 A 
ENDROOT
BRANCH  12  13
ATOM     13  C   UNL     1       5.554   3.320  11.804  0.00  0.00    +0.000 C 
ATOM     14  C   UNL     1       6.049   1.877  11.675  0.00  0.00    +0.000 C 
ATOM     15  C   UNL     1       4.023   3.356  11.690  0.00  0.00    +0.000 C 
ENDBRANCH  12  13
BRANCH   9  16
ATOM     16  C   UNL     1       4.058   3.130  16.996  0.00  0.00    +0.000 C 
BRANCH  16  17
ATOM     17  S   UNL     1       2.580   4.192  17.065  0.00  0.00    +0.000 S 
BRANCH  17  18
ATOM     18  C   UNL     1       1.749   3.463  18.404  0.00  0.00    +0.000 A 
ATOM     19  N   UNL     1       0.769   2.591  18.339  0.00  0.00    +0.000 NA
ATOM     20  N   UNL     1       0.472   2.196  19.626  0.00  0.00    +0.000 NA
ATOM     21  C   UNL     1       1.286   2.831  20.450  0.00  0.00    +0.000 A 
ATOM     22  C   UNL     1       1.391   2.641  21.913  0.00  0.00    +0.000 C 
ATOM     23  N   UNL     1       2.082   3.683  19.720  0.00  0.00    +0.000 N 
BRANCH  23  24
ATOM     24  N   UNL     1       3.080   4.567  20.246  0.00  0.00    +0.000 N 
ATOM     25  H   UNL     1       4.001   4.371  19.863  0.00  0.00    +0.000 HD
ATOM     26  H   UNL     1       2.871   5.534  19.996  0.00  0.00    +0.000 HD
ENDBRANCH  23  24
ENDBRANCH  17  18
ENDBRANCH  16  17
ENDBRANCH   9  16
TORSDOF 5
ENDMDL
MODEL 5
REMARK VINA RESULT:      -7.8      4.366      6.343
REMARK  Name = 
REMARK  9 active torsions:
REMARK  status: ('A' for Active; 'I' for Inactive)
REMARK    1  A    between atoms: C_1  and  C_2
REMARK    2  A    between atoms: C_9  and  C_10
REMARK    3  A    between atoms: C_10  and  S_11
REMARK    4  A    between atoms: S_11  and  C_12
REMARK    5  A    between atoms: C_15  and  C_16
REMARK    6  A    between atoms: N_17  and  N_18
REMARK    7  A    between atoms: C_21  and  C_22
REMARK    8  A    between atoms: C_22  and  C_23
REMARK    9  A    between atoms: C_22  and  C_24
REMARK                            x       y       z     vdW  Elec       q    Type
REMARK                         _______ _______ _______ _____ _____    ______ ____
ROOT
ATOM      1  C   UNL     1       4.654   1.624  20.048  0.00  0.00    +0.000 C 
ATOM      2  C   UNL     1       4.288   2.978  19.500  0.00  0.00    +0.000 A 
ATOM      3  C   UNL     1       5.303   3.758  18.927  0.00  0.00    +0.000 A 
ATOM      4  C   UNL     1       5.015   5.019  18.396  0.00  0.00    +0.000 A 
ATOM      5  O   UNL     1       6.107   5.721  17.854  0.00  0.00    +0.000 OA
ATOM      6  C   UNL     1       5.935   6.977  17.306  0.00  0.00    +0.000 A 
ATOM      7  O   UNL     1       6.867   7.624  16.838  0.00  0.00    +0.000 OA
ATOM      8  C   UNL     1       4.565   7.508  17.274  0.00  0.00    +0.000 A 
ATOM      9  C   UNL     1       3.496   6.873  17.786  0.00  0.00    +0.000 A 
ATOM     10  C   UNL     1       3.730   5.554  18.407  0.00  0.00    +0.000 A 
ATOM     11  C   UNL     1       2.726   4.776  18.997  0.00  0.00    +0.000 A 
ATOM     12  C   UNL     1       2.971   3.490  19.538  0.00  0.00    +0.000 A 
ENDROOT
BRANCH  12  13
ATOM     13  C   UNL     1       1.822   2.701  20.171  0.00  0.00    +0.000 C 
ATOM     14  C   UNL     1       1.588   3.149  21.616  0.00  0.00    +0.000 C 
ATOM     15  C   UNL     1       0.507   2.780  19.383  0.00  0.00    +0.000 C 
ENDBRANCH  12  13
BRANCH   9  16
ATOM     16  C   UNL     1       2.105   7.440  17.584  0.00  0.00    +0.000 C 
BRANCH  16  17
ATOM     17  S   UNL     1       1.986   9.203  18.029  0.00  0.00    +0.000 S 
BRANCH  17  18
ATOM     18  C   UNL     1       1.328   9.063  19.630  0.00  0.00    +0.000 A 
ATOM     19  N   UNL     1       1.612   8.138  20.518  0.00  0.00    +0.000 NA
ATOM     20  N   UNL     1       0.950   8.457  21.685  0.00  0.00    +0.000 NA
ATOM     21  C   UNL     1       0.282   9.578  21.484  0.00  0.00    +0.000 A 
ATOM     22  C   UNL     1      -0.490  10.341  22.491  0.00  0.00    +0.000 C 
ATOM     23  N   UNL     1       0.453   9.972  20.178  0.00  0.00    +0.000 N 
BRANCH  23  24
ATOM     24  N   UNL     1      -0.129  11.126  19.558  0.00  0.00    +0.000 N 
ATOM     25  H   UNL     1      -1.034  11.355  19.958  0.00  0.00    +0.000 HD
ATOM     26  H   UNL     1       0.460  11.947  19.703  0.00  0.00    +0.000 HD
ENDBRANCH  23  24
ENDBRANCH  17  18
ENDBRANCH  16  17
ENDBRANCH   9  16
TORSDOF 5
ENDMDL
MODEL 6
REMARK VINA RESULT:      -7.7      1.402      1.832
REMARK  Name = 
REMARK  9 active torsions:
REMARK  status: ('A' for Active; 'I' for Inactive)
REMARK    1  A    between atoms: C_1  and  C_2
REMARK    2  A    between atoms: C_9  and  C_10
REMARK    3  A    between atoms: C_10  and  S_11
REMARK    4  A    between atoms: S_11  and  C_12
REMARK    5  A    between atoms: C_15  and  C_16
REMARK    6  A    between atoms: N_17  and  N_18
REMARK    7  A    between atoms: C_21  and  C_22
REMARK    8  A    between atoms: C_22  and  C_23
REMARK    9  A    between atoms: C_22  and  C_24
REMARK                            x       y       z     vdW  Elec       q    Type
REMARK                         _______ _______ _______ _____ _____    ______ ____
ROOT
ATOM      1  C   UNL     1       8.133   5.338  12.630  0.00  0.00    +0.000 C 
ATOM      2  C   UNL     1       7.244   4.871  13.754  0.00  0.00    +0.000 A 
ATOM      3  C   UNL     1       7.565   5.267  15.060  0.00  0.00    +0.000 A 
ATOM      4  C   UNL     1       6.769   4.869  16.138  0.00  0.00    +0.000 A 
ATOM      5  O   UNL     1       7.185   5.314  17.407  0.00  0.00    +0.000 OA
ATOM      6  C   UNL     1       6.473   4.975  18.540  0.00  0.00    +0.000 A 
ATOM      7  O   UNL     1       6.815   5.333  19.663  0.00  0.00    +0.000 OA
ATOM      8  C   UNL     1       5.250   4.183  18.347  0.00  0.00    +0.000 A 
ATOM      9  C   UNL     1       4.821   3.734  17.154  0.00  0.00    +0.000 A 
ATOM     10  C   UNL     1       5.638   4.075  15.972  0.00  0.00    +0.000 A 
ATOM     11  C   UNL     1       5.335   3.670  14.667  0.00  0.00    +0.000 A 
ATOM     12  C   UNL     1       6.108   4.058  13.546  0.00  0.00    +0.000 A 
ENDROOT
BRANCH  12  13
ATOM     13  C   UNL     1       5.716   3.570  12.148  0.00  0.00    +0.000 C 
ATOM     14  C   UNL     1       6.361   2.215  11.845  0.00  0.00    +0.000 C 
ATOM     15  C   UNL     1       4.200   3.486  11.923  0.00  0.00    +0.000 C 
ENDBRANCH  12  13
BRANCH   9  16
ATOM     16  C   UNL     1       3.478   3.041  17.041  0.00  0.00    +0.000 C 
BRANCH  16  17
ATOM     17  S   UNL     1       3.186   1.836  18.376  0.00  0.00    +0.000 S 
BRANCH  17  18
ATOM     18  C   UNL     1       2.648   2.907  19.633  0.00  0.00    +0.000 A 
ATOM     19  N   UNL     1       2.878   2.784  20.921  0.00  0.00    +0.000 NA
ATOM     20  N   UNL     1       2.363   3.899  21.547  0.00  0.00    +0.000 NA
ATOM     21  C   UNL     1       1.836   4.683  20.625  0.00  0.00    +0.000 A 
ATOM     22  C   UNL     1       1.259   6.030  20.831  0.00  0.00    +0.000 C 
ATOM     23  N   UNL     1       1.952   4.070  19.399  0.00  0.00    +0.000 N 
BRANCH  23  24
ATOM     24  N   UNL     1       1.481   4.584  18.147  0.00  0.00    +0.000 N 
ATOM     25  H   UNL     1       0.657   4.088  17.819  0.00  0.00    +0.000 HD
ATOM     26  H   UNL     1       1.203   5.562  18.241  0.00  0.00    +0.000 HD
ENDBRANCH  23  24
ENDBRANCH  17  18
ENDBRANCH  16  17
ENDBRANCH   9  16
TORSDOF 5
ENDMDL
MODEL 7
REMARK VINA RESULT:      -7.7      1.730      2.370
REMARK  Name = 
REMARK  9 active torsions:
REMARK  status: ('A' for Active; 'I' for Inactive)
REMARK    1  A    between atoms: C_1  and  C_2
REMARK    2  A    between atoms: C_9  and  C_10
REMARK    3  A    between atoms: C_10  and  S_11
REMARK    4  A    between atoms: S_11  and  C_12
REMARK    5  A    between atoms: C_15  and  C_16
REMARK    6  A    between atoms: N_17  and  N_18
REMARK    7  A    between atoms: C_21  and  C_22
REMARK    8  A    between atoms: C_22  and  C_23
REMARK    9  A    between atoms: C_22  and  C_24
REMARK                            x       y       z     vdW  Elec       q    Type
REMARK                         _______ _______ _______ _____ _____    ______ ____
ROOT
ATOM      1  C   UNL     1       8.158   5.385  12.689  0.00  0.00    +0.000 C 
ATOM      2  C   UNL     1       7.280   4.917  13.821  0.00  0.00    +0.000 A 
ATOM      3  C   UNL     1       7.616   5.307  15.125  0.00  0.00    +0.000 A 
ATOM      4  C   UNL     1       6.831   4.907  16.211  0.00  0.00    +0.000 A 
ATOM      5  O   UNL     1       7.262   5.346  17.476  0.00  0.00    +0.000 OA
ATOM      6  C   UNL     1       6.561   5.005  18.616  0.00  0.00    +0.000 A 
ATOM      7  O   UNL     1       6.917   5.358  19.736  0.00  0.00    +0.000 OA
ATOM      8  C   UNL     1       5.334   4.217  18.433  0.00  0.00    +0.000 A 
ATOM      9  C   UNL     1       4.891   3.773  17.244  0.00  0.00    +0.000 A 
ATOM     10  C   UNL     1       5.696   4.117  16.054  0.00  0.00    +0.000 A 
ATOM     11  C   UNL     1       5.378   3.717  14.750  0.00  0.00    +0.000 A 
ATOM     12  C   UNL     1       6.140   4.107  13.622  0.00  0.00    +0.000 A 
ENDROOT
BRANCH  12  13
ATOM     13  C   UNL     1       5.731   3.625  12.227  0.00  0.00    +0.000 C 
ATOM     14  C   UNL     1       6.437   2.313  11.878  0.00  0.00    +0.000 C 
ATOM     15  C   UNL     1       4.215   3.465  12.046  0.00  0.00    +0.000 C 
ENDBRANCH  12  13
BRANCH   9  16
ATOM     16  C   UNL     1       3.545   3.084  17.142  0.00  0.00    +0.000 C 
BRANCH  16  17
ATOM     17  S   UNL     1       2.572   3.198  18.678  0.00  0.00    +0.000 S 
BRANCH  17  18
ATOM     18  C   UNL     1       2.407   4.923  18.800  0.00  0.00    +0.000 A 
ATOM     19  N   UNL     1       2.304   5.774  17.805  0.00  0.00    +0.000 NA
ATOM     20  N   UNL     1       2.089   7.025  18.343  0.00  0.00    +0.000 NA
ATOM     21  C   UNL     1       2.056   6.907  19.658  0.00  0.00    +0.000 A 
ATOM     22  C   UNL     1       1.752   7.976  20.636  0.00  0.00    +0.000 C 
ATOM     23  N   UNL     1       2.302   5.597  19.995  0.00  0.00    +0.000 N 
BRANCH  23  24
ATOM     24  N   UNL     1       2.376   5.063  21.323  0.00  0.00    +0.000 N 
ATOM     25  H   UNL     1       1.479   4.706  21.639  0.00  0.00    +0.000 HD
ATOM     26  H   UNL     1       3.022   4.273  21.357  0.00  0.00    +0.000 HD
ENDBRANCH  23  24
ENDBRANCH  17  18
ENDBRANCH  16  17
ENDBRANCH   9  16
TORSDOF 5
ENDMDL
MODEL 8
REMARK VINA RESULT:      -7.7      4.439      6.850
REMARK  Name = 
REMARK  9 active torsions:
REMARK  status: ('A' for Active; 'I' for Inactive)
REMARK    1  A    between atoms: C_1  and  C_2
REMARK    2  A    between atoms: C_9  and  C_10
REMARK    3  A    between atoms: C_10  and  S_11
REMARK    4  A    between atoms: S_11  and  C_12
REMARK    5  A    between atoms: C_15  and  C_16
REMARK    6  A    between atoms: N_17  and  N_18
REMARK    7  A    between atoms: C_21  and  C_22
REMARK    8  A    between atoms: C_22  and  C_23
REMARK    9  A    between atoms: C_22  and  C_24
REMARK                            x       y       z     vdW  Elec       q    Type
REMARK                         _______ _______ _______ _____ _____    ______ ____
ROOT
ATOM      1  C   UNL     1       3.599   1.091  18.507  0.00  0.00    +0.000 C 
ATOM      2  C   UNL     1       3.485   2.592  18.448  0.00  0.00    +0.000 A 
ATOM      3  C   UNL     1       4.228   3.275  17.475  0.00  0.00    +0.000 A 
ATOM      4  C   UNL     1       4.153   4.667  17.371  0.00  0.00    +0.000 A 
ATOM      5  O   UNL     1       4.945   5.253  16.367  0.00  0.00    +0.000 OA
ATOM      6  C   UNL     1       4.948   6.621  16.181  0.00  0.00    +0.000 A 
ATOM      7  O   UNL     1       5.638   7.166  15.325  0.00  0.00    +0.000 OA
ATOM      8  C   UNL     1       4.055   7.413  17.039  0.00  0.00    +0.000 A 
ATOM      9  C   UNL     1       3.287   6.893  18.013  0.00  0.00    +0.000 A 
ATOM     10  C   UNL     1       3.350   5.431  18.213  0.00  0.00    +0.000 A 
ATOM     11  C   UNL     1       2.625   4.743  19.194  0.00  0.00    +0.000 A 
ATOM     12  C   UNL     1       2.665   3.333  19.327  0.00  0.00    +0.000 A 
ENDROOT
BRANCH  12  13
ATOM     13  C   UNL     1       1.847   2.652  20.428  0.00  0.00    +0.000 C 
ATOM     14  C   UNL     1       2.249   3.180  21.808  0.00  0.00    +0.000 C 
ATOM     15  C   UNL     1       0.329   2.782  20.243  0.00  0.00    +0.000 C 
ENDBRANCH  12  13
BRANCH   9  16
ATOM     16  C   UNL     1       2.299   7.772  18.753  0.00  0.00    +0.000 C 
BRANCH  16  17
ATOM     17  S   UNL     1       1.829   9.260  17.812  0.00  0.00    +0.000 S 
BRANCH  17  18
ATOM     18  C   UNL     1       0.742  10.000  18.946  0.00  0.00    +0.000 A 
ATOM     19  N   UNL     1       0.952  10.184  20.230  0.00  0.00    +0.000 NA
ATOM     20  N   UNL     1      -0.117  10.895  20.733  0.00  0.00    +0.000 NA
ATOM     21  C   UNL     1      -0.954  11.137  19.741  0.00  0.00    +0.000 A 
ATOM     22  C   UNL     1      -2.186  11.953  19.801  0.00  0.00    +0.000 C 
ATOM     23  N   UNL     1      -0.472  10.544  18.597  0.00  0.00    +0.000 N 
BRANCH  23  24
ATOM     24  N   UNL     1      -1.101  10.553  17.309  0.00  0.00    +0.000 N 
ATOM     25  H   UNL     1      -0.442  10.769  16.566  0.00  0.00    +0.000 HD
ATOM     26  H   UNL     1      -1.483   9.633  17.089  0.00  0.00    +0.000 HD
ENDBRANCH  23  24
ENDBRANCH  17  18
ENDBRANCH  16  17
ENDBRANCH   9  16
TORSDOF 5
ENDMDL
MODEL 9
REMARK VINA RESULT:      -7.6      4.294      6.205
REMARK  Name = 
REMARK  9 active torsions:
REMARK  status: ('A' for Active; 'I' for Inactive)
REMARK    1  A    between atoms: C_1  and  C_2
REMARK    2  A    between atoms: C_9  and  C_10
REMARK    3  A    between atoms: C_10  and  S_11
REMARK    4  A    between atoms: S_11  and  C_12
REMARK    5  A    between atoms: C_15  and  C_16
REMARK    6  A    between atoms: N_17  and  N_18
REMARK    7  A    between atoms: C_21  and  C_22
REMARK    8  A    between atoms: C_22  and  C_23
REMARK    9  A    between atoms: C_22  and  C_24
REMARK                            x       y       z     vdW  Elec       q    Type
REMARK                         _______ _______ _______ _____ _____    ______ ____
ROOT
ATOM      1  C   UNL     1       6.042   3.693  15.586  0.00  0.00    +0.000 C 
ATOM      2  C   UNL     1       5.042   4.149  16.617  0.00  0.00    +0.000 A 
ATOM      3  C   UNL     1       3.954   3.311  16.901  0.00  0.00    +0.000 A 
ATOM      4  C   UNL     1       3.002   3.682  17.855  0.00  0.00    +0.000 A 
ATOM      5  O   UNL     1       1.947   2.773  18.057  0.00  0.00    +0.000 OA
ATOM      6  C   UNL     1       0.951   3.043  18.973  0.00  0.00    +0.000 A 
ATOM      7  O   UNL     1       0.009   2.279  19.164  0.00  0.00    +0.000 OA
ATOM      8  C   UNL     1       1.078   4.284  19.750  0.00  0.00    +0.000 A 
ATOM      9  C   UNL     1       2.066   5.181  19.584  0.00  0.00    +0.000 A 
ATOM     10  C   UNL     1       3.085   4.880  18.559  0.00  0.00    +0.000 A 
ATOM     11  C   UNL     1       4.164   5.719  18.256  0.00  0.00    +0.000 A 
ATOM     12  C   UNL     1       5.156   5.378  17.304  0.00  0.00    +0.000 A 
ENDROOT
BRANCH  12  13
ATOM     13  C   UNL     1       6.305   6.351  17.023  0.00  0.00    +0.000 C 
ATOM     14  C   UNL     1       5.821   7.800  17.104  0.00  0.00    +0.000 C 
ATOM     15  C   UNL     1       7.520   6.156  17.941  0.00  0.00    +0.000 C 
ENDBRANCH  12  13
BRANCH   9  16
ATOM     16  C   UNL     1       2.185   6.363  20.525  0.00  0.00    +0.000 C 
BRANCH  16  17
ATOM     17  S   UNL     1       1.761   7.948  19.733  0.00  0.00    +0.000 S 
BRANCH  17  18
ATOM     18  C   UNL     1       1.113   8.801  21.099  0.00  0.00    +0.000 A 
ATOM     19  N   UNL     1       1.573   8.780  22.329  0.00  0.00    +0.000 NA
ATOM     20  N   UNL     1       0.830   9.673  23.072  0.00  0.00    +0.000 NA
ATOM     21  C   UNL     1      -0.064  10.227  22.274  0.00  0.00    +0.000 A 
ATOM     22  C   UNL     1      -1.008  11.313  22.621  0.00  0.00    +0.000 C 
ATOM     23  N   UNL     1       0.047   9.667  21.023  0.00  0.00    +0.000 N 
BRANCH  23  24
ATOM     24  N   UNL     1      -0.761   9.980  19.880  0.00  0.00    +0.000 N 
ATOM     25  H   UNL     1      -1.600   9.409  19.842  0.00  0.00    +0.000 HD
ATOM     26  H   UNL     1      -1.080  10.949  19.920  0.00  0.00    +0.000 HD
ENDBRANCH  23  24
ENDBRANCH  17  18
ENDBRANCH  16  17
ENDBRANCH   9  16
TORSDOF 5
ENDMDL
