MODEL 1
REMARK VINA RESULT:      -8.3      0.000      0.000
REMARK  Name = 
REMARK  7 active torsions:
REMARK  status: ('A' for Active; 'I' for Inactive)
REMARK    1  A    between atoms: C_1  and  C_2
REMARK    2  A    between atoms: C_2  and  O_3
REMARK    3  A    between atoms: O_3  and  C_4
REMARK    4  A    between atoms: C_9  and  N_10
REMARK    5  A    between atoms: C_13  and  C_14
REMARK    6  A    between atoms: C_18  and  C_20
REMARK    7  A    between atoms: C_27  and  C_28
REMARK                            x       y       z     vdW  Elec       q    Type
REMARK                         _______ _______ _______ _____ _____    ______ ____
ROOT
ATOM      1  N   UNL     1      -3.878  13.345  20.284  0.00  0.00    +0.000 N 
ATOM      2  C   UNL     1      -2.553  13.045  20.336  0.00  0.00    +0.000 A 
ATOM      3  N   UNL     1      -1.978  11.981  19.825  0.00  0.00    +0.000 NA
ATOM      4  C   UNL     1      -0.664  11.852  20.236  0.00  0.00    +0.000 A 
ATOM      5  C   UNL     1      -0.189  12.920  20.964  0.00  0.00    +0.000 A 
ATOM      6  S   UNL     1      -1.444  14.080  21.171  0.00  0.00    +0.000 S 
ATOM      7  H   UNL     1      -4.245  14.023  20.942  0.00  0.00    +0.000 HD
ENDROOT
BRANCH   4   8
ATOM      8  C   UNL     1       0.099  10.609  19.888  0.00  0.00    +0.000 A 
ATOM      9  S   UNL     1       0.602  10.105  18.322  0.00  0.00    +0.000 S 
ATOM     10  C   UNL     1       1.421   8.778  19.028  0.00  0.00    +0.000 A 
ATOM     11  N   UNL     1       2.145   7.965  18.189  0.00  0.00    +0.000 N 
ATOM     12  C   UNL     1       2.722   6.807  18.684  0.00  0.00    +0.000 C 
ATOM     13  O   UNL     1       2.540   6.335  19.806  0.00  0.00    +0.000 OA
ATOM     14  N   UNL     1       1.298   8.662  20.322  0.00  0.00    +0.000 NA
ATOM     15  C   UNL     1       0.555   9.704  20.833  0.00  0.00    +0.000 A 
ATOM     16  C   UNL     1       0.294   9.693  22.295  0.00  0.00    +0.000 C 
ATOM     17  H   UNL     1       2.282   8.282  17.243  0.00  0.00    +0.000 HD
BRANCH  12  18
ATOM     18  C   UNL     1       3.645   6.044  17.793  0.00  0.00    +0.000 A 
ATOM     19  C   UNL     1       4.535   6.796  17.004  0.00  0.00    +0.000 A 
ATOM     20  C   UNL     1       5.453   6.171  16.160  0.00  0.00    +0.000 A 
ATOM     21  C   UNL     1       5.493   4.782  16.101  0.00  0.00    +0.000 A 
ATOM     22  C   UNL     1       4.622   4.024  16.886  0.00  0.00    +0.000 A 
ATOM     23  C   UNL     1       3.700   4.647  17.735  0.00  0.00    +0.000 A 
ENDBRANCH  12  18
ENDBRANCH   4   8
BRANCH   1  29
ATOM     24  C   UNL     1      -5.879  11.950  20.587  0.00  0.00    +0.000 A 
ATOM     25  C   UNL     1      -6.873  11.117  20.047  0.00  0.00    +0.000 A 
ATOM     26  C   UNL     1      -6.850  10.764  18.699  0.00  0.00    +0.000 A 
ATOM     27  C   UNL     1      -5.868  11.285  17.869  0.00  0.00    +0.000 A 
ATOM     28  C   UNL     1      -4.925  12.175  18.385  0.00  0.00    +0.000 A 
ATOM     29  C   UNL     1      -4.895  12.515  19.746  0.00  0.00    +0.000 A 
BRANCH  24  30
ATOM     30  O   UNL     1      -5.783  12.239  21.932  0.00  0.00    +0.000 OA
BRANCH  30  32
ATOM     31  C   UNL     1      -7.571  12.474  23.528  0.00  0.00    +0.000 C 
ATOM     32  C   UNL     1      -6.777  13.147  22.424  0.00  0.00    +0.000 C 
ENDBRANCH  30  32
ENDBRANCH  24  30
ENDBRANCH   1  29
TORSDOF 5
ENDMDL
MODEL 2
REMARK VINA RESULT:      -7.7      1.163      2.517
REMARK  Name = 
REMARK  7 active torsions:
REMARK  status: ('A' for Active; 'I' for Inactive)
REMARK    1  A    between atoms: C_1  and  C_2
REMARK    2  A    between atoms: C_2  and  O_3
REMARK    3  A    between atoms: O_3  and  C_4
REMARK    4  A    between atoms: C_9  and  N_10
REMARK    5  A    between atoms: C_13  and  C_14
REMARK    6  A    between atoms: C_18  and  C_20
REMARK    7  A    between atoms: C_27  and  C_28
REMARK                            x       y       z     vdW  Elec       q    Type
REMARK                         _______ _______ _______ _____ _____    ______ ____
ROOT
ATOM      1  N   UNL     1      -3.981  13.220  20.101  0.00  0.00    +0.000 N 
ATOM      2  C   UNL     1      -2.645  12.985  20.015  0.00  0.00    +0.000 A 
ATOM      3  N   UNL     1      -2.078  11.876  19.599  0.00  0.00    +0.000 NA
ATOM      4  C   UNL     1      -0.716  11.867  19.837  0.00  0.00    +0.000 A 
ATOM      5  C   UNL     1      -0.215  13.056  20.317  0.00  0.00    +0.000 A 
ATOM      6  S   UNL     1      -1.501  14.184  20.516  0.00  0.00    +0.000 S 
ATOM      7  H   UNL     1      -4.299  13.982  20.692  0.00  0.00    +0.000 HD
ENDROOT
BRANCH   4   8
ATOM      8  C   UNL     1       0.069  10.615  19.583  0.00  0.00    +0.000 A 
ATOM      9  S   UNL     1       0.583  10.005  18.059  0.00  0.00    +0.000 S 
ATOM     10  C   UNL     1       1.423   8.748  18.862  0.00  0.00    +0.000 A 
ATOM     11  N   UNL     1       2.163   7.888  18.085  0.00  0.00    +0.000 N 
ATOM     12  C   UNL     1       2.759   6.780  18.666  0.00  0.00    +0.000 C 
ATOM     13  O   UNL     1       2.583   6.389  19.819  0.00  0.00    +0.000 OA
ATOM     14  N   UNL     1       1.300   8.727  20.160  0.00  0.00    +0.000 NA
ATOM     15  C   UNL     1       0.538   9.790  20.593  0.00  0.00    +0.000 A 
ATOM     16  C   UNL     1       0.276   9.883  22.051  0.00  0.00    +0.000 C 
ATOM     17  H   UNL     1       2.296   8.135  17.119  0.00  0.00    +0.000 HD
BRANCH  12  18
ATOM     18  C   UNL     1       3.696   5.969  17.834  0.00  0.00    +0.000 A 
ATOM     19  C   UNL     1       3.556   4.569  17.899  0.00  0.00    +0.000 A 
ATOM     20  C   UNL     1       4.368   3.728  17.139  0.00  0.00    +0.000 A 
ATOM     21  C   UNL     1       5.329   4.282  16.298  0.00  0.00    +0.000 A 
ATOM     22  C   UNL     1       5.472   5.668  16.217  0.00  0.00    +0.000 A 
ATOM     23  C   UNL     1       4.658   6.516  16.979  0.00  0.00    +0.000 A 
ENDBRANCH  12  18
ENDBRANCH   4   8
BRANCH   1  29
ATOM     24  C   UNL     1      -5.155  11.705  18.563  0.00  0.00    +0.000 A 
ATOM     25  C   UNL     1      -6.184  10.781  18.317  0.00  0.00    +0.000 A 
ATOM     26  C   UNL     1      -7.125  10.487  19.301  0.00  0.00    +0.000 A 
ATOM     27  C   UNL     1      -7.012  11.067  20.556  0.00  0.00    +0.000 A 
ATOM     28  C   UNL     1      -5.946  11.925  20.829  0.00  0.00    +0.000 A 
ATOM     29  C   UNL     1      -5.008  12.275  19.846  0.00  0.00    +0.000 A 
BRANCH  24  30
ATOM     30  O   UNL     1      -4.265  12.122  17.595  0.00  0.00    +0.000 OA
BRANCH  30  32
ATOM     31  C   UNL     1      -3.074  10.266  16.630  0.00  0.00    +0.000 C 
ATOM     32  C   UNL     1      -4.190  11.275  16.441  0.00  0.00    +0.000 C 
ENDBRANCH  30  32
ENDBRANCH  24  30
ENDBRANCH   1  29
TORSDOF 5
ENDMDL
MODEL 3
REMARK VINA RESULT:      -7.7      1.619      1.849
REMARK  Name = 
REMARK  7 active torsions:
REMARK  status: ('A' for Active; 'I' for Inactive)
REMARK    1  A    between atoms: C_1  and  C_2
REMARK    2  A    between atoms: C_2  and  O_3
REMARK    3  A    between atoms: O_3  and  C_4
REMARK    4  A    between atoms: C_9  and  N_10
REMARK    5  A    between atoms: C_13  and  C_14
REMARK    6  A    between atoms: C_18  and  C_20
REMARK    7  A    between atoms: C_27  and  C_28
REMARK                            x       y       z     vdW  Elec       q    Type
REMARK                         _______ _______ _______ _____ _____    ______ ____
ROOT
ATOM      1  N   UNL     1      -4.300  13.108  21.298  0.00  0.00    +0.000 N 
ATOM      2  C   UNL     1      -2.972  12.863  21.455  0.00  0.00    +0.000 A 
ATOM      3  N   UNL     1      -2.249  12.028  20.745  0.00  0.00    +0.000 NA
ATOM      4  C   UNL     1      -0.992  11.837  21.288  0.00  0.00    +0.000 A 
ATOM      5  C   UNL     1      -0.705  12.654  22.358  0.00  0.00    +0.000 A 
ATOM      6  S   UNL     1      -2.071  13.643  22.710  0.00  0.00    +0.000 S 
ATOM      7  H   UNL     1      -4.805  13.539  22.065  0.00  0.00    +0.000 HD
ENDROOT
BRANCH   4   8
ATOM      8  C   UNL     1      -0.088  10.791  20.708  0.00  0.00    +0.000 A 
ATOM      9  S   UNL     1       0.230   9.225  21.345  0.00  0.00    +0.000 S 
ATOM     10  C   UNL     1       1.180   8.872  19.965  0.00  0.00    +0.000 A 
ATOM     11  N   UNL     1       1.701   7.604  19.866  0.00  0.00    +0.000 N 
ATOM     12  C   UNL     1       2.579   7.301  18.838  0.00  0.00    +0.000 C 
ATOM     13  O   UNL     1       3.070   8.108  18.050  0.00  0.00    +0.000 OA
ATOM     14  N   UNL     1       1.314   9.847  19.108  0.00  0.00    +0.000 NA
ATOM     15  C   UNL     1       0.589  10.948  19.509  0.00  0.00    +0.000 A 
ATOM     16  C   UNL     1       0.671  12.158  18.652  0.00  0.00    +0.000 C 
ATOM     17  H   UNL     1       1.369   6.915  20.521  0.00  0.00    +0.000 HD
BRANCH  12  18
ATOM     18  C   UNL     1       2.985   5.877  18.656  0.00  0.00    +0.000 A 
ATOM     19  C   UNL     1       4.131   5.447  19.353  0.00  0.00    +0.000 A 
ATOM     20  C   UNL     1       4.573   4.128  19.267  0.00  0.00    +0.000 A 
ATOM     21  C   UNL     1       3.868   3.219  18.484  0.00  0.00    +0.000 A 
ATOM     22  C   UNL     1       2.725   3.629  17.795  0.00  0.00    +0.000 A 
ATOM     23  C   UNL     1       2.277   4.953  17.880  0.00  0.00    +0.000 A 
ENDBRANCH  12  18
ENDBRANCH   4   8
BRANCH   1  29
ATOM     24  C   UNL     1      -6.363  11.845  20.860  0.00  0.00    +0.000 A 
ATOM     25  C   UNL     1      -7.207  11.170  19.962  0.00  0.00    +0.000 A 
ATOM     26  C   UNL     1      -6.834  10.994  18.631  0.00  0.00    +0.000 A 
ATOM     27  C   UNL     1      -5.645  11.541  18.172  0.00  0.00    +0.000 A 
ATOM     28  C   UNL     1      -4.841  12.279  19.041  0.00  0.00    +0.000 A 
ATOM     29  C   UNL     1      -5.167  12.437  20.397  0.00  0.00    +0.000 A 
BRANCH  24  30
ATOM     30  O   UNL     1      -6.623  11.949  22.211  0.00  0.00    +0.000 OA
BRANCH  30  32
ATOM     31  C   UNL     1      -7.658  13.176  24.004  0.00  0.00    +0.000 C 
ATOM     32  C   UNL     1      -7.747  12.771  22.545  0.00  0.00    +0.000 C 
ENDBRANCH  30  32
ENDBRANCH  24  30
ENDBRANCH   1  29
TORSDOF 5
ENDMDL
MODEL 4
REMARK VINA RESULT:      -7.5      0.714      1.014
REMARK  Name = 
REMARK  7 active torsions:
REMARK  status: ('A' for Active; 'I' for Inactive)
REMARK    1  A    between atoms: C_1  and  C_2
REMARK    2  A    between atoms: C_2  and  O_3
REMARK    3  A    between atoms: O_3  and  C_4
REMARK    4  A    between atoms: C_9  and  N_10
REMARK    5  A    between atoms: C_13  and  C_14
REMARK    6  A    between atoms: C_18  and  C_20
REMARK    7  A    between atoms: C_27  and  C_28
REMARK                            x       y       z     vdW  Elec       q    Type
REMARK                         _______ _______ _______ _____ _____    ______ ____
ROOT
ATOM      1  N   UNL     1      -3.425  13.437  20.072  0.00  0.00    +0.000 N 
ATOM      2  C   UNL     1      -2.114  13.082  20.104  0.00  0.00    +0.000 A 
ATOM      3  N   UNL     1      -1.611  11.936  19.705  0.00  0.00    +0.000 NA
ATOM      4  C   UNL     1      -0.286  11.794  20.071  0.00  0.00    +0.000 A 
ATOM      5  C   UNL     1       0.271  12.918  20.639  0.00  0.00    +0.000 A 
ATOM      6  S   UNL     1      -0.922  14.155  20.755  0.00  0.00    +0.000 S 
ATOM      7  H   UNL     1      -3.731  14.208  20.656  0.00  0.00    +0.000 HD
ENDROOT
BRANCH   4   8
ATOM      8  C   UNL     1       0.405  10.482  19.847  0.00  0.00    +0.000 A 
ATOM      9  S   UNL     1       0.949   9.838  18.348  0.00  0.00    +0.000 S 
ATOM     10  C   UNL     1       1.637   8.512  19.183  0.00  0.00    +0.000 A 
ATOM     11  N   UNL     1       2.343   7.596  18.440  0.00  0.00    +0.000 N 
ATOM     12  C   UNL     1       2.812   6.440  19.041  0.00  0.00    +0.000 C 
ATOM     13  O   UNL     1       2.542   6.060  20.180  0.00  0.00    +0.000 OA
ATOM     14  N   UNL     1       1.441   8.494  20.473  0.00  0.00    +0.000 NA
ATOM     15  C   UNL     1       0.748   9.616  20.873  0.00  0.00    +0.000 A 
ATOM     16  C   UNL     1       0.415   9.723  22.317  0.00  0.00    +0.000 C 
ATOM     17  H   UNL     1       2.549   7.837  17.484  0.00  0.00    +0.000 HD
BRANCH  12  18
ATOM     18  C   UNL     1       3.723   5.557  18.254  0.00  0.00    +0.000 A 
ATOM     19  C   UNL     1       3.124   4.507  17.531  0.00  0.00    +0.000 A 
ATOM     20  C   UNL     1       3.889   3.646  16.746  0.00  0.00    +0.000 A 
ATOM     21  C   UNL     1       5.266   3.830  16.671  0.00  0.00    +0.000 A 
ATOM     22  C   UNL     1       5.871   4.872  17.375  0.00  0.00    +0.000 A 
ATOM     23  C   UNL     1       5.106   5.740  18.164  0.00  0.00    +0.000 A 
ENDBRANCH  12  18
ENDBRANCH   4   8
BRANCH   1  29
ATOM     24  C   UNL     1      -5.546  12.309  20.592  0.00  0.00    +0.000 A 
ATOM     25  C   UNL     1      -6.601  11.465  20.205  0.00  0.00    +0.000 A 
ATOM     26  C   UNL     1      -6.586  10.832  18.964  0.00  0.00    +0.000 A 
ATOM     27  C   UNL     1      -5.549  11.081  18.078  0.00  0.00    +0.000 A 
ATOM     28  C   UNL     1      -4.540  11.979  18.427  0.00  0.00    +0.000 A 
ATOM     29  C   UNL     1      -4.503  12.599  19.686  0.00  0.00    +0.000 A 
BRANCH  24  30
ATOM     30  O   UNL     1      -5.448  12.870  21.849  0.00  0.00    +0.000 OA
BRANCH  30  32
ATOM     31  C   UNL     1      -7.084  13.510  23.495  0.00  0.00    +0.000 C 
ATOM     32  C   UNL     1      -6.456  13.842  22.154  0.00  0.00    +0.000 C 
ENDBRANCH  30  32
ENDBRANCH  24  30
ENDBRANCH   1  29
TORSDOF 5
ENDMDL
MODEL 5
REMARK VINA RESULT:      -7.5      4.191     10.914
REMARK  Name = 
REMARK  7 active torsions:
REMARK  status: ('A' for Active; 'I' for Inactive)
REMARK    1  A    between atoms: C_1  and  C_2
REMARK    2  A    between atoms: C_2  and  O_3
REMARK    3  A    between atoms: O_3  and  C_4
REMARK    4  A    between atoms: C_9  and  N_10
REMARK    5  A    between atoms: C_13  and  C_14
REMARK    6  A    between atoms: C_18  and  C_20
REMARK    7  A    between atoms: C_27  and  C_28
REMARK                            x       y       z     vdW  Elec       q    Type
REMARK                         _______ _______ _______ _____ _____    ______ ____
ROOT
ATOM      1  N   UNL     1       4.525   3.208  18.162  0.00  0.00    +0.000 N 
ATOM      2  C   UNL     1       3.609   3.813  18.964  0.00  0.00    +0.000 A 
ATOM      3  N   UNL     1       3.135   5.029  18.819  0.00  0.00    +0.000 NA
ATOM      4  C   UNL     1       2.393   5.432  19.913  0.00  0.00    +0.000 A 
ATOM      5  C   UNL     1       2.182   4.446  20.851  0.00  0.00    +0.000 A 
ATOM      6  S   UNL     1       2.980   3.002  20.358  0.00  0.00    +0.000 S 
ATOM      7  H   UNL     1       5.022   2.400  18.523  0.00  0.00    +0.000 HD
ENDROOT
BRANCH   4   8
ATOM      8  C   UNL     1       1.915   6.850  19.999  0.00  0.00    +0.000 A 
ATOM      9  S   UNL     1       0.981   7.556  21.260  0.00  0.00    +0.000 S 
ATOM     10  C   UNL     1       1.114   9.078  20.486  0.00  0.00    +0.000 A 
ATOM     11  N   UNL     1       0.564  10.162  21.129  0.00  0.00    +0.000 N 
ATOM     12  C   UNL     1       0.530  11.392  20.493  0.00  0.00    +0.000 C 
ATOM     13  O   UNL     1       0.827  11.603  19.318  0.00  0.00    +0.000 OA
ATOM     14  N   UNL     1       1.749   9.078  19.347  0.00  0.00    +0.000 NA
ATOM     15  C   UNL     1       2.222   7.818  19.055  0.00  0.00    +0.000 A 
ATOM     16  C   UNL     1       2.939   7.648  17.765  0.00  0.00    +0.000 C 
ATOM     17  H   UNL     1       0.258  10.029  22.079  0.00  0.00    +0.000 HD
BRANCH  12  18
ATOM     18  C   UNL     1       0.090  12.580  21.282  0.00  0.00    +0.000 A 
ATOM     19  C   UNL     1      -0.744  12.336  22.390  0.00  0.00    +0.000 A 
ATOM     20  C   UNL     1      -1.185  13.379  23.203  0.00  0.00    +0.000 A 
ATOM     21  C   UNL     1      -0.790  14.683  22.918  0.00  0.00    +0.000 A 
ATOM     22  C   UNL     1       0.045  14.938  21.829  0.00  0.00    +0.000 A 
ATOM     23  C   UNL     1       0.491  13.892  21.010  0.00  0.00    +0.000 A 
ENDBRANCH  12  18
ENDBRANCH   4   8
BRANCH   1  29
ATOM     24  C   UNL     1       6.471   4.412  17.265  0.00  0.00    +0.000 A 
ATOM     25  C   UNL     1       7.129   5.023  16.185  0.00  0.00    +0.000 A 
ATOM     26  C   UNL     1       6.509   5.130  14.942  0.00  0.00    +0.000 A 
ATOM     27  C   UNL     1       5.251   4.577  14.752  0.00  0.00    +0.000 A 
ATOM     28  C   UNL     1       4.626   3.901  15.800  0.00  0.00    +0.000 A 
ATOM     29  C   UNL     1       5.206   3.814  17.075  0.00  0.00    +0.000 A 
BRANCH  24  30
ATOM     30  O   UNL     1       6.985   4.380  18.545  0.00  0.00    +0.000 OA
BRANCH  30  32
ATOM     31  C   UNL     1       8.167   6.365  19.220  0.00  0.00    +0.000 C 
ATOM     32  C   UNL     1       6.855   5.605  19.276  0.00  0.00    +0.000 C 
ENDBRANCH  30  32
ENDBRANCH  24  30
ENDBRANCH   1  29
TORSDOF 5
ENDMDL
MODEL 6
REMARK VINA RESULT:      -7.4      2.303      3.559
REMARK  Name = 
REMARK  7 active torsions:
REMARK  status: ('A' for Active; 'I' for Inactive)
REMARK    1  A    between atoms: C_1  and  C_2
REMARK    2  A    between atoms: C_2  and  O_3
REMARK    3  A    between atoms: O_3  and  C_4
REMARK    4  A    between atoms: C_9  and  N_10
REMARK    5  A    between atoms: C_13  and  C_14
REMARK    6  A    between atoms: C_18  and  C_20
REMARK    7  A    between atoms: C_27  and  C_28
REMARK                            x       y       z     vdW  Elec       q    Type
REMARK                         _______ _______ _______ _____ _____    ______ ____
ROOT
ATOM      1  N   UNL     1      -3.392  13.189  19.853  0.00  0.00    +0.000 N 
ATOM      2  C   UNL     1      -2.074  12.876  19.968  0.00  0.00    +0.000 A 
ATOM      3  N   UNL     1      -1.532  11.705  19.721  0.00  0.00    +0.000 NA
ATOM      4  C   UNL     1      -0.217  11.642  20.143  0.00  0.00    +0.000 A 
ATOM      5  C   UNL     1       0.293  12.839  20.594  0.00  0.00    +0.000 A 
ATOM      6  S   UNL     1      -0.931  14.048  20.527  0.00  0.00    +0.000 S 
ATOM      7  H   UNL     1      -3.735  14.015  20.334  0.00  0.00    +0.000 HD
ENDROOT
BRANCH   4   8
ATOM      8  C   UNL     1       0.511  10.333  20.097  0.00  0.00    +0.000 A 
ATOM      9  S   UNL     1       0.539   9.117  21.313  0.00  0.00    +0.000 S 
ATOM     10  C   UNL     1       1.454   8.114  20.270  0.00  0.00    +0.000 A 
ATOM     11  N   UNL     1       1.753   6.848  20.716  0.00  0.00    +0.000 N 
ATOM     12  C   UNL     1       2.596   6.040  19.970  0.00  0.00    +0.000 C 
ATOM     13  O   UNL     1       3.240   6.390  18.981  0.00  0.00    +0.000 OA
ATOM     14  N   UNL     1       1.777   8.641  19.122  0.00  0.00    +0.000 NA
ATOM     15  C   UNL     1       1.240   9.904  18.999  0.00  0.00    +0.000 A 
ATOM     16  C   UNL     1       1.553  10.651  17.754  0.00  0.00    +0.000 C 
ATOM     17  H   UNL     1       1.290   6.530  21.551  0.00  0.00    +0.000 HD
BRANCH  12  18
ATOM     18  C   UNL     1       2.758   4.617  20.388  0.00  0.00    +0.000 A 
ATOM     19  C   UNL     1       3.782   3.881  19.761  0.00  0.00    +0.000 A 
ATOM     20  C   UNL     1       4.027   2.552  20.104  0.00  0.00    +0.000 A 
ATOM     21  C   UNL     1       3.251   1.944  21.086  0.00  0.00    +0.000 A 
ATOM     22  C   UNL     1       2.239   2.665  21.722  0.00  0.00    +0.000 A 
ATOM     23  C   UNL     1       1.990   4.000  21.381  0.00  0.00    +0.000 A 
ENDBRANCH  12  18
ENDBRANCH   4   8
BRANCH   1  29
ATOM     24  C   UNL     1      -4.470  11.644  18.275  0.00  0.00    +0.000 A 
ATOM     25  C   UNL     1      -5.517  10.760  17.963  0.00  0.00    +0.000 A 
ATOM     26  C   UNL     1      -6.577  10.574  18.847  0.00  0.00    +0.000 A 
ATOM     27  C   UNL     1      -6.573  11.223  20.072  0.00  0.00    +0.000 A 
ATOM     28  C   UNL     1      -5.497  12.041  20.419  0.00  0.00    +0.000 A 
ATOM     29  C   UNL     1      -4.436  12.283  19.533  0.00  0.00    +0.000 A 
BRANCH  24  30
ATOM     30  O   UNL     1      -3.456  11.957  17.394  0.00  0.00    +0.000 OA
BRANCH  30  32
ATOM     31  C   UNL     1      -2.231   9.946  16.888  0.00  0.00    +0.000 C 
ATOM     32  C   UNL     1      -3.220  10.976  16.375  0.00  0.00    +0.000 C 
ENDBRANCH  30  32
ENDBRANCH  24  30
ENDBRANCH   1  29
TORSDOF 5
ENDMDL
MODEL 7
REMARK VINA RESULT:      -7.3      3.990     10.997
REMARK  Name = 
REMARK  7 active torsions:
REMARK  status: ('A' for Active; 'I' for Inactive)
REMARK    1  A    between atoms: C_1  and  C_2
REMARK    2  A    between atoms: C_2  and  O_3
REMARK    3  A    between atoms: O_3  and  C_4
REMARK    4  A    between atoms: C_9  and  N_10
REMARK    5  A    between atoms: C_13  and  C_14
REMARK    6  A    between atoms: C_18  and  C_20
REMARK    7  A    between atoms: C_27  and  C_28
REMARK                            x       y       z     vdW  Elec       q    Type
REMARK                         _______ _______ _______ _____ _____    ______ ____
ROOT
ATOM      1  N   UNL     1       4.850   4.700  19.081  0.00  0.00    +0.000 N 
ATOM      2  C   UNL     1       3.623   5.142  19.465  0.00  0.00    +0.000 A 
ATOM      3  N   UNL     1       3.207   6.388  19.446  0.00  0.00    +0.000 NA
ATOM      4  C   UNL     1       2.002   6.544  20.104  0.00  0.00    +0.000 A 
ATOM      5  C   UNL     1       1.419   5.364  20.510  0.00  0.00    +0.000 A 
ATOM      6  S   UNL     1       2.443   4.044  20.094  0.00  0.00    +0.000 S 
ATOM      7  H   UNL     1       5.155   3.787  19.401  0.00  0.00    +0.000 HD
ENDROOT
BRANCH   4   8
ATOM      8  C   UNL     1       1.456   7.922  20.328  0.00  0.00    +0.000 A 
ATOM      9  S   UNL     1       0.842   8.568  21.800  0.00  0.00    +0.000 S 
ATOM     10  C   UNL     1       0.648  10.087  21.035  0.00  0.00    +0.000 A 
ATOM     11  N   UNL     1       0.208  11.133  21.813  0.00  0.00    +0.000 N 
ATOM     12  C   UNL     1      -0.088  12.350  21.222  0.00  0.00    +0.000 C 
ATOM     13  O   UNL     1      -0.132  12.571  20.012  0.00  0.00    +0.000 OA
ATOM     14  N   UNL     1       0.953  10.124  19.768  0.00  0.00    +0.000 NA
ATOM     15  C   UNL     1       1.427   8.900  19.347  0.00  0.00    +0.000 A 
ATOM     16  C   UNL     1       1.784   8.773  17.911  0.00  0.00    +0.000 C 
ATOM     17  H   UNL     1       0.178  10.987  22.808  0.00  0.00    +0.000 HD
BRANCH  12  18
ATOM     18  C   UNL     1      -0.390  13.509  22.112  0.00  0.00    +0.000 A 
ATOM     19  C   UNL     1      -1.307  13.288  23.157  0.00  0.00    +0.000 A 
ATOM     20  C   UNL     1      -1.633  14.303  24.056  0.00  0.00    +0.000 A 
ATOM     21  C   UNL     1      -1.038  15.553  23.921  0.00  0.00    +0.000 A 
ATOM     22  C   UNL     1      -0.120  15.783  22.896  0.00  0.00    +0.000 A 
ATOM     23  C   UNL     1       0.211  14.766  21.991  0.00  0.00    +0.000 A 
ENDBRANCH  12  18
ENDBRANCH   4   8
BRANCH   1  29
ATOM     24  C   UNL     1       5.991   6.040  17.365  0.00  0.00    +0.000 A 
ATOM     25  C   UNL     1       7.080   6.835  16.969  0.00  0.00    +0.000 A 
ATOM     26  C   UNL     1       8.159   7.040  17.826  0.00  0.00    +0.000 A 
ATOM     27  C   UNL     1       8.134   6.502  19.104  0.00  0.00    +0.000 A 
ATOM     28  C   UNL     1       7.020   5.778  19.529  0.00  0.00    +0.000 A 
ATOM     29  C   UNL     1       5.937   5.516  18.675  0.00  0.00    +0.000 A 
BRANCH  24  30
ATOM     30  O   UNL     1       4.951   5.706  16.522  0.00  0.00    +0.000 OA
BRANCH  30  32
ATOM     31  C   UNL     1       5.953   3.793  15.455  0.00  0.00    +0.000 C 
ATOM     32  C   UNL     1       5.353   5.172  15.254  0.00  0.00    +0.000 C 
ENDBRANCH  30  32
ENDBRANCH  24  30
ENDBRANCH   1  29
TORSDOF 5
ENDMDL
MODEL 8
REMARK VINA RESULT:      -7.2      3.772      5.759
REMARK  Name = 
REMARK  7 active torsions:
REMARK  status: ('A' for Active; 'I' for Inactive)
REMARK    1  A    between atoms: C_1  and  C_2
REMARK    2  A    between atoms: C_2  and  O_3
REMARK    3  A    between atoms: O_3  and  C_4
REMARK    4  A    between atoms: C_9  and  N_10
REMARK    5  A    between atoms: C_13  and  C_14
REMARK    6  A    between atoms: C_18  and  C_20
REMARK    7  A    between atoms: C_27  and  C_28
REMARK                            x       y       z     vdW  Elec       q    Type
REMARK                         _______ _______ _______ _____ _____    ______ ____
ROOT
ATOM      1  N   UNL     1      -0.146  15.434  21.988  0.00  0.00    +0.000 N 
ATOM      2  C   UNL     1      -0.450  14.117  22.130  0.00  0.00    +0.000 A 
ATOM      3  N   UNL     1       0.324  13.104  21.816  0.00  0.00    +0.000 NA
ATOM      4  C   UNL     1      -0.350  11.898  21.868  0.00  0.00    +0.000 A 
ATOM      5  C   UNL     1      -1.629  11.983  22.370  0.00  0.00    +0.000 A 
ATOM      6  S   UNL     1      -1.997  13.626  22.733  0.00  0.00    +0.000 S 
ATOM      7  H   UNL     1      -0.905  16.107  21.989  0.00  0.00    +0.000 HD
ENDROOT
BRANCH   4   8
ATOM      8  C   UNL     1       0.327  10.652  21.380  0.00  0.00    +0.000 A 
ATOM      9  S   UNL     1       0.950   9.367  22.338  0.00  0.00    +0.000 S 
ATOM     10  C   UNL     1       1.329   8.505  20.908  0.00  0.00    +0.000 A 
ATOM     11  N   UNL     1       1.846   7.239  21.054  0.00  0.00    +0.000 N 
ATOM     12  C   UNL     1       2.288   6.546  19.939  0.00  0.00    +0.000 C 
ATOM     13  O   UNL     1       2.400   7.006  18.803  0.00  0.00    +0.000 OA
ATOM     14  N   UNL     1       1.075   9.126  19.790  0.00  0.00    +0.000 NA
ATOM     15  C   UNL     1       0.493  10.351  20.037  0.00  0.00    +0.000 A 
ATOM     16  C   UNL     1       0.178  11.197  18.859  0.00  0.00    +0.000 C 
ATOM     17  H   UNL     1       1.825   6.834  21.976  0.00  0.00    +0.000 HD
BRANCH  12  18
ATOM     18  C   UNL     1       2.677   5.115  20.108  0.00  0.00    +0.000 A 
ATOM     19  C   UNL     1       3.749   4.649  19.324  0.00  0.00    +0.000 A 
ATOM     20  C   UNL     1       4.201   3.334  19.431  0.00  0.00    +0.000 A 
ATOM     21  C   UNL     1       3.586   2.470  20.332  0.00  0.00    +0.000 A 
ATOM     22  C   UNL     1       2.529   2.922  21.123  0.00  0.00    +0.000 A 
ATOM     23  C   UNL     1       2.072   4.242  21.019  0.00  0.00    +0.000 A 
ENDBRANCH  12  18
ENDBRANCH   4   8
BRANCH   1  29
ATOM     24  C   UNL     1       1.086  16.173  19.994  0.00  0.00    +0.000 A 
ATOM     25  C   UNL     1       2.260  16.674  19.407  0.00  0.00    +0.000 A 
ATOM     26  C   UNL     1       3.408  16.872  20.171  0.00  0.00    +0.000 A 
ATOM     27  C   UNL     1       3.376  16.627  21.536  0.00  0.00    +0.000 A 
ATOM     28  C   UNL     1       2.190  16.204  22.136  0.00  0.00    +0.000 A 
ATOM     29  C   UNL     1       1.030  15.954  21.387  0.00  0.00    +0.000 A 
BRANCH  24  30
ATOM     30  O   UNL     1      -0.043  15.847  19.270  0.00  0.00    +0.000 OA
BRANCH  30  32
ATOM     31  C   UNL     1      -1.603  17.642  18.896  0.00  0.00    +0.000 C 
ATOM     32  C   UNL     1      -0.454  16.838  18.319  0.00  0.00    +0.000 C 
ENDBRANCH  30  32
ENDBRANCH  24  30
ENDBRANCH   1  29
TORSDOF 5
ENDMDL
MODEL 9
REMARK VINA RESULT:      -7.2      4.099     11.017
REMARK  Name = 
REMARK  7 active torsions:
REMARK  status: ('A' for Active; 'I' for Inactive)
REMARK    1  A    between atoms: C_1  and  C_2
REMARK    2  A    between atoms: C_2  and  O_3
REMARK    3  A    between atoms: O_3  and  C_4
REMARK    4  A    between atoms: C_9  and  N_10
REMARK    5  A    between atoms: C_13  and  C_14
REMARK    6  A    between atoms: C_18  and  C_20
REMARK    7  A    between atoms: C_27  and  C_28
REMARK                            x       y       z     vdW  Elec       q    Type
REMARK                         _______ _______ _______ _____ _____    ______ ____
ROOT
ATOM      1  N   UNL     1       4.704   4.389  19.104  0.00  0.00    +0.000 N 
ATOM      2  C   UNL     1       3.512   4.876  19.539  0.00  0.00    +0.000 A 
ATOM      3  N   UNL     1       3.119   6.128  19.485  0.00  0.00    +0.000 NA
ATOM      4  C   UNL     1       1.959   6.341  20.205  0.00  0.00    +0.000 A 
ATOM      5  C   UNL     1       1.380   5.195  20.702  0.00  0.00    +0.000 A 
ATOM      6  S   UNL     1       2.351   3.834  20.290  0.00  0.00    +0.000 S 
ATOM      7  H   UNL     1       5.011   3.486  19.449  0.00  0.00    +0.000 HD
ENDROOT
BRANCH   4   8
ATOM      8  C   UNL     1       1.455   7.741  20.396  0.00  0.00    +0.000 A 
ATOM      9  S   UNL     1       0.782   8.415  21.828  0.00  0.00    +0.000 S 
ATOM     10  C   UNL     1       0.691   9.937  21.051  0.00  0.00    +0.000 A 
ATOM     11  N   UNL     1       0.247  11.002  21.800  0.00  0.00    +0.000 N 
ATOM     12  C   UNL     1       0.033  12.227  21.190  0.00  0.00    +0.000 C 
ATOM     13  O   UNL     1       0.066  12.445  19.980  0.00  0.00    +0.000 OA
ATOM     14  N   UNL     1       1.070   9.958  19.803  0.00  0.00    +0.000 NA
ATOM     15  C   UNL     1       1.519   8.715  19.412  0.00  0.00    +0.000 A 
ATOM     16  C   UNL     1       1.953   8.568  18.000  0.00  0.00    +0.000 C 
ATOM     17  H   UNL     1       0.154  10.862  22.792  0.00  0.00    +0.000 HD
BRANCH  12  18
ATOM     18  C   UNL     1      -0.276  13.401  22.059  0.00  0.00    +0.000 A 
ATOM     19  C   UNL     1       0.306  14.631  21.699  0.00  0.00    +0.000 A 
ATOM     20  C   UNL     1       0.056  15.789  22.434  0.00  0.00    +0.000 A 
ATOM     21  C   UNL     1      -0.787  15.729  23.539  0.00  0.00    +0.000 A 
ATOM     22  C   UNL     1      -1.379  14.518  23.902  0.00  0.00    +0.000 A 
ATOM     23  C   UNL     1      -1.131  13.353  23.166  0.00  0.00    +0.000 A 
ENDBRANCH  12  18
ENDBRANCH   4   8
BRANCH   1  29
ATOM     24  C   UNL     1       5.928   5.357  17.205  0.00  0.00    +0.000 A 
ATOM     25  C   UNL     1       7.006   6.111  16.711  0.00  0.00    +0.000 A 
ATOM     26  C   UNL     1       7.988   6.595  17.572  0.00  0.00    +0.000 A 
ATOM     27  C   UNL     1       7.873   6.380  18.937  0.00  0.00    +0.000 A 
ATOM     28  C   UNL     1       6.764   5.699  19.440  0.00  0.00    +0.000 A 
ATOM     29  C   UNL     1       5.780   5.162  18.596  0.00  0.00    +0.000 A 
BRANCH  24  30
ATOM     30  O   UNL     1       4.990   4.755  16.392  0.00  0.00    +0.000 OA
BRANCH  30  32
ATOM     31  C   UNL     1       5.443   4.214  14.090  0.00  0.00    +0.000 C 
ATOM     32  C   UNL     1       5.508   3.735  15.528  0.00  0.00    +0.000 C 
ENDBRANCH  30  32
ENDBRANCH  24  30
ENDBRANCH   1  29
TORSDOF 5
ENDMDL
