MODEL 1
REMARK VINA RESULT:      -7.3      0.000      0.000
REMARK  Name = 
REMARK  9 active torsions:
REMARK  status: ('A' for Active; 'I' for Inactive)
REMARK    1  A    between atoms: C_1  and  C_2
REMARK    2  A    between atoms: C_7  and  O_8
REMARK    3  A    between atoms: O_8  and  C_9
REMARK    4  A    between atoms: C_9  and  C_10
REMARK    5  A    between atoms: C_10  and  O_12
REMARK    6  A    between atoms: O_12  and  C_13
REMARK    7  A    between atoms: C_13  and  C_14
REMARK    8  A    between atoms: N_16  and  C_17
REMARK    9  A    between atoms: C_22  and  C_23
REMARK                            x       y       z     vdW  Elec       q    Type
REMARK                         _______ _______ _______ _____ _____    ______ ____
ROOT
ATOM      1  C   UNL     1       2.748   3.454  20.776  0.00  0.00    +0.000 C 
ENDROOT
BRANCH   1   2
ATOM      2  C   UNL     1       1.887   4.721  20.627  0.00  0.00    +0.000 C 
ATOM      3  O   UNL     1       0.665   4.663  20.493  0.00  0.00    +0.000 OA
ATOM      4  N   UNL     1       2.616   5.899  20.591  0.00  0.00    +0.000 N 
ATOM      5  H   UNL     1       3.496   5.839  20.092  0.00  0.00    +0.000 HD
BRANCH   4   6
ATOM      6  C   UNL     1       1.963   7.127  20.366  0.00  0.00    +0.000 A 
ATOM      7  N   UNL     1       1.142   7.493  21.376  0.00  0.00    +0.000 NA
ATOM      8  C   UNL     1       0.538   8.703  21.258  0.00  0.00    +0.000 A 
ATOM      9  C   UNL     1       0.672   9.544  20.159  0.00  0.00    +0.000 A 
ATOM     10 CL   UNL     1      -0.181  11.048  20.189  0.00  0.00    +0.000 Cl
ATOM     11  C   UNL     1       1.460   9.134  19.080  0.00  0.00    +0.000 A 
ATOM     12  C   UNL     1       1.610   9.960  17.827  0.00  0.00    +0.000 C 
ATOM     13  C   UNL     1       2.114   7.884  19.190  0.00  0.00    +0.000 A 
ATOM     14 CL   UNL     1       2.946   7.218  17.816  0.00  0.00    +0.000 Cl
ENDBRANCH   4   6
ENDBRANCH   1   2
BRANCH   1  15
ATOM     15  O   UNL     1       2.082   2.336  20.179  0.00  0.00    +0.000 OA
BRANCH  15  16
ATOM     16  C   UNL     1       1.983   2.429  18.820  0.00  0.00    +0.000 C 
ATOM     17  O   UNL     1       0.954   2.220  18.195  0.00  0.00    +0.000 OA
BRANCH  16  18
ATOM     18  C   UNL     1       3.366   2.624  18.206  0.00  0.00    +0.000 C 
BRANCH  18  19
ATOM     19  O   UNL     1       3.548   3.841  17.525  0.00  0.00    +0.000 OA
BRANCH  19  26
ATOM     20  C   UNL     1       5.897   5.172  19.232  0.00  0.00    +0.000 C 
ATOM     21  C   UNL     1       5.882   4.775  17.781  0.00  0.00    +0.000 A 
ATOM     22  C   UNL     1       7.079   5.029  17.071  0.00  0.00    +0.000 A 
ATOM     23  C   UNL     1       7.212   4.725  15.718  0.00  0.00    +0.000 A 
ATOM     24  C   UNL     1       6.147   4.159  15.039  0.00  0.00    +0.000 A 
ATOM     25  C   UNL     1       4.956   3.898  15.721  0.00  0.00    +0.000 A 
ATOM     26  C   UNL     1       4.800   4.194  17.089  0.00  0.00    +0.000 A 
ENDBRANCH  19  26
ENDBRANCH  18  19
ENDBRANCH  16  18
ENDBRANCH  15  16
ENDBRANCH   1  15
TORSDOF 7
ENDMDL
MODEL 2
REMARK VINA RESULT:      -7.3      0.955      1.095
REMARK  Name = 
REMARK  9 active torsions:
REMARK  status: ('A' for Active; 'I' for Inactive)
REMARK    1  A    between atoms: C_1  and  C_2
REMARK    2  A    between atoms: C_7  and  O_8
REMARK    3  A    between atoms: O_8  and  C_9
REMARK    4  A    between atoms: C_9  and  C_10
REMARK    5  A    between atoms: C_10  and  O_12
REMARK    6  A    between atoms: O_12  and  C_13
REMARK    7  A    between atoms: C_13  and  C_14
REMARK    8  A    between atoms: N_16  and  C_17
REMARK    9  A    between atoms: C_22  and  C_23
REMARK                            x       y       z     vdW  Elec       q    Type
REMARK                         _______ _______ _______ _____ _____    ______ ____
ROOT
ATOM      1  C   UNL     1       2.480   3.153  20.625  0.00  0.00    +0.000 C 
ENDROOT
BRANCH   1   2
ATOM      2  C   UNL     1       1.723   4.488  20.514  0.00  0.00    +0.000 C 
ATOM      3  O   UNL     1       0.499   4.531  20.384  0.00  0.00    +0.000 OA
ATOM      4  N   UNL     1       2.542   5.605  20.507  0.00  0.00    +0.000 N 
ATOM      5  H   UNL     1       3.413   5.490  20.002  0.00  0.00    +0.000 HD
BRANCH   4   6
ATOM      6  C   UNL     1       1.988   6.887  20.318  0.00  0.00    +0.000 A 
ATOM      7  N   UNL     1       1.224   7.301  21.353  0.00  0.00    +0.000 NA
ATOM      8  C   UNL     1       0.720   8.559  21.270  0.00  0.00    +0.000 A 
ATOM      9  C   UNL     1       0.898   9.406  20.182  0.00  0.00    +0.000 A 
ATOM     10 CL   UNL     1       0.174  10.975  20.257  0.00  0.00    +0.000 Cl
ATOM     11  C   UNL     1       1.625   8.952  19.077  0.00  0.00    +0.000 A 
ATOM     12  C   UNL     1       1.815   9.786  17.835  0.00  0.00    +0.000 C 
ATOM     13  C   UNL     1       2.175   7.650  19.151  0.00  0.00    +0.000 A 
ATOM     14 CL   UNL     1       2.918   6.944  17.747  0.00  0.00    +0.000 Cl
ENDBRANCH   4   6
ENDBRANCH   1   2
BRANCH   1  15
ATOM     15  O   UNL     1       2.475   2.481  19.361  0.00  0.00    +0.000 OA
BRANCH  15  16
ATOM     16  C   UNL     1       3.704   2.009  18.995  0.00  0.00    +0.000 C 
ATOM     17  O   UNL     1       3.906   0.873  18.594  0.00  0.00    +0.000 OA
BRANCH  16  18
ATOM     18  C   UNL     1       4.784   3.025  19.354  0.00  0.00    +0.000 C 
BRANCH  18  19
ATOM     19  O   UNL     1       4.695   4.252  18.671  0.00  0.00    +0.000 OA
BRANCH  19  26
ATOM     20  C   UNL     1       7.637   5.495  18.612  0.00  0.00    +0.000 C 
ATOM     21  C   UNL     1       6.786   5.010  17.471  0.00  0.00    +0.000 A 
ATOM     22  C   UNL     1       7.373   5.121  16.188  0.00  0.00    +0.000 A 
ATOM     23  C   UNL     1       6.702   4.722  15.034  0.00  0.00    +0.000 A 
ATOM     24  C   UNL     1       5.424   4.202  15.135  0.00  0.00    +0.000 A 
ATOM     25  C   UNL     1       4.826   4.081  16.391  0.00  0.00    +0.000 A 
ATOM     26  C   UNL     1       5.486   4.475  17.571  0.00  0.00    +0.000 A 
ENDBRANCH  19  26
ENDBRANCH  18  19
ENDBRANCH  16  18
ENDBRANCH  15  16
ENDBRANCH   1  15
TORSDOF 7
ENDMDL
MODEL 3
REMARK VINA RESULT:      -7.2      1.165      1.880
REMARK  Name = 
REMARK  9 active torsions:
REMARK  status: ('A' for Active; 'I' for Inactive)
REMARK    1  A    between atoms: C_1  and  C_2
REMARK    2  A    between atoms: C_7  and  O_8
REMARK    3  A    between atoms: O_8  and  C_9
REMARK    4  A    between atoms: C_9  and  C_10
REMARK    5  A    between atoms: C_10  and  O_12
REMARK    6  A    between atoms: O_12  and  C_13
REMARK    7  A    between atoms: C_13  and  C_14
REMARK    8  A    between atoms: N_16  and  C_17
REMARK    9  A    between atoms: C_22  and  C_23
REMARK                            x       y       z     vdW  Elec       q    Type
REMARK                         _______ _______ _______ _____ _____    ______ ____
ROOT
ATOM      1  C   UNL     1       2.723   3.524  20.881  0.00  0.00    +0.000 C 
ENDROOT
BRANCH   1   2
ATOM      2  C   UNL     1       1.830   4.751  20.622  0.00  0.00    +0.000 C 
ATOM      3  O   UNL     1       0.673   4.637  20.220  0.00  0.00    +0.000 OA
ATOM      4  N   UNL     1       2.467   5.965  20.817  0.00  0.00    +0.000 N 
ATOM      5  H   UNL     1       3.436   5.990  20.521  0.00  0.00    +0.000 HD
BRANCH   4   6
ATOM      6  C   UNL     1       1.795   7.170  20.528  0.00  0.00    +0.000 A 
ATOM      7  N   UNL     1       0.925   7.547  21.491  0.00  0.00    +0.000 NA
ATOM      8  C   UNL     1       0.299   8.737  21.311  0.00  0.00    +0.000 A 
ATOM      9  C   UNL     1       0.458   9.547  20.192  0.00  0.00    +0.000 A 
ATOM     10 CL   UNL     1      -0.430  11.030  20.140  0.00  0.00    +0.000 Cl
ATOM     11  C   UNL     1       1.300   9.124  19.159  0.00  0.00    +0.000 A 
ATOM     12  C   UNL     1       1.482   9.915  17.888  0.00  0.00    +0.000 C 
ATOM     13  C   UNL     1       1.977   7.894  19.335  0.00  0.00    +0.000 A 
ATOM     14 CL   UNL     1       2.881   7.207  18.018  0.00  0.00    +0.000 Cl
ENDBRANCH   4   6
ENDBRANCH   1   2
BRANCH   1  15
ATOM     15  O   UNL     1       2.457   2.510  19.908  0.00  0.00    +0.000 OA
BRANCH  15  16
ATOM     16  C   UNL     1       3.379   2.470  18.902  0.00  0.00    +0.000 C 
ATOM     17  O   UNL     1       3.537   1.514  18.158  0.00  0.00    +0.000 OA
BRANCH  16  18
ATOM     18  C   UNL     1       4.296   3.687  18.983  0.00  0.00    +0.000 C 
BRANCH  18  19
ATOM     19  O   UNL     1       5.154   3.858  17.882  0.00  0.00    +0.000 OA
BRANCH  19  26
ATOM     20  C   UNL     1       5.322   6.086  15.599  0.00  0.00    +0.000 C 
ATOM     21  C   UNL     1       6.115   5.966  16.872  0.00  0.00    +0.000 A 
ATOM     22  C   UNL     1       7.072   6.985  17.087  0.00  0.00    +0.000 A 
ATOM     23  C   UNL     1       7.889   7.003  18.217  0.00  0.00    +0.000 A 
ATOM     24  C   UNL     1       7.768   5.997  19.160  0.00  0.00    +0.000 A 
ATOM     25  C   UNL     1       6.828   4.982  18.968  0.00  0.00    +0.000 A 
ATOM     26  C   UNL     1       5.991   4.946  17.836  0.00  0.00    +0.000 A 
ENDBRANCH  19  26
ENDBRANCH  18  19
ENDBRANCH  16  18
ENDBRANCH  15  16
ENDBRANCH   1  15
TORSDOF 7
ENDMDL
MODEL 4
REMARK VINA RESULT:      -7.1      5.474      7.403
REMARK  Name = 
REMARK  9 active torsions:
REMARK  status: ('A' for Active; 'I' for Inactive)
REMARK    1  A    between atoms: C_1  and  C_2
REMARK    2  A    between atoms: C_7  and  O_8
REMARK    3  A    between atoms: O_8  and  C_9
REMARK    4  A    between atoms: C_9  and  C_10
REMARK    5  A    between atoms: C_10  and  O_12
REMARK    6  A    between atoms: O_12  and  C_13
REMARK    7  A    between atoms: C_13  and  C_14
REMARK    8  A    between atoms: N_16  and  C_17
REMARK    9  A    between atoms: C_22  and  C_23
REMARK                            x       y       z     vdW  Elec       q    Type
REMARK                         _______ _______ _______ _____ _____    ______ ____
ROOT
ATOM      1  C   UNL     1       7.054   6.438  16.822  0.00  0.00    +0.000 C 
ENDROOT
BRANCH   1   2
ATOM      2  C   UNL     1       6.208   5.567  17.767  0.00  0.00    +0.000 C 
ATOM      3  O   UNL     1       6.698   4.631  18.399  0.00  0.00    +0.000 OA
ATOM      4  N   UNL     1       4.861   5.890  17.780  0.00  0.00    +0.000 N 
ATOM      5  H   UNL     1       4.478   6.156  16.881  0.00  0.00    +0.000 HD
BRANCH   4   6
ATOM      6  C   UNL     1       3.956   5.114  18.532  0.00  0.00    +0.000 A 
ATOM      7  N   UNL     1       3.755   5.582  19.784  0.00  0.00    +0.000 NA
ATOM      8  C   UNL     1       2.838   4.923  20.537  0.00  0.00    +0.000 A 
ATOM      9  C   UNL     1       2.146   3.791  20.122  0.00  0.00    +0.000 A 
ATOM     10 CL   UNL     1       1.017   3.088  21.226  0.00  0.00    +0.000 Cl
ATOM     11  C   UNL     1       2.407   3.261  18.855  0.00  0.00    +0.000 A 
ATOM     12  C   UNL     1       1.744   2.003  18.351  0.00  0.00    +0.000 C 
ATOM     13  C   UNL     1       3.347   3.942  18.045  0.00  0.00    +0.000 A 
ATOM     14 CL   UNL     1       3.870   3.236  16.545  0.00  0.00    +0.000 Cl
ENDBRANCH   4   6
ENDBRANCH   1   2
BRANCH   1  15
ATOM     15  O   UNL     1       7.054   7.796  17.276  0.00  0.00    +0.000 OA
BRANCH  15  16
ATOM     16  C   UNL     1       8.091   8.085  18.115  0.00  0.00    +0.000 C 
ATOM     17  O   UNL     1       8.572   7.286  18.906  0.00  0.00    +0.000 OA
BRANCH  16  18
ATOM     18  C   UNL     1       8.409   9.576  18.063  0.00  0.00    +0.000 C 
BRANCH  18  19
ATOM     19  O   UNL     1       8.962  10.107  19.242  0.00  0.00    +0.000 OA
BRANCH  19  26
ATOM     20  C   UNL     1       9.620  12.224  21.542  0.00  0.00    +0.000 C 
ATOM     21  C   UNL     1      10.154  12.147  20.138  0.00  0.00    +0.000 A 
ATOM     22  C   UNL     1      11.079  13.158  19.785  0.00  0.00    +0.000 A 
ATOM     23  C   UNL     1      11.651  13.224  18.517  0.00  0.00    +0.000 A 
ATOM     24  C   UNL     1      11.310  12.278  17.566  0.00  0.00    +0.000 A 
ATOM     25  C   UNL     1      10.400  11.270  17.893  0.00  0.00    +0.000 A 
ATOM     26  C   UNL     1       9.812  11.182  19.169  0.00  0.00    +0.000 A 
ENDBRANCH  19  26
ENDBRANCH  18  19
ENDBRANCH  16  18
ENDBRANCH  15  16
ENDBRANCH   1  15
TORSDOF 7
ENDMDL
MODEL 5
REMARK VINA RESULT:      -7.1      3.837      5.657
REMARK  Name = 
REMARK  9 active torsions:
REMARK  status: ('A' for Active; 'I' for Inactive)
REMARK    1  A    between atoms: C_1  and  C_2
REMARK    2  A    between atoms: C_7  and  O_8
REMARK    3  A    between atoms: O_8  and  C_9
REMARK    4  A    between atoms: C_9  and  C_10
REMARK    5  A    between atoms: C_10  and  O_12
REMARK    6  A    between atoms: O_12  and  C_13
REMARK    7  A    between atoms: C_13  and  C_14
REMARK    8  A    between atoms: N_16  and  C_17
REMARK    9  A    between atoms: C_22  and  C_23
REMARK                            x       y       z     vdW  Elec       q    Type
REMARK                         _______ _______ _______ _____ _____    ______ ____
ROOT
ATOM      1  C   UNL     1       7.748   4.913  18.060  0.00  0.00    +0.000 C 
ENDROOT
BRANCH   1   2
ATOM      2  C   UNL     1       6.535   4.752  18.993  0.00  0.00    +0.000 C 
ATOM      3  O   UNL     1       6.447   5.367  20.056  0.00  0.00    +0.000 OA
ATOM      4  N   UNL     1       5.608   3.818  18.560  0.00  0.00    +0.000 N 
ATOM      5  H   UNL     1       6.006   2.995  18.123  0.00  0.00    +0.000 HD
BRANCH   4   6
ATOM      6  C   UNL     1       4.493   3.504  19.363  0.00  0.00    +0.000 A 
ATOM      7  N   UNL     1       4.686   2.423  20.153  0.00  0.00    +0.000 NA
ATOM      8  C   UNL     1       3.678   2.109  21.006  0.00  0.00    +0.000 A 
ATOM      9  C   UNL     1       2.467   2.789  21.077  0.00  0.00    +0.000 A 
ATOM     10 CL   UNL     1       1.301   2.238  22.229  0.00  0.00    +0.000 Cl
ATOM     11  C   UNL     1       2.236   3.860  20.208  0.00  0.00    +0.000 A 
ATOM     12  C   UNL     1       0.929   4.612  20.180  0.00  0.00    +0.000 C 
ATOM     13  C   UNL     1       3.280   4.216  19.322  0.00  0.00    +0.000 A 
ATOM     14 CL   UNL     1       2.997   5.402  18.082  0.00  0.00    +0.000 Cl
ENDBRANCH   4   6
ENDBRANCH   1   2
BRANCH   1  15
ATOM     15  O   UNL     1       8.215   6.266  18.093  0.00  0.00    +0.000 OA
BRANCH  15  16
ATOM     16  C   UNL     1       7.560   7.085  17.219  0.00  0.00    +0.000 C 
ATOM     17  O   UNL     1       7.453   8.294  17.366  0.00  0.00    +0.000 OA
BRANCH  16  18
ATOM     18  C   UNL     1       6.824   6.255  16.172  0.00  0.00    +0.000 C 
BRANCH  18  19
ATOM     19  O   UNL     1       7.637   5.732  15.150  0.00  0.00    +0.000 OA
BRANCH  19  26
ATOM     20  C   UNL     1       5.128   3.774  15.418  0.00  0.00    +0.000 C 
ATOM     21  C   UNL     1       5.974   4.077  14.212  0.00  0.00    +0.000 A 
ATOM     22  C   UNL     1       5.606   3.395  13.028  0.00  0.00    +0.000 A 
ATOM     23  C   UNL     1       6.303   3.566  11.833  0.00  0.00    +0.000 A 
ATOM     24  C   UNL     1       7.388   4.423  11.795  0.00  0.00    +0.000 A 
ATOM     25  C   UNL     1       7.768   5.107  12.952  0.00  0.00    +0.000 A 
ATOM     26  C   UNL     1       7.077   4.953  14.169  0.00  0.00    +0.000 A 
ENDBRANCH  19  26
ENDBRANCH  18  19
ENDBRANCH  16  18
ENDBRANCH  15  16
ENDBRANCH   1  15
TORSDOF 7
ENDMDL
MODEL 6
REMARK VINA RESULT:      -7.1      5.124      7.145
REMARK  Name = 
REMARK  9 active torsions:
REMARK  status: ('A' for Active; 'I' for Inactive)
REMARK    1  A    between atoms: C_1  and  C_2
REMARK    2  A    between atoms: C_7  and  O_8
REMARK    3  A    between atoms: O_8  and  C_9
REMARK    4  A    between atoms: C_9  and  C_10
REMARK    5  A    between atoms: C_10  and  O_12
REMARK    6  A    between atoms: O_12  and  C_13
REMARK    7  A    between atoms: C_13  and  C_14
REMARK    8  A    between atoms: N_16  and  C_17
REMARK    9  A    between atoms: C_22  and  C_23
REMARK                            x       y       z     vdW  Elec       q    Type
REMARK                         _______ _______ _______ _____ _____    ______ ____
ROOT
ATOM      1  C   UNL     1       7.516   5.297  17.574  0.00  0.00    +0.000 C 
ENDROOT
BRANCH   1   2
ATOM      2  C   UNL     1       6.431   5.026  18.632  0.00  0.00    +0.000 C 
ATOM      3  O   UNL     1       6.636   5.205  19.832  0.00  0.00    +0.000 OA
ATOM      4  N   UNL     1       5.254   4.508  18.115  0.00  0.00    +0.000 N 
ATOM      5  H   UNL     1       5.377   3.850  17.355  0.00  0.00    +0.000 HD
BRANCH   4   6
ATOM      6  C   UNL     1       4.210   4.128  18.982  0.00  0.00    +0.000 A 
ATOM      7  N   UNL     1       4.284   2.838  19.381  0.00  0.00    +0.000 NA
ATOM      8  C   UNL     1       3.350   2.426  20.276  0.00  0.00    +0.000 A 
ATOM      9  C   UNL     1       2.316   3.222  20.755  0.00  0.00    +0.000 A 
ATOM     10 CL   UNL     1       1.219   2.518  21.891  0.00  0.00    +0.000 Cl
ATOM     11  C   UNL     1       2.192   4.533  20.286  0.00  0.00    +0.000 A 
ATOM     12  C   UNL     1       1.066   5.442  20.710  0.00  0.00    +0.000 C 
ATOM     13  C   UNL     1       3.166   4.990  19.365  0.00  0.00    +0.000 A 
ATOM     14 CL   UNL     1       2.968   6.533  18.589  0.00  0.00    +0.000 Cl
ENDBRANCH   4   6
ENDBRANCH   1   2
BRANCH   1  15
ATOM     15  O   UNL     1       8.306   6.426  17.961  0.00  0.00    +0.000 OA
BRANCH  15  16
ATOM     16  C   UNL     1       7.723   7.623  17.656  0.00  0.00    +0.000 C 
ATOM     17  O   UNL     1       6.922   7.780  16.746  0.00  0.00    +0.000 OA
BRANCH  16  18
ATOM     18  C   UNL     1       8.367   8.743  18.468  0.00  0.00    +0.000 C 
BRANCH  18  19
ATOM     19  O   UNL     1       8.788   9.854  17.718  0.00  0.00    +0.000 OA
BRANCH  19  26
ATOM     20  C   UNL     1       7.754  12.817  17.119  0.00  0.00    +0.000 C 
ATOM     21  C   UNL     1       8.732  12.342  18.158  0.00  0.00    +0.000 A 
ATOM     22  C   UNL     1       9.272  13.353  18.988  0.00  0.00    +0.000 A 
ATOM     23  C   UNL     1      10.197  13.068  19.990  0.00  0.00    +0.000 A 
ATOM     24  C   UNL     1      10.608  11.761  20.185  0.00  0.00    +0.000 A 
ATOM     25  C   UNL     1      10.087  10.747  19.378  0.00  0.00    +0.000 A 
ATOM     26  C   UNL     1       9.149  11.012  18.362  0.00  0.00    +0.000 A 
ENDBRANCH  19  26
ENDBRANCH  18  19
ENDBRANCH  16  18
ENDBRANCH  15  16
ENDBRANCH   1  15
TORSDOF 7
ENDMDL
MODEL 7
REMARK VINA RESULT:      -7.0      0.572      1.505
REMARK  Name = 
REMARK  9 active torsions:
REMARK  status: ('A' for Active; 'I' for Inactive)
REMARK    1  A    between atoms: C_1  and  C_2
REMARK    2  A    between atoms: C_7  and  O_8
REMARK    3  A    between atoms: O_8  and  C_9
REMARK    4  A    between atoms: C_9  and  C_10
REMARK    5  A    between atoms: C_10  and  O_12
REMARK    6  A    between atoms: O_12  and  C_13
REMARK    7  A    between atoms: C_13  and  C_14
REMARK    8  A    between atoms: N_16  and  C_17
REMARK    9  A    between atoms: C_22  and  C_23
REMARK                            x       y       z     vdW  Elec       q    Type
REMARK                         _______ _______ _______ _____ _____    ______ ____
ROOT
ATOM      1  C   UNL     1       3.000   3.701  20.396  0.00  0.00    +0.000 C 
ENDROOT
BRANCH   1   2
ATOM      2  C   UNL     1       2.063   4.920  20.431  0.00  0.00    +0.000 C 
ATOM      3  O   UNL     1       0.839   4.798  20.490  0.00  0.00    +0.000 OA
ATOM      4  N   UNL     1       2.715   6.138  20.324  0.00  0.00    +0.000 N 
ATOM      5  H   UNL     1       3.505   6.143  19.690  0.00  0.00    +0.000 HD
BRANCH   4   6
ATOM      6  C   UNL     1       1.971   7.333  20.250  0.00  0.00    +0.000 A 
ATOM      7  N   UNL     1       1.197   7.554  21.336  0.00  0.00    +0.000 NA
ATOM      8  C   UNL     1       0.511   8.725  21.364  0.00  0.00    +0.000 A 
ATOM      9  C   UNL     1       0.519   9.665  20.339  0.00  0.00    +0.000 A 
ATOM     10 CL   UNL     1      -0.423  11.099  20.555  0.00  0.00    +0.000 Cl
ATOM     11  C   UNL     1       1.260   9.404  19.182  0.00  0.00    +0.000 A 
ATOM     12  C   UNL     1       1.275  10.343  18.002  0.00  0.00    +0.000 C 
ATOM     13  C   UNL     1       1.997   8.197  19.139  0.00  0.00    +0.000 A 
ATOM     14 CL   UNL     1       2.778   7.711  17.664  0.00  0.00    +0.000 Cl
ENDBRANCH   4   6
ENDBRANCH   1   2
BRANCH   1  15
ATOM     15  O   UNL     1       2.321   2.577  19.825  0.00  0.00    +0.000 OA
BRANCH  15  16
ATOM     16  C   UNL     1       2.038   2.734  18.498  0.00  0.00    +0.000 C 
ATOM     17  O   UNL     1       0.914   2.644  18.025  0.00  0.00    +0.000 OA
BRANCH  16  18
ATOM     18  C   UNL     1       3.330   2.828  17.693  0.00  0.00    +0.000 C 
BRANCH  18  19
ATOM     19  O   UNL     1       3.556   4.071  17.076  0.00  0.00    +0.000 OA
BRANCH  19  26
ATOM     20  C   UNL     1       5.511   4.148  14.551  0.00  0.00    +0.000 C 
ATOM     21  C   UNL     1       5.742   4.653  15.949  0.00  0.00    +0.000 A 
ATOM     22  C   UNL     1       7.006   5.247  16.177  0.00  0.00    +0.000 A 
ATOM     23  C   UNL     1       7.368   5.752  17.424  0.00  0.00    +0.000 A 
ATOM     24  C   UNL     1       6.473   5.675  18.476  0.00  0.00    +0.000 A 
ATOM     25  C   UNL     1       5.219   5.094  18.273  0.00  0.00    +0.000 A 
ATOM     26  C   UNL     1       4.830   4.580  17.021  0.00  0.00    +0.000 A 
ENDBRANCH  19  26
ENDBRANCH  18  19
ENDBRANCH  16  18
ENDBRANCH  15  16
ENDBRANCH   1  15
TORSDOF 7
ENDMDL
MODEL 8
REMARK VINA RESULT:      -6.9      2.451      6.146
REMARK  Name = 
REMARK  9 active torsions:
REMARK  status: ('A' for Active; 'I' for Inactive)
REMARK    1  A    between atoms: C_1  and  C_2
REMARK    2  A    between atoms: C_7  and  O_8
REMARK    3  A    between atoms: O_8  and  C_9
REMARK    4  A    between atoms: C_9  and  C_10
REMARK    5  A    between atoms: C_10  and  O_12
REMARK    6  A    between atoms: O_12  and  C_13
REMARK    7  A    between atoms: C_13  and  C_14
REMARK    8  A    between atoms: N_16  and  C_17
REMARK    9  A    between atoms: C_22  and  C_23
REMARK                            x       y       z     vdW  Elec       q    Type
REMARK                         _______ _______ _______ _____ _____    ______ ____
ROOT
ATOM      1  C   UNL     1       1.369   2.504  18.878  0.00  0.00    +0.000 C 
ENDROOT
BRANCH   1   2
ATOM      2  C   UNL     1       2.318   3.324  17.987  0.00  0.00    +0.000 C 
ATOM      3  O   UNL     1       1.896   4.096  17.126  0.00  0.00    +0.000 OA
ATOM      4  N   UNL     1       3.662   3.061  18.200  0.00  0.00    +0.000 N 
ATOM      5  H   UNL     1       3.880   2.090  18.389  0.00  0.00    +0.000 HD
BRANCH   4   6
ATOM      6  C   UNL     1       4.638   3.674  17.389  0.00  0.00    +0.000 A 
ATOM      7  N   UNL     1       4.828   3.048  16.206  0.00  0.00    +0.000 NA
ATOM      8  C   UNL     1       5.702   3.630  15.346  0.00  0.00    +0.000 A 
ATOM      9  C   UNL     1       6.435   4.777  15.626  0.00  0.00    +0.000 A 
ATOM     10 CL   UNL     1       7.504   5.368  14.402  0.00  0.00    +0.000 Cl
ATOM     11  C   UNL     1       6.297   5.384  16.878  0.00  0.00    +0.000 A 
ATOM     12  C   UNL     1       7.098   6.597  17.283  0.00  0.00    +0.000 C 
ATOM     13  C   UNL     1       5.378   4.805  17.784  0.00  0.00    +0.000 A 
ATOM     14 CL   UNL     1       5.297   5.381  19.423  0.00  0.00    +0.000 Cl
ENDBRANCH   4   6
ENDBRANCH   1   2
BRANCH   1  15
ATOM     15  O   UNL     1       0.794   3.343  19.885  0.00  0.00    +0.000 OA
BRANCH  15  16
ATOM     16  C   UNL     1       1.725   4.005  20.633  0.00  0.00    +0.000 C 
ATOM     17  O   UNL     1       2.613   3.451  21.264  0.00  0.00    +0.000 OA
BRANCH  16  18
ATOM     18  C   UNL     1       1.369   5.486  20.724  0.00  0.00    +0.000 C 
BRANCH  18  19
ATOM     19  O   UNL     1       2.343   6.363  20.213  0.00  0.00    +0.000 OA
BRANCH  19  26
ATOM     20  C   UNL     1       3.097   7.730  17.426  0.00  0.00    +0.000 C 
ATOM     21  C   UNL     1       2.256   8.266  18.552  0.00  0.00    +0.000 A 
ATOM     22  C   UNL     1       1.724   9.561  18.347  0.00  0.00    +0.000 A 
ATOM     23  C   UNL     1       0.933  10.193  19.305  0.00  0.00    +0.000 A 
ATOM     24  C   UNL     1       0.656   9.543  20.495  0.00  0.00    +0.000 A 
ATOM     25  C   UNL     1       1.170   8.264  20.718  0.00  0.00    +0.000 A 
ATOM     26  C   UNL     1       1.968   7.605  19.763  0.00  0.00    +0.000 A 
ENDBRANCH  19  26
ENDBRANCH  18  19
ENDBRANCH  16  18
ENDBRANCH  15  16
ENDBRANCH   1  15
TORSDOF 7
ENDMDL
MODEL 9
REMARK VINA RESULT:      -6.8      2.524      6.017
REMARK  Name = 
REMARK  9 active torsions:
REMARK  status: ('A' for Active; 'I' for Inactive)
REMARK    1  A    between atoms: C_1  and  C_2
REMARK    2  A    between atoms: C_7  and  O_8
REMARK    3  A    between atoms: O_8  and  C_9
REMARK    4  A    between atoms: C_9  and  C_10
REMARK    5  A    between atoms: C_10  and  O_12
REMARK    6  A    between atoms: O_12  and  C_13
REMARK    7  A    between atoms: C_13  and  C_14
REMARK    8  A    between atoms: N_16  and  C_17
REMARK    9  A    between atoms: C_22  and  C_23
REMARK                            x       y       z     vdW  Elec       q    Type
REMARK                         _______ _______ _______ _____ _____    ______ ____
ROOT
ATOM      1  C   UNL     1       3.080   2.630  21.026  0.00  0.00    +0.000 C 
ENDROOT
BRANCH   1   2
ATOM      2  C   UNL     1       4.103   2.807  19.890  0.00  0.00    +0.000 C 
ATOM      3  O   UNL     1       5.167   2.188  19.872  0.00  0.00    +0.000 OA
ATOM      4  N   UNL     1       3.745   3.760  18.950  0.00  0.00    +0.000 N 
ATOM      5  H   UNL     1       3.283   4.578  19.329  0.00  0.00    +0.000 HD
BRANCH   4   6
ATOM      6  C   UNL     1       4.632   4.089  17.905  0.00  0.00    +0.000 A 
ATOM      7  N   UNL     1       4.414   3.385  16.772  0.00  0.00    +0.000 NA
ATOM      8  C   UNL     1       5.185   3.706  15.702  0.00  0.00    +0.000 A 
ATOM      9  C   UNL     1       6.197   4.659  15.720  0.00  0.00    +0.000 A 
ATOM     10 CL   UNL     1       7.076   4.927  14.255  0.00  0.00    +0.000 Cl
ATOM     11  C   UNL     1       6.474   5.336  16.912  0.00  0.00    +0.000 A 
ATOM     12  C   UNL     1       7.592   6.341  17.031  0.00  0.00    +0.000 C 
ATOM     13  C   UNL     1       5.670   5.030  18.035  0.00  0.00    +0.000 A 
ATOM     14 CL   UNL     1       6.080   5.679  19.596  0.00  0.00    +0.000 Cl
ENDBRANCH   4   6
ENDBRANCH   1   2
BRANCH   1  15
ATOM     15  O   UNL     1       2.531   3.900  21.394  0.00  0.00    +0.000 OA
BRANCH  15  16
ATOM     16  C   UNL     1       1.381   4.206  20.723  0.00  0.00    +0.000 C 
ATOM     17  O   UNL     1       0.708   3.387  20.115  0.00  0.00    +0.000 OA
BRANCH  16  18
ATOM     18  C   UNL     1       1.187   5.718  20.677  0.00  0.00    +0.000 C 
BRANCH  18  19
ATOM     19  O   UNL     1       2.252   6.436  20.104  0.00  0.00    +0.000 OA
BRANCH  19  26
ATOM     20  C   UNL     1       3.260   7.472  17.255  0.00  0.00    +0.000 C 
ATOM     21  C   UNL     1       2.417   8.179  18.281  0.00  0.00    +0.000 A 
ATOM     22  C   UNL     1       2.014   9.490  17.934  0.00  0.00    +0.000 A 
ATOM     23  C   UNL     1       1.239  10.273  18.787  0.00  0.00    +0.000 A 
ATOM     24  C   UNL     1       0.847   9.761  20.012  0.00  0.00    +0.000 A 
ATOM     25  C   UNL     1       1.232   8.469  20.374  0.00  0.00    +0.000 A 
ATOM     26  C   UNL     1       2.013   7.659  19.527  0.00  0.00    +0.000 A 
ENDBRANCH  19  26
ENDBRANCH  18  19
ENDBRANCH  16  18
ENDBRANCH  15  16
ENDBRANCH   1  15
TORSDOF 7
ENDMDL
