MODEL 1
REMARK VINA RESULT:      -8.4      0.000      0.000
REMARK  Name = 
REMARK  5 active torsions:
REMARK  status: ('A' for Active; 'I' for Inactive)
REMARK    1  A    between atoms: C_1  and  N_2
REMARK    2  A    between atoms: N_2  and  C_20
REMARK    3  A    between atoms: C_6  and  C_7
REMARK    4  A    between atoms: C_10  and  C_11
REMARK    5  A    between atoms: C_17  and  O_18
REMARK                            x       y       z     vdW  Elec       q    Type
REMARK                         _______ _______ _______ _____ _____    ______ ____
ROOT
ATOM      1  C   UNL     1       4.657   6.698  16.748  0.00  0.00    +0.000 C 
ATOM      2  N   UNL     1       3.791   6.127  17.771  0.00  0.00    +0.000 N 
ATOM      3  C   UNL     1       2.982   6.934  18.521  0.00  0.00    +0.000 A 
ATOM      4  N   UNL     1       2.554   6.634  19.733  0.00  0.00    +0.000 NA
ATOM      5  N   UNL     1       1.753   7.609  20.287  0.00  0.00    +0.000 NA
ATOM      6  C   UNL     1       1.513   8.594  19.442  0.00  0.00    +0.000 A 
ATOM      7  S   UNL     1       2.401   8.459  17.980  0.00  0.00    +0.000 S 
ENDROOT
BRANCH   2   8
ATOM      8  C   UNL     1       3.411   4.690  17.691  0.00  0.00    +0.000 C 
ATOM      9  C   UNL     1       1.873   4.562  17.733  0.00  0.00    +0.000 C 
ATOM     10  C   UNL     1       1.308   3.804  18.939  0.00  0.00    +0.000 C 
ATOM     11  C   UNL     1       1.347   2.292  18.737  0.00  0.00    +0.000 C 
ATOM     12  C   UNL     1       2.676   1.859  19.342  0.00  0.00    +0.000 C 
ATOM     13  C   UNL     1       3.333   3.158  19.804  0.00  0.00    +0.000 C 
ATOM     14  N   UNL     1       2.144   3.965  20.128  0.00  0.00    +0.000 NA
ATOM     15  C   UNL     1       4.195   3.790  18.693  0.00  0.00    +0.000 C 
ATOM     16  F   UNL     1       5.197   4.501  19.292  0.00  0.00    +0.000 F 
ATOM     17  H   UNL     1       2.395   4.938  20.294  0.00  0.00    +0.000 HD
ENDBRANCH   2   8
BRANCH   6  18
ATOM     18  C   UNL     1       0.632   9.733  19.712  0.00  0.00    +0.000 A 
ATOM     19  C   UNL     1      -0.151  10.249  18.670  0.00  0.00    +0.000 A 
ATOM     20  C   UNL     1      -0.998  11.340  18.881  0.00  0.00    +0.000 A 
ATOM     21  C   UNL     1      -1.068  11.946  20.145  0.00  0.00    +0.000 A 
ATOM     22  C   UNL     1      -0.290  11.438  21.195  0.00  0.00    +0.000 A 
ATOM     23  C   UNL     1       0.560  10.361  20.967  0.00  0.00    +0.000 A 
BRANCH  21  24
ATOM     24  C   UNL     1      -1.939  13.082  20.375  0.00  0.00    +0.000 A 
ATOM     25  C   UNL     1      -1.635  14.438  20.632  0.00  0.00    +0.000 A 
ATOM     26  N   UNL     1      -2.733  15.192  20.783  0.00  0.00    +0.000 NA
ATOM     27  N   UNL     1      -3.734  14.312  20.628  0.00  0.00    +0.000 N 
ATOM     28  C   UNL     1      -3.314  13.038  20.379  0.00  0.00    +0.000 A 
ATOM     29  H   UNL     1      -4.687  14.655  20.703  0.00  0.00    +0.000 HD
ENDBRANCH  21  24
BRANCH  23  30
ATOM     30  O   UNL     1       1.355   9.929  21.989  0.00  0.00    +0.000 OA
ATOM     31  H   UNL     1       2.044  10.589  22.175  0.00  0.00    +0.000 HD
ENDBRANCH  23  30
ENDBRANCH   6  18
TORSDOF 4
ENDMDL
MODEL 2
REMARK VINA RESULT:      -8.3      2.301      3.318
REMARK  Name = 
REMARK  5 active torsions:
REMARK  status: ('A' for Active; 'I' for Inactive)
REMARK    1  A    between atoms: C_1  and  N_2
REMARK    2  A    between atoms: N_2  and  C_20
REMARK    3  A    between atoms: C_6  and  C_7
REMARK    4  A    between atoms: C_10  and  C_11
REMARK    5  A    between atoms: C_17  and  O_18
REMARK                            x       y       z     vdW  Elec       q    Type
REMARK                         _______ _______ _______ _____ _____    ______ ____
ROOT
ATOM      1  C   UNL     1       2.563   4.897  18.168  0.00  0.00    +0.000 C 
ATOM      2  N   UNL     1       3.150   6.182  17.815  0.00  0.00    +0.000 N 
ATOM      3  C   UNL     1       2.545   7.346  18.197  0.00  0.00    +0.000 A 
ATOM      4  N   UNL     1       2.680   8.496  17.562  0.00  0.00    +0.000 NA
ATOM      5  N   UNL     1       1.969   9.527  18.138  0.00  0.00    +0.000 NA
ATOM      6  C   UNL     1       1.378   9.156  19.259  0.00  0.00    +0.000 A 
ATOM      7  S   UNL     1       1.522   7.476  19.574  0.00  0.00    +0.000 S 
ENDROOT
BRANCH   2   8
ATOM      8  C   UNL     1       4.599   6.261  17.484  0.00  0.00    +0.000 C 
ATOM      9  C   UNL     1       4.849   5.608  16.107  0.00  0.00    +0.000 C 
ATOM     10  C   UNL     1       5.753   4.371  16.119  0.00  0.00    +0.000 C 
ATOM     11  C   UNL     1       7.233   4.742  16.122  0.00  0.00    +0.000 C 
ATOM     12  C   UNL     1       7.615   4.787  17.596  0.00  0.00    +0.000 C 
ATOM     13  C   UNL     1       6.315   4.490  18.341  0.00  0.00    +0.000 C 
ATOM     14  N   UNL     1       5.634   3.618  17.368  0.00  0.00    +0.000 NA
ATOM     15  C   UNL     1       5.521   5.776  18.642  0.00  0.00    +0.000 C 
ATOM     16  F   UNL     1       4.792   5.565  19.778  0.00  0.00    +0.000 F 
ATOM     17  H   UNL     1       4.664   3.460  17.632  0.00  0.00    +0.000 HD
ENDBRANCH   2   8
BRANCH   6  18
ATOM     18  C   UNL     1       0.617  10.048  20.139  0.00  0.00    +0.000 A 
ATOM     19  C   UNL     1       0.478   9.710  21.492  0.00  0.00    +0.000 A 
ATOM     20  C   UNL     1      -0.247  10.527  22.364  0.00  0.00    +0.000 A 
ATOM     21  C   UNL     1      -0.859  11.698  21.891  0.00  0.00    +0.000 A 
ATOM     22  C   UNL     1      -0.725  12.045  20.540  0.00  0.00    +0.000 A 
ATOM     23  C   UNL     1      -0.013  11.215  19.679  0.00  0.00    +0.000 A 
BRANCH  21  24
ATOM     24  C   UNL     1      -1.618  12.551  22.785  0.00  0.00    +0.000 A 
ATOM     25  C   UNL     1      -2.902  12.380  23.350  0.00  0.00    +0.000 A 
ATOM     26  N   UNL     1      -3.255  13.402  24.143  0.00  0.00    +0.000 NA
ATOM     27  N   UNL     1      -2.196  14.223  24.077  0.00  0.00    +0.000 N 
ATOM     28  C   UNL     1      -1.188  13.760  23.281  0.00  0.00    +0.000 A 
ATOM     29  H   UNL     1      -2.229  15.089  24.607  0.00  0.00    +0.000 HD
ENDBRANCH  21  24
BRANCH  23  30
ATOM     30  O   UNL     1       0.045  11.544  18.356  0.00  0.00    +0.000 OA
ATOM     31  H   UNL     1       0.164  10.742  17.820  0.00  0.00    +0.000 HD
ENDBRANCH  23  30
ENDBRANCH   6  18
TORSDOF 4
ENDMDL
MODEL 3
REMARK VINA RESULT:      -8.3      2.143      3.503
REMARK  Name = 
REMARK  5 active torsions:
REMARK  status: ('A' for Active; 'I' for Inactive)
REMARK    1  A    between atoms: C_1  and  N_2
REMARK    2  A    between atoms: N_2  and  C_20
REMARK    3  A    between atoms: C_6  and  C_7
REMARK    4  A    between atoms: C_10  and  C_11
REMARK    5  A    between atoms: C_17  and  O_18
REMARK                            x       y       z     vdW  Elec       q    Type
REMARK                         _______ _______ _______ _____ _____    ______ ____
ROOT
ATOM      1  C   UNL     1       2.548   3.018  19.769  0.00  0.00    +0.000 C 
ATOM      2  N   UNL     1       3.231   4.076  19.036  0.00  0.00    +0.000 N 
ATOM      3  C   UNL     1       2.776   5.363  19.098  0.00  0.00    +0.000 A 
ATOM      4  N   UNL     1       2.975   6.266  18.155  0.00  0.00    +0.000 NA
ATOM      5  N   UNL     1       2.416   7.492  18.445  0.00  0.00    +0.000 NA
ATOM      6  C   UNL     1       1.879   7.520  19.650  0.00  0.00    +0.000 A 
ATOM      7  S   UNL     1       1.879   5.990  20.425  0.00  0.00    +0.000 S 
ENDROOT
BRANCH   2   8
ATOM      8  C   UNL     1       4.651   3.890  18.631  0.00  0.00    +0.000 C 
ATOM      9  C   UNL     1       5.523   4.977  19.295  0.00  0.00    +0.000 C 
ATOM     10  C   UNL     1       6.224   5.939  18.331  0.00  0.00    +0.000 C 
ATOM     11  C   UNL     1       7.520   5.353  17.777  0.00  0.00    +0.000 C 
ATOM     12  C   UNL     1       7.109   4.670  16.479  0.00  0.00    +0.000 C 
ATOM     13  C   UNL     1       5.596   4.867  16.402  0.00  0.00    +0.000 C 
ATOM     14  N   UNL     1       5.449   6.150  17.108  0.00  0.00    +0.000 NA
ATOM     15  C   UNL     1       4.834   3.718  17.094  0.00  0.00    +0.000 C 
ATOM     16  F   UNL     1       3.621   3.588  16.478  0.00  0.00    +0.000 F 
ATOM     17  H   UNL     1       4.471   6.354  17.302  0.00  0.00    +0.000 HD
ENDBRANCH   2   8
BRANCH   6  18
ATOM     18  C   UNL     1       1.280   8.705  20.272  0.00  0.00    +0.000 A 
ATOM     19  C   UNL     1       0.973   8.672  21.640  0.00  0.00    +0.000 A 
ATOM     20  C   UNL     1       0.393   9.775  22.271  0.00  0.00    +0.000 A 
ATOM     21  C   UNL     1       0.097  10.935  21.538  0.00  0.00    +0.000 A 
ATOM     22  C   UNL     1       0.401  10.978  20.170  0.00  0.00    +0.000 A 
ATOM     23  C   UNL     1       0.964   9.867  19.550  0.00  0.00    +0.000 A 
BRANCH  21  24
ATOM     24  C   UNL     1      -0.510  12.084  22.180  0.00  0.00    +0.000 A 
ATOM     25  C   UNL     1      -0.242  13.465  22.041  0.00  0.00    +0.000 A 
ATOM     26  N   UNL     1      -1.034  14.222  22.812  0.00  0.00    +0.000 NA
ATOM     27  N   UNL     1      -1.802  13.322  23.445  0.00  0.00    +0.000 N 
ATOM     28  C   UNL     1      -1.532  12.029  23.100  0.00  0.00    +0.000 A 
ATOM     29  H   UNL     1      -2.498  13.664  24.101  0.00  0.00    +0.000 HD
ENDBRANCH  21  24
BRANCH  23  30
ATOM     30  O   UNL     1       1.188   9.914  18.205  0.00  0.00    +0.000 OA
ATOM     31  H   UNL     1       0.932   9.070  17.796  0.00  0.00    +0.000 HD
ENDBRANCH  23  30
ENDBRANCH   6  18
TORSDOF 4
ENDMDL
MODEL 4
REMARK VINA RESULT:      -8.2      3.347      9.670
REMARK  Name = 
REMARK  5 active torsions:
REMARK  status: ('A' for Active; 'I' for Inactive)
REMARK    1  A    between atoms: C_1  and  N_2
REMARK    2  A    between atoms: N_2  and  C_20
REMARK    3  A    between atoms: C_6  and  C_7
REMARK    4  A    between atoms: C_10  and  C_11
REMARK    5  A    between atoms: C_17  and  O_18
REMARK                            x       y       z     vdW  Elec       q    Type
REMARK                         _______ _______ _______ _____ _____    ______ ____
ROOT
ATOM      1  C   UNL     1      -0.358  13.672  22.405  0.00  0.00    +0.000 C 
ATOM      2  N   UNL     1      -1.246  12.919  21.530  0.00  0.00    +0.000 N 
ATOM      3  C   UNL     1      -0.755  11.910  20.751  0.00  0.00    +0.000 A 
ATOM      4  N   UNL     1      -1.308  11.509  19.621  0.00  0.00    +0.000 NA
ATOM      5  N   UNL     1      -0.627  10.477  19.013  0.00  0.00    +0.000 NA
ATOM      6  C   UNL     1       0.385  10.052  19.746  0.00  0.00    +0.000 A 
ATOM      7  S   UNL     1       0.659  11.011  21.141  0.00  0.00    +0.000 S 
ENDROOT
BRANCH   2   8
ATOM      8  C   UNL     1      -2.707  12.890  21.816  0.00  0.00    +0.000 C 
ATOM      9  C   UNL     1      -3.252  14.334  21.856  0.00  0.00    +0.000 C 
ATOM     10  C   UNL     1      -3.824  14.786  23.204  0.00  0.00    +0.000 C 
ATOM     11  C   UNL     1      -5.265  14.322  23.400  0.00  0.00    +0.000 C 
ATOM     12  C   UNL     1      -5.143  12.989  24.125  0.00  0.00    +0.000 C 
ATOM     13  C   UNL     1      -3.640  12.752  24.251  0.00  0.00    +0.000 C 
ATOM     14  N   UNL     1      -3.149  14.138  24.329  0.00  0.00    +0.000 NA
ATOM     15  C   UNL     1      -3.077  11.991  23.034  0.00  0.00    +0.000 C 
ATOM     16  F   UNL     1      -1.989  11.277  23.450  0.00  0.00    +0.000 F 
ATOM     17  H   UNL     1      -2.135  14.175  24.244  0.00  0.00    +0.000 HD
ENDBRANCH   2   8
BRANCH   6  18
ATOM     18  C   UNL     1       1.247   8.916  19.405  0.00  0.00    +0.000 A 
ATOM     19  C   UNL     1       1.427   7.893  20.346  0.00  0.00    +0.000 A 
ATOM     20  C   UNL     1       2.247   6.797  20.066  0.00  0.00    +0.000 A 
ATOM     21  C   UNL     1       2.915   6.710  18.834  0.00  0.00    +0.000 A 
ATOM     22  C   UNL     1       2.741   7.727  17.886  0.00  0.00    +0.000 A 
ATOM     23  C   UNL     1       1.934   8.821  18.183  0.00  0.00    +0.000 A 
BRANCH  21  24
ATOM     24  C   UNL     1       3.773   5.580  18.534  0.00  0.00    +0.000 A 
ATOM     25  C   UNL     1       4.273   5.107  17.300  0.00  0.00    +0.000 A 
ATOM     26  N   UNL     1       5.050   4.024  17.442  0.00  0.00    +0.000 NA
ATOM     27  N   UNL     1       5.039   3.808  18.766  0.00  0.00    +0.000 N 
ATOM     28  C   UNL     1       4.293   4.712  19.466  0.00  0.00    +0.000 A 
ATOM     29  H   UNL     1       5.570   3.020  19.126  0.00  0.00    +0.000 HD
ENDBRANCH  21  24
BRANCH  23  30
ATOM     30  O   UNL     1       1.835   9.827  17.267  0.00  0.00    +0.000 OA
ATOM     31  H   UNL     1       0.984  10.286  17.370  0.00  0.00    +0.000 HD
ENDBRANCH  23  30
ENDBRANCH   6  18
TORSDOF 4
ENDMDL
MODEL 5
REMARK VINA RESULT:      -8.0      3.062      9.551
REMARK  Name = 
REMARK  5 active torsions:
REMARK  status: ('A' for Active; 'I' for Inactive)
REMARK    1  A    between atoms: C_1  and  N_2
REMARK    2  A    between atoms: N_2  and  C_20
REMARK    3  A    between atoms: C_6  and  C_7
REMARK    4  A    between atoms: C_10  and  C_11
REMARK    5  A    between atoms: C_17  and  O_18
REMARK                            x       y       z     vdW  Elec       q    Type
REMARK                         _______ _______ _______ _____ _____    ______ ____
ROOT
ATOM      1  C   UNL     1      -1.874  11.917  19.968  0.00  0.00    +0.000 C 
ATOM      2  N   UNL     1      -1.043  11.390  21.042  0.00  0.00    +0.000 N 
ATOM      3  C   UNL     1      -0.229  10.315  20.821  0.00  0.00    +0.000 A 
ATOM      4  N   UNL     1       0.168   9.478  21.762  0.00  0.00    +0.000 NA
ATOM      5  N   UNL     1       0.982   8.471  21.292  0.00  0.00    +0.000 NA
ATOM      6  C   UNL     1       1.262   8.617  20.010  0.00  0.00    +0.000 A 
ATOM      7  S   UNL     1       0.401   9.904  19.274  0.00  0.00    +0.000 S 
ENDROOT
BRANCH   2   8
ATOM      8  C   UNL     1      -0.697  12.261  22.198  0.00  0.00    +0.000 C 
ATOM      9  C   UNL     1      -1.954  12.491  23.064  0.00  0.00    +0.000 C 
ATOM     10  C   UNL     1      -2.434  13.943  23.158  0.00  0.00    +0.000 C 
ATOM     11  C   UNL     1      -1.663  14.735  24.210  0.00  0.00    +0.000 C 
ATOM     12  C   UNL     1      -0.514  15.375  23.442  0.00  0.00    +0.000 C 
ATOM     13  C   UNL     1      -0.674  14.865  22.011  0.00  0.00    +0.000 C 
ATOM     14  N   UNL     1      -2.135  14.698  21.941  0.00  0.00    +0.000 NA
ATOM     15  C   UNL     1       0.087  13.543  21.787  0.00  0.00    +0.000 C 
ATOM     16  F   UNL     1       0.448  13.483  20.470  0.00  0.00    +0.000 F 
ATOM     17  H   UNL     1      -2.407  14.195  21.099  0.00  0.00    +0.000 HD
ENDBRANCH   2   8
BRANCH   6  18
ATOM     18  C   UNL     1       2.167   7.752  19.247  0.00  0.00    +0.000 A 
ATOM     19  C   UNL     1       2.659   8.203  18.015  0.00  0.00    +0.000 A 
ATOM     20  C   UNL     1       3.516   7.407  17.251  0.00  0.00    +0.000 A 
ATOM     21  C   UNL     1       3.889   6.132  17.703  0.00  0.00    +0.000 A 
ATOM     22  C   UNL     1       3.402   5.671  18.935  0.00  0.00    +0.000 A 
ATOM     23  C   UNL     1       2.537   6.468  19.679  0.00  0.00    +0.000 A 
BRANCH  21  24
ATOM     24  C   UNL     1       4.773   5.294  16.917  0.00  0.00    +0.000 A 
ATOM     25  C   UNL     1       5.554   5.595  15.778  0.00  0.00    +0.000 A 
ATOM     26  N   UNL     1       6.252   4.539  15.339  0.00  0.00    +0.000 NA
ATOM     27  N   UNL     1       5.910   3.565  16.197  0.00  0.00    +0.000 N 
ATOM     28  C   UNL     1       5.031   3.965  17.162  0.00  0.00    +0.000 A 
ATOM     29  H   UNL     1       6.320   2.645  16.065  0.00  0.00    +0.000 HD
ENDBRANCH  21  24
BRANCH  23  30
ATOM     30  O   UNL     1       2.027   5.968  20.841  0.00  0.00    +0.000 OA
ATOM     31  H   UNL     1       1.257   6.492  21.119  0.00  0.00    +0.000 HD
ENDBRANCH  23  30
ENDBRANCH   6  18
TORSDOF 4
ENDMDL
MODEL 6
REMARK VINA RESULT:      -8.0      1.487      1.967
REMARK  Name = 
REMARK  5 active torsions:
REMARK  status: ('A' for Active; 'I' for Inactive)
REMARK    1  A    between atoms: C_1  and  N_2
REMARK    2  A    between atoms: N_2  and  C_20
REMARK    3  A    between atoms: C_6  and  C_7
REMARK    4  A    between atoms: C_10  and  C_11
REMARK    5  A    between atoms: C_17  and  O_18
REMARK                            x       y       z     vdW  Elec       q    Type
REMARK                         _______ _______ _______ _____ _____    ______ ____
ROOT
ATOM      1  C   UNL     1       3.760   6.930  17.838  0.00  0.00    +0.000 C 
ATOM      2  N   UNL     1       3.003   6.529  19.016  0.00  0.00    +0.000 N 
ATOM      3  C   UNL     1       2.188   7.423  19.651  0.00  0.00    +0.000 A 
ATOM      4  N   UNL     1       1.860   7.351  20.928  0.00  0.00    +0.000 NA
ATOM      5  N   UNL     1       1.028   8.371  21.338  0.00  0.00    +0.000 NA
ATOM      6  C   UNL     1       0.667   9.150  20.336  0.00  0.00    +0.000 A 
ATOM      7  S   UNL     1       1.467   8.773  18.866  0.00  0.00    +0.000 S 
ENDROOT
BRANCH   2   8
ATOM      8  C   UNL     1       2.720   5.086  19.251  0.00  0.00    +0.000 C 
ATOM      9  C   UNL     1       4.046   4.337  19.505  0.00  0.00    +0.000 C 
ATOM     10  C   UNL     1       4.403   3.262  18.474  0.00  0.00    +0.000 C 
ATOM     11  C   UNL     1       3.696   1.939  18.755  0.00  0.00    +0.000 C 
ATOM     12  C   UNL     1       2.411   2.011  17.939  0.00  0.00    +0.000 C 
ATOM     13  C   UNL     1       2.444   3.391  17.286  0.00  0.00    +0.000 C 
ATOM     14  N   UNL     1       3.896   3.591  17.142  0.00  0.00    +0.000 NA
ATOM     15  C   UNL     1       1.783   4.461  18.176  0.00  0.00    +0.000 C 
ATOM     16  F   UNL     1       1.275   5.433  17.359  0.00  0.00    +0.000 F 
ATOM     17  H   UNL     1       4.110   4.550  16.874  0.00  0.00    +0.000 HD
ENDBRANCH   2   8
BRANCH   6  18
ATOM     18  C   UNL     1      -0.275  10.269  20.442  0.00  0.00    +0.000 A 
ATOM     19  C   UNL     1      -0.964  10.687  19.296  0.00  0.00    +0.000 A 
ATOM     20  C   UNL     1      -1.863  11.755  19.350  0.00  0.00    +0.000 A 
ATOM     21  C   UNL     1      -2.081  12.436  20.558  0.00  0.00    +0.000 A 
ATOM     22  C   UNL     1      -1.397  12.025  21.711  0.00  0.00    +0.000 A 
ATOM     23  C   UNL     1      -0.493  10.970  21.639  0.00  0.00    +0.000 A 
BRANCH  21  24
ATOM     24  C   UNL     1      -3.007  13.549  20.626  0.00  0.00    +0.000 A 
ATOM     25  C   UNL     1      -2.792  14.907  20.953  0.00  0.00    +0.000 A 
ATOM     26  N   UNL     1      -3.916  15.635  20.894  0.00  0.00    +0.000 NA
ATOM     27  N   UNL     1      -4.846  14.737  20.535  0.00  0.00    +0.000 N 
ATOM     28  C   UNL     1      -4.355  13.476  20.358  0.00  0.00    +0.000 A 
ATOM     29  H   UNL     1      -5.803  15.058  20.425  0.00  0.00    +0.000 HD
ENDBRANCH  21  24
BRANCH  23  30
ATOM     30  O   UNL     1       0.208  10.634  22.761  0.00  0.00    +0.000 OA
ATOM     31  H   UNL     1       1.023  10.164  22.515  0.00  0.00    +0.000 HD
ENDBRANCH  23  30
ENDBRANCH   6  18
TORSDOF 4
ENDMDL
MODEL 7
REMARK VINA RESULT:      -7.9      2.191      3.147
REMARK  Name = 
REMARK  5 active torsions:
REMARK  status: ('A' for Active; 'I' for Inactive)
REMARK    1  A    between atoms: C_1  and  N_2
REMARK    2  A    between atoms: N_2  and  C_20
REMARK    3  A    between atoms: C_6  and  C_7
REMARK    4  A    between atoms: C_10  and  C_11
REMARK    5  A    between atoms: C_17  and  O_18
REMARK                            x       y       z     vdW  Elec       q    Type
REMARK                         _______ _______ _______ _____ _____    ______ ____
ROOT
ATOM      1  C   UNL     1       2.558   4.833  18.118  0.00  0.00    +0.000 C 
ATOM      2  N   UNL     1       3.144   6.139  17.849  0.00  0.00    +0.000 N 
ATOM      3  C   UNL     1       2.524   7.277  18.282  0.00  0.00    +0.000 A 
ATOM      4  N   UNL     1       2.666   8.461  17.714  0.00  0.00    +0.000 NA
ATOM      5  N   UNL     1       1.936   9.455  18.330  0.00  0.00    +0.000 NA
ATOM      6  C   UNL     1       1.322   9.019  19.414  0.00  0.00    +0.000 A 
ATOM      7  S   UNL     1       1.469   7.326  19.640  0.00  0.00    +0.000 S 
ENDROOT
BRANCH   2   8
ATOM      8  C   UNL     1       4.600   6.243  17.556  0.00  0.00    +0.000 C 
ATOM      9  C   UNL     1       4.884   5.672  16.151  0.00  0.00    +0.000 C 
ATOM     10  C   UNL     1       5.795   4.440  16.112  0.00  0.00    +0.000 C 
ATOM     11  C   UNL     1       7.273   4.816  16.170  0.00  0.00    +0.000 C 
ATOM     12  C   UNL     1       7.620   4.778  17.652  0.00  0.00    +0.000 C 
ATOM     13  C   UNL     1       6.306   4.433  18.349  0.00  0.00    +0.000 C 
ATOM     14  N   UNL     1       5.652   3.616  17.313  0.00  0.00    +0.000 NA
ATOM     15  C   UNL     1       5.499   5.697  18.706  0.00  0.00    +0.000 C 
ATOM     16  F   UNL     1       4.745   5.417  19.811  0.00  0.00    +0.000 F 
ATOM     17  H   UNL     1       4.677   3.439  17.545  0.00  0.00    +0.000 HD
ENDBRANCH   2   8
BRANCH   6  18
ATOM     18  C   UNL     1       0.536   9.858  20.325  0.00  0.00    +0.000 A 
ATOM     19  C   UNL     1      -0.382  10.770  19.786  0.00  0.00    +0.000 A 
ATOM     20  C   UNL     1      -1.145  11.594  20.618  0.00  0.00    +0.000 A 
ATOM     21  C   UNL     1      -0.993  11.529  22.011  0.00  0.00    +0.000 A 
ATOM     22  C   UNL     1      -0.077  10.619  22.560  0.00  0.00    +0.000 A 
ATOM     23  C   UNL     1       0.687   9.815  21.720  0.00  0.00    +0.000 A 
BRANCH  21  24
ATOM     24  C   UNL     1      -1.774  12.383  22.884  0.00  0.00    +0.000 A 
ATOM     25  C   UNL     1      -3.055  12.194  23.451  0.00  0.00    +0.000 A 
ATOM     26  N   UNL     1      -3.435  13.225  24.218  0.00  0.00    +0.000 NA
ATOM     27  N   UNL     1      -2.396  14.070  24.135  0.00  0.00    +0.000 N 
ATOM     28  C   UNL     1      -1.375  13.613  23.352  0.00  0.00    +0.000 A 
ATOM     29  H   UNL     1      -2.451  14.947  24.645  0.00  0.00    +0.000 HD
ENDBRANCH  21  24
BRANCH  23  30
ATOM     30  O   UNL     1       1.616   8.987  22.279  0.00  0.00    +0.000 OA
ATOM     31  H   UNL     1       1.175   8.239  22.715  0.00  0.00    +0.000 HD
ENDBRANCH  23  30
ENDBRANCH   6  18
TORSDOF 4
ENDMDL
MODEL 8
REMARK VINA RESULT:      -7.8      0.953      1.476
REMARK  Name = 
REMARK  5 active torsions:
REMARK  status: ('A' for Active; 'I' for Inactive)
REMARK    1  A    between atoms: C_1  and  N_2
REMARK    2  A    between atoms: N_2  and  C_20
REMARK    3  A    between atoms: C_6  and  C_7
REMARK    4  A    between atoms: C_10  and  C_11
REMARK    5  A    between atoms: C_17  and  O_18
REMARK                            x       y       z     vdW  Elec       q    Type
REMARK                         _______ _______ _______ _____ _____    ______ ____
ROOT
ATOM      1  C   UNL     1       4.727   6.723  16.737  0.00  0.00    +0.000 C 
ATOM      2  N   UNL     1       3.808   6.176  17.725  0.00  0.00    +0.000 N 
ATOM      3  C   UNL     1       2.993   7.004  18.444  0.00  0.00    +0.000 A 
ATOM      4  N   UNL     1       2.510   6.717  19.638  0.00  0.00    +0.000 NA
ATOM      5  N   UNL     1       1.715   7.713  20.162  0.00  0.00    +0.000 NA
ATOM      6  C   UNL     1       1.535   8.704  19.309  0.00  0.00    +0.000 A 
ATOM      7  S   UNL     1       2.474   8.545  17.883  0.00  0.00    +0.000 S 
ENDROOT
BRANCH   2   8
ATOM      8  C   UNL     1       3.391   4.750  17.629  0.00  0.00    +0.000 C 
ATOM      9  C   UNL     1       1.858   4.650  17.775  0.00  0.00    +0.000 C 
ATOM     10  C   UNL     1       1.362   3.866  18.995  0.00  0.00    +0.000 C 
ATOM     11  C   UNL     1       1.354   2.361  18.744  0.00  0.00    +0.000 C 
ATOM     12  C   UNL     1       2.713   1.883  19.241  0.00  0.00    +0.000 C 
ATOM     13  C   UNL     1       3.428   3.154  19.695  0.00  0.00    +0.000 C 
ATOM     14  N   UNL     1       2.283   3.973  20.126  0.00  0.00    +0.000 NA
ATOM     15  C   UNL     1       4.223   3.804  18.545  0.00  0.00    +0.000 C 
ATOM     16  F   UNL     1       5.281   4.475  19.093  0.00  0.00    +0.000 F 
ATOM     17  H   UNL     1       2.565   4.935  20.304  0.00  0.00    +0.000 HD
ENDBRANCH   2   8
BRANCH   6  18
ATOM     18  C   UNL     1       0.675   9.867  19.547  0.00  0.00    +0.000 A 
ATOM     19  C   UNL     1       0.737  10.516  20.787  0.00  0.00    +0.000 A 
ATOM     20  C   UNL     1      -0.071  11.623  21.058  0.00  0.00    +0.000 A 
ATOM     21  C   UNL     1      -0.972  12.096  20.091  0.00  0.00    +0.000 A 
ATOM     22  C   UNL     1      -1.042  11.454  18.847  0.00  0.00    +0.000 A 
ATOM     23  C   UNL     1      -0.242  10.343  18.595  0.00  0.00    +0.000 A 
BRANCH  21  24
ATOM     24  C   UNL     1      -1.820  13.239  20.363  0.00  0.00    +0.000 A 
ATOM     25  C   UNL     1      -3.169  13.307  20.780  0.00  0.00    +0.000 A 
ATOM     26  N   UNL     1      -3.598  14.567  20.932  0.00  0.00    +0.000 NA
ATOM     27  N   UNL     1      -2.522  15.300  20.607  0.00  0.00    +0.000 N 
ATOM     28  C   UNL     1      -1.431  14.555  20.262  0.00  0.00    +0.000 A 
ATOM     29  H   UNL     1      -2.604  16.312  20.645  0.00  0.00    +0.000 HD
ENDBRANCH  21  24
BRANCH  23  30
ATOM     30  O   UNL     1      -0.378   9.699  17.400  0.00  0.00    +0.000 OA
ATOM     31  H   UNL     1       0.442   9.779  16.884  0.00  0.00    +0.000 HD
ENDBRANCH  23  30
ENDBRANCH   6  18
TORSDOF 4
ENDMDL
MODEL 9
REMARK VINA RESULT:      -7.8      3.600     10.001
REMARK  Name = 
REMARK  5 active torsions:
REMARK  status: ('A' for Active; 'I' for Inactive)
REMARK    1  A    between atoms: C_1  and  N_2
REMARK    2  A    between atoms: N_2  and  C_20
REMARK    3  A    between atoms: C_6  and  C_7
REMARK    4  A    between atoms: C_10  and  C_11
REMARK    5  A    between atoms: C_17  and  O_18
REMARK                            x       y       z     vdW  Elec       q    Type
REMARK                         _______ _______ _______ _____ _____    ______ ____
ROOT
ATOM      1  C   UNL     1      -1.388  14.190  22.995  0.00  0.00    +0.000 C 
ATOM      2  N   UNL     1      -2.141  13.545  21.928  0.00  0.00    +0.000 N 
ATOM      3  C   UNL     1      -1.556  12.585  21.152  0.00  0.00    +0.000 A 
ATOM      4  N   UNL     1      -1.929  12.299  19.918  0.00  0.00    +0.000 NA
ATOM      5  N   UNL     1      -1.183  11.294  19.339  0.00  0.00    +0.000 NA
ATOM      6  C   UNL     1      -0.314  10.773  20.184  0.00  0.00    +0.000 A 
ATOM      7  S   UNL     1      -0.246  11.605  21.683  0.00  0.00    +0.000 S 
ENDROOT
BRANCH   2   8
ATOM      8  C   UNL     1      -3.629  13.549  21.974  0.00  0.00    +0.000 C 
ATOM      9  C   UNL     1      -4.137  15.003  22.079  0.00  0.00    +0.000 C 
ATOM     10  C   UNL     1      -4.908  15.341  23.360  0.00  0.00    +0.000 C 
ATOM     11  C   UNL     1      -6.373  14.921  23.275  0.00  0.00    +0.000 C 
ATOM     12  C   UNL     1      -6.404  13.517  23.866  0.00  0.00    +0.000 C 
ATOM     13  C   UNL     1      -4.947  13.207  24.202  0.00  0.00    +0.000 C 
ATOM     14  N   UNL     1      -4.441  14.557  24.503  0.00  0.00    +0.000 NA
ATOM     15  C   UNL     1      -4.214  12.549  23.016  0.00  0.00    +0.000 C 
ATOM     16  F   UNL     1      -3.226  11.752  23.522  0.00  0.00    +0.000 F 
ATOM     17  H   UNL     1      -3.426  14.560  24.584  0.00  0.00    +0.000 HD
ENDBRANCH   2   8
BRANCH   6  18
ATOM     18  C   UNL     1       0.564   9.636  19.888  0.00  0.00    +0.000 A 
ATOM     19  C   UNL     1       0.810   8.688  20.890  0.00  0.00    +0.000 A 
ATOM     20  C   UNL     1       1.646   7.595  20.653  0.00  0.00    +0.000 A 
ATOM     21  C   UNL     1       2.266   7.436  19.404  0.00  0.00    +0.000 A 
ATOM     22  C   UNL     1       2.027   8.379  18.394  0.00  0.00    +0.000 A 
ATOM     23  C   UNL     1       1.203   9.471  18.648  0.00  0.00    +0.000 A 
BRANCH  21  24
ATOM     24  C   UNL     1       3.141   6.309  19.148  0.00  0.00    +0.000 A 
ATOM     25  C   UNL     1       3.300   5.089  19.844  0.00  0.00    +0.000 A 
ATOM     26  N   UNL     1       4.217   4.291  19.282  0.00  0.00    +0.000 NA
ATOM     27  N   UNL     1       4.644   5.006  18.230  0.00  0.00    +0.000 N 
ATOM     28  C   UNL     1       4.031   6.218  18.102  0.00  0.00    +0.000 A 
ATOM     29  H   UNL     1       5.360   4.599  17.635  0.00  0.00    +0.000 HD
ENDBRANCH  21  24
BRANCH  23  30
ATOM     30  O   UNL     1       1.041  10.407  17.669  0.00  0.00    +0.000 OA
ATOM     31  H   UNL     1       1.707  11.108  17.766  0.00  0.00    +0.000 HD
ENDBRANCH  23  30
ENDBRANCH   6  18
TORSDOF 4
ENDMDL
