MODEL 1
REMARK VINA RESULT:      -6.8      0.000      0.000
REMARK  Name = 
REMARK  8 active torsions:
REMARK  status: ('A' for Active; 'I' for Inactive)
REMARK    1  A    between atoms: C_1  and  C_2
REMARK    2  A    between atoms: C_2  and  C_3
REMARK    3  A    between atoms: C_3  and  C_4
REMARK    4  A    between atoms: C_4  and  N_5
REMARK    5  A    between atoms: C_4  and  C_15
REMARK    6  A    between atoms: C_6  and  C_8
REMARK    7  A    between atoms: C_8  and  C_9
REMARK    8  A    between atoms: C_8  and  N_10
REMARK                            x       y       z     vdW  Elec       q    Type
REMARK                         _______ _______ _______ _____ _____    ______ ____
ROOT
ATOM      1  C   UNL     1       3.032   6.682  18.474  0.00  0.00    +0.000 C 
ENDROOT
BRANCH   1   2
ATOM      2  C   UNL     1       2.586   8.132  18.164  0.00  0.00    +0.000 C 
ATOM      3  O   UNL     1       3.169   8.761  17.265  0.00  0.00    +0.000 OA
ATOM      4  N   UNL     1       1.409   8.604  18.735  0.00  0.00    +0.000 N 
ATOM      5  C   UNL     1       0.714   9.669  17.976  0.00  0.00    +0.000 C 
ATOM      6  C   UNL     1      -0.721   9.921  18.470  0.00  0.00    +0.000 C 
ATOM      7  C   UNL     1      -0.541  10.341  19.885  0.00  0.00    +0.000 A 
ATOM      8  S   UNL     1      -1.191  11.754  20.547  0.00  0.00    +0.000 S 
ATOM      9  C   UNL     1      -0.165  11.614  21.913  0.00  0.00    +0.000 A 
ATOM     10  C   UNL     1       0.586  10.453  21.889  0.00  0.00    +0.000 A 
ATOM     11  C   UNL     1       0.381   9.699  20.690  0.00  0.00    +0.000 A 
ATOM     12  C   UNL     1       1.101   8.462  20.187  0.00  0.00    +0.000 C 
ENDBRANCH   1   2
BRANCH   1  13
ATOM     13  N   UNL     1       4.303   6.450  17.776  0.00  0.00    +0.000 N 
ATOM     14  C   UNL     1       5.352   5.747  18.334  0.00  0.00    +0.000 C 
ATOM     15  O   UNL     1       5.247   5.219  19.439  0.00  0.00    +0.000 OA
ATOM     16  H   UNL     1       4.462   7.030  16.957  0.00  0.00    +0.000 HD
BRANCH  14  17
ATOM     17  C   UNL     1       6.650   5.773  17.533  0.00  0.00    +0.000 C 
ATOM     18  C   UNL     1       7.767   5.143  18.366  0.00  0.00    +0.000 C 
BRANCH  17  19
ATOM     19  N   UNL     1       6.558   5.137  16.220  0.00  0.00    +0.000 N 
ATOM     20  C   UNL     1       5.910   4.001  15.836  0.00  0.00    +0.000 A 
ATOM     21  N   UNL     1       6.188   3.728  14.583  0.00  0.00    +0.000 NA
ATOM     22  C   UNL     1       7.042   4.731  14.231  0.00  0.00    +0.000 A 
ATOM     23  N   UNL     1       7.299   5.619  15.195  0.00  0.00    +0.000 NA
ENDBRANCH  17  19
ENDBRANCH  14  17
ENDBRANCH   1  13
BRANCH   1  24
ATOM     24  C   UNL     1       1.953   5.738  17.904  0.00  0.00    +0.000 C 
BRANCH  24  26
ATOM     25  C   UNL     1       2.478   3.250  17.712  0.00  0.00    +0.000 C 
ATOM     26  C   UNL     1       1.868   4.354  18.556  0.00  0.00    +0.000 C 
ENDBRANCH  24  26
ENDBRANCH   1  24
TORSDOF 6
ENDMDL
MODEL 2
REMARK VINA RESULT:      -6.8      2.640      4.627
REMARK  Name = 
REMARK  8 active torsions:
REMARK  status: ('A' for Active; 'I' for Inactive)
REMARK    1  A    between atoms: C_1  and  C_2
REMARK    2  A    between atoms: C_2  and  C_3
REMARK    3  A    between atoms: C_3  and  C_4
REMARK    4  A    between atoms: C_4  and  N_5
REMARK    5  A    between atoms: C_4  and  C_15
REMARK    6  A    between atoms: C_6  and  C_8
REMARK    7  A    between atoms: C_8  and  C_9
REMARK    8  A    between atoms: C_8  and  N_10
REMARK                            x       y       z     vdW  Elec       q    Type
REMARK                         _______ _______ _______ _____ _____    ______ ____
ROOT
ATOM      1  C   UNL     1       2.685   6.683  17.882  0.00  0.00    +0.000 C 
ENDROOT
BRANCH   1   2
ATOM      2  C   UNL     1       1.949   7.352  19.069  0.00  0.00    +0.000 C 
ATOM      3  O   UNL     1       1.952   6.786  20.175  0.00  0.00    +0.000 OA
ATOM      4  N   UNL     1       1.505   8.662  18.924  0.00  0.00    +0.000 N 
ATOM      5  C   UNL     1       1.396   9.441  20.179  0.00  0.00    +0.000 C 
ATOM      6  C   UNL     1       1.220  10.949  19.937  0.00  0.00    +0.000 C 
ATOM      7  C   UNL     1      -0.052  11.040  19.172  0.00  0.00    +0.000 A 
ATOM      8  S   UNL     1      -1.352  12.029  19.604  0.00  0.00    +0.000 S 
ATOM      9  C   UNL     1      -2.384  11.185  18.526  0.00  0.00    +0.000 A 
ATOM     10  C   UNL     1      -1.705  10.230  17.790  0.00  0.00    +0.000 A 
ATOM     11  C   UNL     1      -0.330  10.127  18.172  0.00  0.00    +0.000 A 
ATOM     12  C   UNL     1       0.725   9.126  17.740  0.00  0.00    +0.000 C 
ENDBRANCH   1   2
BRANCH   1  13
ATOM     13  N   UNL     1       2.863   5.263  18.214  0.00  0.00    +0.000 N 
ATOM     14  C   UNL     1       1.992   4.277  17.797  0.00  0.00    +0.000 C 
ATOM     15  O   UNL     1       1.041   4.538  17.062  0.00  0.00    +0.000 OA
ATOM     16  H   UNL     1       3.526   5.070  18.960  0.00  0.00    +0.000 HD
BRANCH  14  17
ATOM     17  C   UNL     1       2.238   2.896  18.396  0.00  0.00    +0.000 C 
ATOM     18  C   UNL     1       3.566   2.350  17.872  0.00  0.00    +0.000 C 
BRANCH  17  19
ATOM     19  N   UNL     1       2.201   2.862  19.858  0.00  0.00    +0.000 N 
ATOM     20  C   UNL     1       3.194   2.614  20.757  0.00  0.00    +0.000 A 
ATOM     21  N   UNL     1       2.697   2.565  21.971  0.00  0.00    +0.000 NA
ATOM     22  C   UNL     1       1.366   2.774  21.768  0.00  0.00    +0.000 A 
ATOM     23  N   UNL     1       1.011   2.963  20.494  0.00  0.00    +0.000 NA
ENDBRANCH  17  19
ENDBRANCH  14  17
ENDBRANCH   1  13
BRANCH   1  24
ATOM     24  C   UNL     1       4.067   7.358  17.761  0.00  0.00    +0.000 C 
BRANCH  24  26
ATOM     25  C   UNL     1       6.342   6.279  17.351  0.00  0.00    +0.000 C 
ATOM     26  C   UNL     1       5.027   6.733  16.744  0.00  0.00    +0.000 C 
ENDBRANCH  24  26
ENDBRANCH   1  24
TORSDOF 6
ENDMDL
MODEL 3
REMARK VINA RESULT:      -6.8      1.987      2.805
REMARK  Name = 
REMARK  8 active torsions:
REMARK  status: ('A' for Active; 'I' for Inactive)
REMARK    1  A    between atoms: C_1  and  C_2
REMARK    2  A    between atoms: C_2  and  C_3
REMARK    3  A    between atoms: C_3  and  C_4
REMARK    4  A    between atoms: C_4  and  N_5
REMARK    5  A    between atoms: C_4  and  C_15
REMARK    6  A    between atoms: C_6  and  C_8
REMARK    7  A    between atoms: C_8  and  C_9
REMARK    8  A    between atoms: C_8  and  N_10
REMARK                            x       y       z     vdW  Elec       q    Type
REMARK                         _______ _______ _______ _____ _____    ______ ____
ROOT
ATOM      1  C   UNL     1       3.906   4.423  20.021  0.00  0.00    +0.000 C 
ENDROOT
BRANCH   1   2
ATOM      2  C   UNL     1       2.471   4.975  20.209  0.00  0.00    +0.000 C 
ATOM      3  O   UNL     1       1.556   4.185  20.494  0.00  0.00    +0.000 OA
ATOM      4  N   UNL     1       2.290   6.352  20.279  0.00  0.00    +0.000 N 
ATOM      5  C   UNL     1       1.107   6.802  21.047  0.00  0.00    +0.000 C 
ATOM      6  C   UNL     1       1.133   8.306  21.365  0.00  0.00    +0.000 C 
ATOM      7  C   UNL     1       1.144   8.953  20.026  0.00  0.00    +0.000 A 
ATOM      8  S   UNL     1       0.054  10.149  19.540  0.00  0.00    +0.000 S 
ATOM      9  C   UNL     1       0.513   9.935  17.902  0.00  0.00    +0.000 A 
ATOM     10  C   UNL     1       1.549   9.028  17.762  0.00  0.00    +0.000 A 
ATOM     11  C   UNL     1       1.921   8.433  19.008  0.00  0.00    +0.000 A 
ATOM     12  C   UNL     1       2.888   7.298  19.291  0.00  0.00    +0.000 C 
ENDBRANCH   1   2
BRANCH   1  13
ATOM     13  N   UNL     1       4.517   5.149  18.900  0.00  0.00    +0.000 N 
ATOM     14  C   UNL     1       5.858   5.472  18.853  0.00  0.00    +0.000 C 
ATOM     15  O   UNL     1       6.632   5.105  19.736  0.00  0.00    +0.000 OA
ATOM     16  H   UNL     1       3.864   5.609  18.272  0.00  0.00    +0.000 HD
BRANCH  14  17
ATOM     17  C   UNL     1       6.267   6.387  17.704  0.00  0.00    +0.000 C 
ATOM     18  C   UNL     1       7.618   7.026  18.025  0.00  0.00    +0.000 C 
BRANCH  17  19
ATOM     19  N   UNL     1       6.298   5.732  16.397  0.00  0.00    +0.000 N 
ATOM     20  C   UNL     1       5.317   5.581  15.465  0.00  0.00    +0.000 A 
ATOM     21  N   UNL     1       5.744   4.820  14.483  0.00  0.00    +0.000 NA
ATOM     22  C   UNL     1       7.012   4.505  14.868  0.00  0.00    +0.000 A 
ATOM     23  N   UNL     1       7.401   5.037  16.030  0.00  0.00    +0.000 NA
ENDBRANCH  17  19
ENDBRANCH  14  17
ENDBRANCH   1  13
BRANCH   1  24
ATOM     24  C   UNL     1       3.778   2.929  19.656  0.00  0.00    +0.000 C 
BRANCH  24  26
ATOM     25  C   UNL     1       2.387   2.230  17.636  0.00  0.00    +0.000 C 
ATOM     26  C   UNL     1       3.761   2.609  18.158  0.00  0.00    +0.000 C 
ENDBRANCH  24  26
ENDBRANCH   1  24
TORSDOF 6
ENDMDL
MODEL 4
REMARK VINA RESULT:      -6.7      1.321      1.778
REMARK  Name = 
REMARK  8 active torsions:
REMARK  status: ('A' for Active; 'I' for Inactive)
REMARK    1  A    between atoms: C_1  and  C_2
REMARK    2  A    between atoms: C_2  and  C_3
REMARK    3  A    between atoms: C_3  and  C_4
REMARK    4  A    between atoms: C_4  and  N_5
REMARK    5  A    between atoms: C_4  and  C_15
REMARK    6  A    between atoms: C_6  and  C_8
REMARK    7  A    between atoms: C_8  and  C_9
REMARK    8  A    between atoms: C_8  and  N_10
REMARK                            x       y       z     vdW  Elec       q    Type
REMARK                         _______ _______ _______ _____ _____    ______ ____
ROOT
ATOM      1  C   UNL     1       3.016   6.419  19.562  0.00  0.00    +0.000 C 
ENDROOT
BRANCH   1   2
ATOM      2  C   UNL     1       2.744   7.628  18.632  0.00  0.00    +0.000 C 
ATOM      3  O   UNL     1       3.390   7.731  17.576  0.00  0.00    +0.000 OA
ATOM      4  N   UNL     1       1.637   8.430  18.888  0.00  0.00    +0.000 N 
ATOM      5  C   UNL     1       1.068   9.127  17.712  0.00  0.00    +0.000 C 
ATOM      6  C   UNL     1      -0.321   9.728  17.983  0.00  0.00    +0.000 C 
ATOM      7  C   UNL     1      -0.080  10.701  19.082  0.00  0.00    +0.000 A 
ATOM      8  S   UNL     1      -0.550  12.323  19.034  0.00  0.00    +0.000 S 
ATOM      9  C   UNL     1       0.464  12.681  20.370  0.00  0.00    +0.000 A 
ATOM     10  C   UNL     1       1.070  11.550  20.886  0.00  0.00    +0.000 A 
ATOM     11  C   UNL     1       0.766  10.377  20.126  0.00  0.00    +0.000 A 
ATOM     12  C   UNL     1       1.327   8.972  20.244  0.00  0.00    +0.000 C 
ENDBRANCH   1   2
BRANCH   1  13
ATOM     13  N   UNL     1       3.575   5.341  18.736  0.00  0.00    +0.000 N 
ATOM     14  C   UNL     1       4.877   4.900  18.853  0.00  0.00    +0.000 C 
ATOM     15  O   UNL     1       5.627   5.356  19.714  0.00  0.00    +0.000 OA
ATOM     16  H   UNL     1       3.029   5.095  17.914  0.00  0.00    +0.000 HD
BRANCH  14  17
ATOM     17  C   UNL     1       5.326   3.907  17.786  0.00  0.00    +0.000 C 
ATOM     18  C   UNL     1       4.096   3.232  17.177  0.00  0.00    +0.000 C 
BRANCH  17  19
ATOM     19  N   UNL     1       6.170   4.489  16.743  0.00  0.00    +0.000 N 
ATOM     20  C   UNL     1       6.925   5.622  16.752  0.00  0.00    +0.000 A 
ATOM     21  N   UNL     1       7.431   5.834  15.559  0.00  0.00    +0.000 NA
ATOM     22  C   UNL     1       6.939   4.795  14.827  0.00  0.00    +0.000 A 
ATOM     23  N   UNL     1       6.163   3.943  15.503  0.00  0.00    +0.000 NA
ENDBRANCH  17  19
ENDBRANCH  14  17
ENDBRANCH   1  13
BRANCH   1  24
ATOM     24  C   UNL     1       1.657   5.971  20.140  0.00  0.00    +0.000 C 
BRANCH  24  26
ATOM     25  C   UNL     1       0.874   3.545  20.058  0.00  0.00    +0.000 C 
ATOM     26  C   UNL     1       1.645   4.602  20.827  0.00  0.00    +0.000 C 
ENDBRANCH  24  26
ENDBRANCH   1  24
TORSDOF 6
ENDMDL
MODEL 5
REMARK VINA RESULT:      -6.6      2.802      5.167
REMARK  Name = 
REMARK  8 active torsions:
REMARK  status: ('A' for Active; 'I' for Inactive)
REMARK    1  A    between atoms: C_1  and  C_2
REMARK    2  A    between atoms: C_2  and  C_3
REMARK    3  A    between atoms: C_3  and  C_4
REMARK    4  A    between atoms: C_4  and  N_5
REMARK    5  A    between atoms: C_4  and  C_15
REMARK    6  A    between atoms: C_6  and  C_8
REMARK    7  A    between atoms: C_8  and  C_9
REMARK    8  A    between atoms: C_8  and  N_10
REMARK                            x       y       z     vdW  Elec       q    Type
REMARK                         _______ _______ _______ _____ _____    ______ ____
ROOT
ATOM      1  C   UNL     1       4.599   4.326  16.446  0.00  0.00    +0.000 C 
ENDROOT
BRANCH   1   2
ATOM      2  C   UNL     1       4.774   5.703  17.133  0.00  0.00    +0.000 C 
ATOM      3  O   UNL     1       5.900   6.228  17.146  0.00  0.00    +0.000 OA
ATOM      4  N   UNL     1       3.637   6.410  17.508  0.00  0.00    +0.000 N 
ATOM      5  C   UNL     1       3.790   7.882  17.562  0.00  0.00    +0.000 C 
ATOM      6  C   UNL     1       2.446   8.623  17.661  0.00  0.00    +0.000 C 
ATOM      7  C   UNL     1       1.860   8.127  18.935  0.00  0.00    +0.000 A 
ATOM      8  S   UNL     1       1.302   9.128  20.176  0.00  0.00    +0.000 S 
ATOM      9  C   UNL     1       1.269   7.803  21.263  0.00  0.00    +0.000 A 
ATOM     10  C   UNL     1       1.594   6.609  20.644  0.00  0.00    +0.000 A 
ATOM     11  C   UNL     1       1.956   6.790  19.272  0.00  0.00    +0.000 A 
ATOM     12  C   UNL     1       2.517   5.792  18.276  0.00  0.00    +0.000 C 
ENDBRANCH   1   2
BRANCH   1  13
ATOM     13  N   UNL     1       4.449   3.318  17.504  0.00  0.00    +0.000 N 
ATOM     14  C   UNL     1       3.305   2.563  17.670  0.00  0.00    +0.000 C 
ATOM     15  O   UNL     1       2.363   2.657  16.885  0.00  0.00    +0.000 OA
ATOM     16  H   UNL     1       5.135   3.368  18.252  0.00  0.00    +0.000 HD
BRANCH  14  17
ATOM     17  C   UNL     1       3.268   1.709  18.932  0.00  0.00    +0.000 C 
ATOM     18  C   UNL     1       4.691   1.281  19.293  0.00  0.00    +0.000 C 
BRANCH  17  19
ATOM     19  N   UNL     1       2.612   2.350  20.071  0.00  0.00    +0.000 N 
ATOM     20  C   UNL     1       3.122   2.747  21.271  0.00  0.00    +0.000 A 
ATOM     21  N   UNL     1       2.155   3.171  22.051  0.00  0.00    +0.000 NA
ATOM     22  C   UNL     1       1.042   2.999  21.282  0.00  0.00    +0.000 A 
ATOM     23  N   UNL     1       1.267   2.502  20.063  0.00  0.00    +0.000 NA
ENDBRANCH  17  19
ENDBRANCH  14  17
ENDBRANCH   1  13
BRANCH   1  24
ATOM     24  C   UNL     1       5.889   4.044  15.648  0.00  0.00    +0.000 C 
BRANCH  24  26
ATOM     25  C   UNL     1       7.029   4.530  13.419  0.00  0.00    +0.000 C 
ATOM     26  C   UNL     1       5.754   4.102  14.123  0.00  0.00    +0.000 C 
ENDBRANCH  24  26
ENDBRANCH   1  24
TORSDOF 6
ENDMDL
MODEL 6
REMARK VINA RESULT:      -6.6      0.682      1.063
REMARK  Name = 
REMARK  8 active torsions:
REMARK  status: ('A' for Active; 'I' for Inactive)
REMARK    1  A    between atoms: C_1  and  C_2
REMARK    2  A    between atoms: C_2  and  C_3
REMARK    3  A    between atoms: C_3  and  C_4
REMARK    4  A    between atoms: C_4  and  N_5
REMARK    5  A    between atoms: C_4  and  C_15
REMARK    6  A    between atoms: C_6  and  C_8
REMARK    7  A    between atoms: C_8  and  C_9
REMARK    8  A    between atoms: C_8  and  N_10
REMARK                            x       y       z     vdW  Elec       q    Type
REMARK                         _______ _______ _______ _____ _____    ______ ____
ROOT
ATOM      1  C   UNL     1       3.010   6.735  18.618  0.00  0.00    +0.000 C 
ENDROOT
BRANCH   1   2
ATOM      2  C   UNL     1       2.510   8.124  18.151  0.00  0.00    +0.000 C 
ATOM      3  O   UNL     1       3.022   8.641  17.144  0.00  0.00    +0.000 OA
ATOM      4  N   UNL     1       1.357   8.646  18.729  0.00  0.00    +0.000 N 
ATOM      5  C   UNL     1       0.591   9.591  17.884  0.00  0.00    +0.000 C 
ATOM      6  C   UNL     1      -0.817   9.881  18.430  0.00  0.00    +0.000 C 
ATOM      7  C   UNL     1      -0.563  10.485  19.765  0.00  0.00    +0.000 A 
ATOM      8  S   UNL     1      -1.209  11.960  20.278  0.00  0.00    +0.000 S 
ATOM      9  C   UNL     1      -0.100  12.018  21.584  0.00  0.00    +0.000 A 
ATOM     10  C   UNL     1       0.677  10.876  21.663  0.00  0.00    +0.000 A 
ATOM     11  C   UNL     1       0.421   9.969  20.587  0.00  0.00    +0.000 A 
ATOM     12  C   UNL     1       1.140   8.689  20.204  0.00  0.00    +0.000 C 
ENDBRANCH   1   2
BRANCH   1  13
ATOM     13  N   UNL     1       4.270   6.459  17.916  0.00  0.00    +0.000 N 
ATOM     14  C   UNL     1       5.330   5.798  18.502  0.00  0.00    +0.000 C 
ATOM     15  O   UNL     1       5.245   5.345  19.643  0.00  0.00    +0.000 OA
ATOM     16  H   UNL     1       4.413   6.983  17.057  0.00  0.00    +0.000 HD
BRANCH  14  17
ATOM     17  C   UNL     1       6.615   5.772  17.681  0.00  0.00    +0.000 C 
ATOM     18  C   UNL     1       7.768   5.295  18.564  0.00  0.00    +0.000 C 
BRANCH  17  19
ATOM     19  N   UNL     1       6.530   4.972  16.460  0.00  0.00    +0.000 N 
ATOM     20  C   UNL     1       7.205   5.089  15.282  0.00  0.00    +0.000 A 
ATOM     21  N   UNL     1       6.732   4.233  14.407  0.00  0.00    +0.000 NA
ATOM     22  C   UNL     1       5.736   3.607  15.095  0.00  0.00    +0.000 A 
ATOM     23  N   UNL     1       5.572   4.021  16.355  0.00  0.00    +0.000 NA
ENDBRANCH  17  19
ENDBRANCH  14  17
ENDBRANCH   1  13
BRANCH   1  24
ATOM     24  C   UNL     1       1.948   5.699  18.194  0.00  0.00    +0.000 C 
BRANCH  24  26
ATOM     25  C   UNL     1       1.854   5.008  20.647  0.00  0.00    +0.000 C 
ATOM     26  C   UNL     1       1.671   4.580  19.203  0.00  0.00    +0.000 C 
ENDBRANCH  24  26
ENDBRANCH   1  24
TORSDOF 6
ENDMDL
MODEL 7
REMARK VINA RESULT:      -6.6      1.334      2.054
REMARK  Name = 
REMARK  8 active torsions:
REMARK  status: ('A' for Active; 'I' for Inactive)
REMARK    1  A    between atoms: C_1  and  C_2
REMARK    2  A    between atoms: C_2  and  C_3
REMARK    3  A    between atoms: C_3  and  C_4
REMARK    4  A    between atoms: C_4  and  N_5
REMARK    5  A    between atoms: C_4  and  C_15
REMARK    6  A    between atoms: C_6  and  C_8
REMARK    7  A    between atoms: C_8  and  C_9
REMARK    8  A    between atoms: C_8  and  N_10
REMARK                            x       y       z     vdW  Elec       q    Type
REMARK                         _______ _______ _______ _____ _____    ______ ____
ROOT
ATOM      1  C   UNL     1       2.880   6.064  18.646  0.00  0.00    +0.000 C 
ENDROOT
BRANCH   1   2
ATOM      2  C   UNL     1       2.698   7.598  18.539  0.00  0.00    +0.000 C 
ATOM      3  O   UNL     1       3.499   8.252  17.851  0.00  0.00    +0.000 OA
ATOM      4  N   UNL     1       1.523   8.165  19.023  0.00  0.00    +0.000 N 
ATOM      5  C   UNL     1       1.115   9.434  18.379  0.00  0.00    +0.000 C 
ATOM      6  C   UNL     1      -0.329   9.841  18.715  0.00  0.00    +0.000 C 
ATOM      7  C   UNL     1      -0.318  10.004  20.193  0.00  0.00    +0.000 A 
ATOM      8  S   UNL     1      -0.859  11.386  21.000  0.00  0.00    +0.000 S 
ATOM      9  C   UNL     1      -0.094  10.870  22.445  0.00  0.00    +0.000 A 
ATOM     10  C   UNL     1       0.480   9.618  22.317  0.00  0.00    +0.000 A 
ATOM     11  C   UNL     1       0.364   9.102  20.987  0.00  0.00    +0.000 A 
ATOM     12  C   UNL     1       0.972   7.854  20.374  0.00  0.00    +0.000 C 
ENDBRANCH   1   2
BRANCH   1  13
ATOM     13  N   UNL     1       4.160   5.723  18.011  0.00  0.00    +0.000 N 
ATOM     14  C   UNL     1       5.023   4.772  18.517  0.00  0.00    +0.000 C 
ATOM     15  O   UNL     1       4.726   4.108  19.509  0.00  0.00    +0.000 OA
ATOM     16  H   UNL     1       4.489   6.385  17.314  0.00  0.00    +0.000 HD
BRANCH  14  17
ATOM     17  C   UNL     1       6.381   4.694  17.827  0.00  0.00    +0.000 C 
ATOM     18  C   UNL     1       6.184   4.245  16.379  0.00  0.00    +0.000 C 
BRANCH  17  19
ATOM     19  N   UNL     1       7.156   5.933  17.887  0.00  0.00    +0.000 N 
ATOM     20  C   UNL     1       7.991   6.402  18.856  0.00  0.00    +0.000 A 
ATOM     21  N   UNL     1       8.388   7.617  18.556  0.00  0.00    +0.000 NA
ATOM     22  C   UNL     1       7.748   7.868  17.378  0.00  0.00    +0.000 A 
ATOM     23  N   UNL     1       6.984   6.870  16.926  0.00  0.00    +0.000 NA
ENDBRANCH  17  19
ENDBRANCH  14  17
ENDBRANCH   1  13
BRANCH   1  24
ATOM     24  C   UNL     1       1.726   5.409  17.859  0.00  0.00    +0.000 C 
BRANCH  24  26
ATOM     25  C   UNL     1       1.180   3.180  18.971  0.00  0.00    +0.000 C 
ATOM     26  C   UNL     1       1.770   3.881  17.761  0.00  0.00    +0.000 C 
ENDBRANCH  24  26
ENDBRANCH   1  24
TORSDOF 6
ENDMDL
MODEL 8
REMARK VINA RESULT:      -6.6      2.031      2.984
REMARK  Name = 
REMARK  8 active torsions:
REMARK  status: ('A' for Active; 'I' for Inactive)
REMARK    1  A    between atoms: C_1  and  C_2
REMARK    2  A    between atoms: C_2  and  C_3
REMARK    3  A    between atoms: C_3  and  C_4
REMARK    4  A    between atoms: C_4  and  N_5
REMARK    5  A    between atoms: C_4  and  C_15
REMARK    6  A    between atoms: C_6  and  C_8
REMARK    7  A    between atoms: C_8  and  C_9
REMARK    8  A    between atoms: C_8  and  N_10
REMARK                            x       y       z     vdW  Elec       q    Type
REMARK                         _______ _______ _______ _____ _____    ______ ____
ROOT
ATOM      1  C   UNL     1       3.600   3.938  19.031  0.00  0.00    +0.000 C 
ENDROOT
BRANCH   1   2
ATOM      2  C   UNL     1       2.269   4.614  19.442  0.00  0.00    +0.000 C 
ATOM      3  O   UNL     1       1.284   3.900  19.693  0.00  0.00    +0.000 OA
ATOM      4  N   UNL     1       2.276   5.973  19.740  0.00  0.00    +0.000 N 
ATOM      5  C   UNL     1       1.226   6.426  20.682  0.00  0.00    +0.000 C 
ATOM      6  C   UNL     1       1.475   7.844  21.222  0.00  0.00    +0.000 C 
ATOM      7  C   UNL     1       1.464   8.696  20.003  0.00  0.00    +0.000 A 
ATOM      8  S   UNL     1       0.504  10.074  19.816  0.00  0.00    +0.000 S 
ATOM      9  C   UNL     1       0.800  10.079  18.127  0.00  0.00    +0.000 A 
ATOM     10  C   UNL     1       1.693   9.093  17.748  0.00  0.00    +0.000 A 
ATOM     11  C   UNL     1       2.082   8.262  18.845  0.00  0.00    +0.000 A 
ATOM     12  C   UNL     1       2.911   6.992  18.854  0.00  0.00    +0.000 C 
ENDBRANCH   1   2
BRANCH   1  13
ATOM     13  N   UNL     1       4.187   4.737  17.948  0.00  0.00    +0.000 N 
ATOM     14  C   UNL     1       5.549   4.870  17.762  0.00  0.00    +0.000 C 
ATOM     15  O   UNL     1       6.349   4.263  18.472  0.00  0.00    +0.000 OA
ATOM     16  H   UNL     1       3.548   5.377  17.484  0.00  0.00    +0.000 HD
BRANCH  14  17
ATOM     17  C   UNL     1       5.964   5.887  16.705  0.00  0.00    +0.000 C 
ATOM     18  C   UNL     1       7.151   6.698  17.226  0.00  0.00    +0.000 C 
BRANCH  17  19
ATOM     19  N   UNL     1       6.266   5.304  15.398  0.00  0.00    +0.000 N 
ATOM     20  C   UNL     1       5.570   4.396  14.658  0.00  0.00    +0.000 A 
ATOM     21  N   UNL     1       6.264   4.058  13.596  0.00  0.00    +0.000 NA
ATOM     22  C   UNL     1       7.409   4.784  13.732  0.00  0.00    +0.000 A 
ATOM     23  N   UNL     1       7.460   5.563  14.815  0.00  0.00    +0.000 NA
ENDBRANCH  17  19
ENDBRANCH  14  17
ENDBRANCH   1  13
BRANCH   1  24
ATOM     24  C   UNL     1       3.254   2.530  18.500  0.00  0.00    +0.000 C 
BRANCH  24  26
ATOM     25  C   UNL     1       4.718   1.757  20.440  0.00  0.00    +0.000 C 
ATOM     26  C   UNL     1       4.004   1.368  19.158  0.00  0.00    +0.000 C 
ENDBRANCH  24  26
ENDBRANCH   1  24
TORSDOF 6
ENDMDL
MODEL 9
REMARK VINA RESULT:      -6.4      2.363      3.386
REMARK  Name = 
REMARK  8 active torsions:
REMARK  status: ('A' for Active; 'I' for Inactive)
REMARK    1  A    between atoms: C_1  and  C_2
REMARK    2  A    between atoms: C_2  and  C_3
REMARK    3  A    between atoms: C_3  and  C_4
REMARK    4  A    between atoms: C_4  and  N_5
REMARK    5  A    between atoms: C_4  and  C_15
REMARK    6  A    between atoms: C_6  and  C_8
REMARK    7  A    between atoms: C_8  and  C_9
REMARK    8  A    between atoms: C_8  and  N_10
REMARK                            x       y       z     vdW  Elec       q    Type
REMARK                         _______ _______ _______ _____ _____    ______ ____
ROOT
ATOM      1  C   UNL     1       3.150   4.214  20.245  0.00  0.00    +0.000 C 
ENDROOT
BRANCH   1   2
ATOM      2  C   UNL     1       1.834   5.015  20.402  0.00  0.00    +0.000 C 
ATOM      3  O   UNL     1       0.792   4.408  20.702  0.00  0.00    +0.000 OA
ATOM      4  N   UNL     1       1.899   6.404  20.430  0.00  0.00    +0.000 N 
ATOM      5  C   UNL     1       0.810   7.079  21.172  0.00  0.00    +0.000 C 
ATOM      6  C   UNL     1       1.099   8.564  21.446  0.00  0.00    +0.000 C 
ATOM      7  C   UNL     1       1.230   9.157  20.088  0.00  0.00    +0.000 A 
ATOM      8  S   UNL     1       0.370  10.510  19.555  0.00  0.00    +0.000 S 
ATOM      9  C   UNL     1       0.792  10.168  17.930  0.00  0.00    +0.000 A 
ATOM     10  C   UNL     1       1.651   9.089  17.826  0.00  0.00    +0.000 A 
ATOM     11  C   UNL     1       1.907   8.476  19.094  0.00  0.00    +0.000 A 
ATOM     12  C   UNL     1       2.657   7.199  19.420  0.00  0.00    +0.000 C 
ENDBRANCH   1   2
BRANCH   1  13
ATOM     13  N   UNL     1       3.779   4.636  18.987  0.00  0.00    +0.000 N 
ATOM     14  C   UNL     1       5.113   4.423  18.703  0.00  0.00    +0.000 C 
ATOM     15  O   UNL     1       5.837   3.802  19.479  0.00  0.00    +0.000 OA
ATOM     16  H   UNL     1       3.244   5.301  18.435  0.00  0.00    +0.000 HD
BRANCH  14  17
ATOM     17  C   UNL     1       5.623   5.098  17.434  0.00  0.00    +0.000 C 
ATOM     18  C   UNL     1       4.439   5.692  16.669  0.00  0.00    +0.000 C 
BRANCH  17  19
ATOM     19  N   UNL     1       6.653   6.109  17.664  0.00  0.00    +0.000 N 
ATOM     20  C   UNL     1       7.617   6.180  18.625  0.00  0.00    +0.000 A 
ATOM     21  N   UNL     1       8.256   7.323  18.535  0.00  0.00    +0.000 NA
ATOM     22  C   UNL     1       7.631   7.945  17.496  0.00  0.00    +0.000 A 
ATOM     23  N   UNL     1       6.645   7.246  16.928  0.00  0.00    +0.000 NA
ENDBRANCH  17  19
ENDBRANCH  14  17
ENDBRANCH   1  13
BRANCH   1  24
ATOM     24  C   UNL     1       2.769   2.721  20.152  0.00  0.00    +0.000 C 
BRANCH  24  26
ATOM     25  C   UNL     1       0.956   2.068  18.481  0.00  0.00    +0.000 C 
ATOM     26  C   UNL     1       2.445   2.203  18.747  0.00  0.00    +0.000 C 
ENDBRANCH  24  26
ENDBRANCH   1  24
TORSDOF 6
ENDMDL
