MODEL 1
REMARK VINA RESULT:      -7.7      0.000      0.000
REMARK  Name = 
REMARK  14 active torsions:
REMARK  status: ('A' for Active; 'I' for Inactive)
REMARK    1  A    between atoms: C_1  and  O_2
REMARK    2  A    between atoms: O_2  and  C_3
REMARK    3  A    between atoms: C_5  and  C_6
REMARK    4  A    between atoms: C_6  and  C_7
REMARK    5  A    between atoms: C_11  and  O_12
REMARK    6  A    between atoms: O_12  and  C_13
REMARK    7  A    between atoms: C_13  and  C_14
REMARK    8  A    between atoms: C_14  and  C_15
REMARK    9  A    between atoms: C_15  and  N_16
REMARK   10  A    between atoms: C_19  and  C_20
REMARK   11  A    between atoms: C_20  and  C_21
REMARK   12  A    between atoms: C_20  and  C_28
REMARK   13  A    between atoms: C_24  and  C_25
REMARK   14  A    between atoms: C_31  and  C_32
REMARK                            x       y       z     vdW  Elec       q    Type
REMARK                         _______ _______ _______ _____ _____    ______ ____
ROOT
ATOM      1  N   UNL     1       1.655   8.911  19.552  0.00  0.00    +0.000 NA
ATOM      2  C   UNL     1       1.065   9.557  18.367  0.00  0.00    +0.000 C 
ATOM      3  C   UNL     1       1.076  11.082  18.484  0.00  0.00    +0.000 C 
ATOM      4  C   UNL     1       0.295  11.591  19.715  0.00  0.00    +0.000 C 
ATOM      5  C   UNL     1       0.963  10.942  20.928  0.00  0.00    +0.000 C 
ATOM      6  C   UNL     1       1.084   9.431  20.794  0.00  0.00    +0.000 C 
ENDROOT
BRANCH   1   7
ATOM      7  C   UNL     1       1.564   7.433  19.424  0.00  0.00    +0.000 C 
BRANCH   7   8
ATOM      8  C   UNL     1       2.881   6.607  19.395  0.00  0.00    +0.000 C 
BRANCH   8   9
ATOM      9  C   UNL     1       2.633   5.119  19.664  0.00  0.00    +0.000 C 
BRANCH   9  10
ATOM     10  O   UNL     1       3.802   4.315  19.795  0.00  0.00    +0.000 OA
BRANCH  10  16
ATOM     11  C   UNL     1       5.920   4.857  18.592  0.00  0.00    +0.000 A 
ATOM     12  C   UNL     1       6.616   4.862  17.375  0.00  0.00    +0.000 A 
ATOM     13  C   UNL     1       5.982   4.482  16.197  0.00  0.00    +0.000 A 
ATOM     14  C   UNL     1       4.649   4.058  16.247  0.00  0.00    +0.000 A 
ATOM     15  C   UNL     1       3.973   3.978  17.476  0.00  0.00    +0.000 A 
ATOM     16  C   UNL     1       4.598   4.377  18.662  0.00  0.00    +0.000 A 
BRANCH  13  17
ATOM     17  C   UNL     1       6.678   4.588  14.886  0.00  0.00    +0.000 C 
ATOM     18  C   UNL     1       6.167   3.783  13.708  0.00  0.00    +0.000 C 
ATOM     19  O   UNL     1       7.643   5.329  14.769  0.00  0.00    +0.000 OA
ENDBRANCH  13  17
BRANCH  11  21
ATOM     20  C   UNL     1       7.930   5.673  19.475  0.00  0.00    +0.000 C 
ATOM     21  O   UNL     1       6.572   5.296  19.715  0.00  0.00    +0.000 OA
ENDBRANCH  11  21
ENDBRANCH  10  16
ENDBRANCH   9  10
ENDBRANCH   8   9
ENDBRANCH   7   8
ENDBRANCH   1   7
BRANCH   4  22
ATOM     22  C   UNL     1      -1.264  11.348  19.664  0.00  0.00    +0.000 C 
BRANCH  22  23
ATOM     23  C   UNL     1      -2.047  12.531  20.261  0.00  0.00    +0.000 A 
ATOM     24  C   UNL     1      -1.436  13.764  20.518  0.00  0.00    +0.000 A 
ATOM     25  C   UNL     1      -2.115  14.771  21.206  0.00  0.00    +0.000 A 
ATOM     26  C   UNL     1      -3.427  14.570  21.650  0.00  0.00    +0.000 A 
ATOM     27  C   UNL     1      -4.125  15.604  22.489  0.00  0.00    +0.000 C 
ATOM     28  C   UNL     1      -4.068  13.373  21.329  0.00  0.00    +0.000 A 
ATOM     29  C   UNL     1      -3.396  12.376  20.613  0.00  0.00    +0.000 A 
ENDBRANCH  22  23
BRANCH  22  30
ATOM     30  C   UNL     1      -1.811  10.991  18.285  0.00  0.00    +0.000 A 
ATOM     31  C   UNL     1      -2.191   9.665  18.012  0.00  0.00    +0.000 A 
ATOM     32  C   UNL     1      -2.736   9.315  16.778  0.00  0.00    +0.000 A 
ATOM     33  C   UNL     1      -2.914  10.287  15.793  0.00  0.00    +0.000 A 
ATOM     34  C   UNL     1      -3.546   9.945  14.467  0.00  0.00    +0.000 C 
ATOM     35  C   UNL     1      -2.529  11.609  16.041  0.00  0.00    +0.000 A 
ATOM     36  C   UNL     1      -1.996  11.953  17.282  0.00  0.00    +0.000 A 
ENDBRANCH  22  30
ENDBRANCH   4  22
TORSDOF 10
ENDMDL
MODEL 2
REMARK VINA RESULT:      -7.6      7.120      9.868
REMARK  Name = 
REMARK  14 active torsions:
REMARK  status: ('A' for Active; 'I' for Inactive)
REMARK    1  A    between atoms: C_1  and  O_2
REMARK    2  A    between atoms: O_2  and  C_3
REMARK    3  A    between atoms: C_5  and  C_6
REMARK    4  A    between atoms: C_6  and  C_7
REMARK    5  A    between atoms: C_11  and  O_12
REMARK    6  A    between atoms: O_12  and  C_13
REMARK    7  A    between atoms: C_13  and  C_14
REMARK    8  A    between atoms: C_14  and  C_15
REMARK    9  A    between atoms: C_15  and  N_16
REMARK   10  A    between atoms: C_19  and  C_20
REMARK   11  A    between atoms: C_20  and  C_21
REMARK   12  A    between atoms: C_20  and  C_28
REMARK   13  A    between atoms: C_24  and  C_25
REMARK   14  A    between atoms: C_31  and  C_32
REMARK                            x       y       z     vdW  Elec       q    Type
REMARK                         _______ _______ _______ _____ _____    ______ ____
ROOT
ATOM      1  N   UNL     1       9.556  10.193  18.788  0.00  0.00    +0.000 NA
ATOM      2  C   UNL     1      10.181  11.269  17.999  0.00  0.00    +0.000 C 
ATOM      3  C   UNL     1      11.273  11.993  18.788  0.00  0.00    +0.000 C 
ATOM      4  C   UNL     1      10.744  12.633  20.089  0.00  0.00    +0.000 C 
ATOM      5  C   UNL     1      10.148  11.484  20.905  0.00  0.00    +0.000 C 
ATOM      6  C   UNL     1       9.145  10.660  20.111  0.00  0.00    +0.000 C 
ENDROOT
BRANCH   1   7
ATOM      7  C   UNL     1       8.459   9.561  18.008  0.00  0.00    +0.000 C 
BRANCH   7   8
ATOM      8  C   UNL     1       7.992   8.133  18.404  0.00  0.00    +0.000 C 
BRANCH   8   9
ATOM      9  C   UNL     1       7.621   7.288  17.181  0.00  0.00    +0.000 C 
BRANCH   9  10
ATOM     10  O   UNL     1       6.327   7.531  16.636  0.00  0.00    +0.000 OA
BRANCH  10  16
ATOM     11  C   UNL     1       4.142   6.740  17.542  0.00  0.00    +0.000 A 
ATOM     12  C   UNL     1       3.325   5.647  17.860  0.00  0.00    +0.000 A 
ATOM     13  C   UNL     1       3.802   4.347  17.733  0.00  0.00    +0.000 A 
ATOM     14  C   UNL     1       5.098   4.142  17.245  0.00  0.00    +0.000 A 
ATOM     15  C   UNL     1       5.891   5.233  16.852  0.00  0.00    +0.000 A 
ATOM     16  C   UNL     1       5.425   6.544  16.996  0.00  0.00    +0.000 A 
BRANCH  13  17
ATOM     17  C   UNL     1       2.983   3.185  18.172  0.00  0.00    +0.000 C 
ATOM     18  C   UNL     1       3.516   1.781  17.966  0.00  0.00    +0.000 C 
ATOM     19  O   UNL     1       1.898   3.373  18.703  0.00  0.00    +0.000 OA
ENDBRANCH  13  17
BRANCH  11  21
ATOM     20  C   UNL     1       2.218   8.046  17.824  0.00  0.00    +0.000 C 
ATOM     21  O   UNL     1       3.645   8.002  17.741  0.00  0.00    +0.000 OA
ENDBRANCH  11  21
ENDBRANCH  10  16
ENDBRANCH   9  10
ENDBRANCH   8   9
ENDBRANCH   7   8
ENDBRANCH   1   7
BRANCH   4  22
ATOM     22  C   UNL     1       9.737  13.832  19.883  0.00  0.00    +0.000 C 
BRANCH  22  23
ATOM     23  C   UNL     1       9.062  14.244  21.203  0.00  0.00    +0.000 A 
ATOM     24  C   UNL     1       9.774  14.872  22.231  0.00  0.00    +0.000 A 
ATOM     25  C   UNL     1       9.188  15.091  23.479  0.00  0.00    +0.000 A 
ATOM     26  C   UNL     1       7.871  14.693  23.727  0.00  0.00    +0.000 A 
ATOM     27  C   UNL     1       7.270  14.823  25.099  0.00  0.00    +0.000 C 
ATOM     28  C   UNL     1       7.130  14.138  22.683  0.00  0.00    +0.000 A 
ATOM     29  C   UNL     1       7.709  13.946  21.424  0.00  0.00    +0.000 A 
ENDBRANCH  22  23
BRANCH  22  30
ATOM     30  C   UNL     1      10.331  15.052  19.187  0.00  0.00    +0.000 A 
ATOM     31  C   UNL     1       9.599  15.697  18.174  0.00  0.00    +0.000 A 
ATOM     32  C   UNL     1      10.093  16.841  17.549  0.00  0.00    +0.000 A 
ATOM     33  C   UNL     1      11.330  17.364  17.929  0.00  0.00    +0.000 A 
ATOM     34  C   UNL     1      11.866  18.628  17.304  0.00  0.00    +0.000 C 
ATOM     35  C   UNL     1      12.079  16.729  18.925  0.00  0.00    +0.000 A 
ATOM     36  C   UNL     1      11.572  15.592  19.553  0.00  0.00    +0.000 A 
ENDBRANCH  22  30
ENDBRANCH   4  22
TORSDOF 10
ENDMDL
MODEL 3
REMARK VINA RESULT:      -7.5      2.245      4.389
REMARK  Name = 
REMARK  14 active torsions:
REMARK  status: ('A' for Active; 'I' for Inactive)
REMARK    1  A    between atoms: C_1  and  O_2
REMARK    2  A    between atoms: O_2  and  C_3
REMARK    3  A    between atoms: C_5  and  C_6
REMARK    4  A    between atoms: C_6  and  C_7
REMARK    5  A    between atoms: C_11  and  O_12
REMARK    6  A    between atoms: O_12  and  C_13
REMARK    7  A    between atoms: C_13  and  C_14
REMARK    8  A    between atoms: C_14  and  C_15
REMARK    9  A    between atoms: C_15  and  N_16
REMARK   10  A    between atoms: C_19  and  C_20
REMARK   11  A    between atoms: C_20  and  C_21
REMARK   12  A    between atoms: C_20  and  C_28
REMARK   13  A    between atoms: C_24  and  C_25
REMARK   14  A    between atoms: C_31  and  C_32
REMARK                            x       y       z     vdW  Elec       q    Type
REMARK                         _______ _______ _______ _____ _____    ______ ____
ROOT
ATOM      1  N   UNL     1       0.703   9.457  19.774  0.00  0.00    +0.000 NA
ATOM      2  C   UNL     1      -0.515  10.014  20.387  0.00  0.00    +0.000 C 
ATOM      3  C   UNL     1      -1.266  10.937  19.425  0.00  0.00    +0.000 C 
ATOM      4  C   UNL     1      -0.408  12.131  18.953  0.00  0.00    +0.000 C 
ATOM      5  C   UNL     1       0.820  11.518  18.278  0.00  0.00    +0.000 C 
ATOM      6  C   UNL     1       1.526  10.497  19.160  0.00  0.00    +0.000 C 
ENDROOT
BRANCH   1   7
ATOM      7  C   UNL     1       1.433   8.620  20.763  0.00  0.00    +0.000 C 
BRANCH   7   8
ATOM      8  C   UNL     1       1.477   7.082  20.546  0.00  0.00    +0.000 C 
BRANCH   8   9
ATOM      9  C   UNL     1       2.621   6.663  19.618  0.00  0.00    +0.000 C 
BRANCH   9  10
ATOM     10  O   UNL     1       2.539   5.339  19.099  0.00  0.00    +0.000 OA
BRANCH  10  16
ATOM     11  C   UNL     1       3.587   3.960  17.303  0.00  0.00    +0.000 A 
ATOM     12  C   UNL     1       4.528   3.894  16.267  0.00  0.00    +0.000 A 
ATOM     13  C   UNL     1       5.390   4.958  16.025  0.00  0.00    +0.000 A 
ATOM     14  C   UNL     1       5.279   6.115  16.807  0.00  0.00    +0.000 A 
ATOM     15  C   UNL     1       4.285   6.214  17.794  0.00  0.00    +0.000 A 
ATOM     16  C   UNL     1       3.428   5.139  18.056  0.00  0.00    +0.000 A 
BRANCH  13  17
ATOM     17  C   UNL     1       6.464   4.855  15.001  0.00  0.00    +0.000 C 
ATOM     18  C   UNL     1       6.254   3.965  13.792  0.00  0.00    +0.000 C 
ATOM     19  O   UNL     1       7.496   5.497  15.137  0.00  0.00    +0.000 OA
ENDBRANCH  13  17
BRANCH  11  21
ATOM     20  C   UNL     1       3.481   1.812  18.233  0.00  0.00    +0.000 C 
ATOM     21  O   UNL     1       2.801   2.862  17.538  0.00  0.00    +0.000 OA
ENDBRANCH  11  21
ENDBRANCH  10  16
ENDBRANCH   9  10
ENDBRANCH   8   9
ENDBRANCH   7   8
ENDBRANCH   1   7
BRANCH   4  22
ATOM     22  C   UNL     1      -0.039  13.175  20.077  0.00  0.00    +0.000 C 
BRANCH  22  23
ATOM     23  C   UNL     1       0.293  14.557  19.487  0.00  0.00    +0.000 A 
ATOM     24  C   UNL     1      -0.710  15.452  19.094  0.00  0.00    +0.000 A 
ATOM     25  C   UNL     1      -0.394  16.628  18.413  0.00  0.00    +0.000 A 
ATOM     26  C   UNL     1       0.935  16.944  18.114  0.00  0.00    +0.000 A 
ATOM     27  C   UNL     1       1.275  18.150  17.284  0.00  0.00    +0.000 C 
ATOM     28  C   UNL     1       1.945  16.096  18.571  0.00  0.00    +0.000 A 
ATOM     29  C   UNL     1       1.629  14.931  19.279  0.00  0.00    +0.000 A 
ENDBRANCH  22  23
BRANCH  22  30
ATOM     30  C   UNL     1      -1.074  13.308  21.191  0.00  0.00    +0.000 A 
ATOM     31  C   UNL     1      -2.440  13.366  20.864  0.00  0.00    +0.000 A 
ATOM     32  C   UNL     1      -3.413  13.442  21.860  0.00  0.00    +0.000 A 
ATOM     33  C   UNL     1      -3.036  13.459  23.204  0.00  0.00    +0.000 A 
ATOM     34  C   UNL     1      -4.069  13.492  24.302  0.00  0.00    +0.000 C 
ATOM     35  C   UNL     1      -1.681  13.416  23.547  0.00  0.00    +0.000 A 
ATOM     36  C   UNL     1      -0.715  13.328  22.546  0.00  0.00    +0.000 A 
ENDBRANCH  22  30
ENDBRANCH   4  22
TORSDOF 10
ENDMDL
MODEL 4
REMARK VINA RESULT:      -7.4      2.133      4.146
REMARK  Name = 
REMARK  14 active torsions:
REMARK  status: ('A' for Active; 'I' for Inactive)
REMARK    1  A    between atoms: C_1  and  O_2
REMARK    2  A    between atoms: O_2  and  C_3
REMARK    3  A    between atoms: C_5  and  C_6
REMARK    4  A    between atoms: C_6  and  C_7
REMARK    5  A    between atoms: C_11  and  O_12
REMARK    6  A    between atoms: O_12  and  C_13
REMARK    7  A    between atoms: C_13  and  C_14
REMARK    8  A    between atoms: C_14  and  C_15
REMARK    9  A    between atoms: C_15  and  N_16
REMARK   10  A    between atoms: C_19  and  C_20
REMARK   11  A    between atoms: C_20  and  C_21
REMARK   12  A    between atoms: C_20  and  C_28
REMARK   13  A    between atoms: C_24  and  C_25
REMARK   14  A    between atoms: C_31  and  C_32
REMARK                            x       y       z     vdW  Elec       q    Type
REMARK                         _______ _______ _______ _____ _____    ______ ____
ROOT
ATOM      1  N   UNL     1       1.004   9.030  19.683  0.00  0.00    +0.000 NA
ATOM      2  C   UNL     1      -0.310   9.351  20.268  0.00  0.00    +0.000 C 
ATOM      3  C   UNL     1      -1.150  10.226  19.336  0.00  0.00    +0.000 C 
ATOM      4  C   UNL     1      -0.463  11.567  18.998  0.00  0.00    +0.000 C 
ATOM      5  C   UNL     1       0.872  11.198  18.349  0.00  0.00    +0.000 C 
ATOM      6  C   UNL     1       1.685  10.226  19.191  0.00  0.00    +0.000 C 
ENDROOT
BRANCH   1   7
ATOM      7  C   UNL     1       1.809   8.234  20.647  0.00  0.00    +0.000 C 
BRANCH   7   8
ATOM      8  C   UNL     1       1.481   6.725  20.822  0.00  0.00    +0.000 C 
BRANCH   8   9
ATOM      9  C   UNL     1       2.318   5.842  19.891  0.00  0.00    +0.000 C 
BRANCH   9  10
ATOM     10  O   UNL     1       2.100   6.040  18.497  0.00  0.00    +0.000 OA
BRANCH  10  16
ATOM     11  C   UNL     1       3.427   4.278  17.330  0.00  0.00    +0.000 A 
ATOM     12  C   UNL     1       4.559   3.970  16.562  0.00  0.00    +0.000 A 
ATOM     13  C   UNL     1       5.505   4.948  16.275  0.00  0.00    +0.000 A 
ATOM     14  C   UNL     1       5.294   6.255  16.729  0.00  0.00    +0.000 A 
ATOM     15  C   UNL     1       4.122   6.583  17.431  0.00  0.00    +0.000 A 
ATOM     16  C   UNL     1       3.176   5.601  17.742  0.00  0.00    +0.000 A 
BRANCH  13  17
ATOM     17  C   UNL     1       6.762   4.607  15.555  0.00  0.00    +0.000 C 
ATOM     18  C   UNL     1       6.715   4.343  14.063  0.00  0.00    +0.000 C 
ATOM     19  O   UNL     1       7.818   4.557  16.169  0.00  0.00    +0.000 OA
ENDBRANCH  13  17
BRANCH  11  21
ATOM     20  C   UNL     1       3.200   2.017  17.898  0.00  0.00    +0.000 C 
ATOM     21  O   UNL     1       2.555   3.266  17.636  0.00  0.00    +0.000 OA
ENDBRANCH  11  21
ENDBRANCH  10  16
ENDBRANCH   9  10
ENDBRANCH   8   9
ENDBRANCH   7   8
ENDBRANCH   1   7
BRANCH   4  22
ATOM     22  C   UNL     1      -0.305  12.562  20.214  0.00  0.00    +0.000 C 
BRANCH  22  23
ATOM     23  C   UNL     1       0.124  13.966  19.751  0.00  0.00    +0.000 A 
ATOM     24  C   UNL     1      -0.808  14.914  19.314  0.00  0.00    +0.000 A 
ATOM     25  C   UNL     1      -0.391  16.120  18.746  0.00  0.00    +0.000 A 
ATOM     26  C   UNL     1       0.970  16.409  18.608  0.00  0.00    +0.000 A 
ATOM     27  C   UNL     1       1.428  17.652  17.897  0.00  0.00    +0.000 C 
ATOM     28  C   UNL     1       1.903  15.502  19.113  0.00  0.00    +0.000 A 
ATOM     29  C   UNL     1       1.483  14.307  19.708  0.00  0.00    +0.000 A 
ENDBRANCH  22  23
BRANCH  22  30
ATOM     30  C   UNL     1      -1.523  12.653  21.128  0.00  0.00    +0.000 A 
ATOM     31  C   UNL     1      -1.355  12.550  22.520  0.00  0.00    +0.000 A 
ATOM     32  C   UNL     1      -2.441  12.674  23.385  0.00  0.00    +0.000 A 
ATOM     33  C   UNL     1      -3.718  12.907  22.872  0.00  0.00    +0.000 A 
ATOM     34  C   UNL     1      -4.902  13.094  23.788  0.00  0.00    +0.000 C 
ATOM     35  C   UNL     1      -3.907  12.999  21.490  0.00  0.00    +0.000 A 
ATOM     36  C   UNL     1      -2.814  12.886  20.632  0.00  0.00    +0.000 A 
ENDBRANCH  22  30
ENDBRANCH   4  22
TORSDOF 10
ENDMDL
MODEL 5
REMARK VINA RESULT:      -7.4      1.248      1.556
REMARK  Name = 
REMARK  14 active torsions:
REMARK  status: ('A' for Active; 'I' for Inactive)
REMARK    1  A    between atoms: C_1  and  O_2
REMARK    2  A    between atoms: O_2  and  C_3
REMARK    3  A    between atoms: C_5  and  C_6
REMARK    4  A    between atoms: C_6  and  C_7
REMARK    5  A    between atoms: C_11  and  O_12
REMARK    6  A    between atoms: O_12  and  C_13
REMARK    7  A    between atoms: C_13  and  C_14
REMARK    8  A    between atoms: C_14  and  C_15
REMARK    9  A    between atoms: C_15  and  N_16
REMARK   10  A    between atoms: C_19  and  C_20
REMARK   11  A    between atoms: C_20  and  C_21
REMARK   12  A    between atoms: C_20  and  C_28
REMARK   13  A    between atoms: C_24  and  C_25
REMARK   14  A    between atoms: C_31  and  C_32
REMARK                            x       y       z     vdW  Elec       q    Type
REMARK                         _______ _______ _______ _____ _____    ______ ____
ROOT
ATOM      1  N   UNL     1       1.691   7.855  20.378  0.00  0.00    +0.000 NA
ATOM      2  C   UNL     1       1.146   8.536  19.191  0.00  0.00    +0.000 C 
ATOM      3  C   UNL     1       1.436  10.038  19.212  0.00  0.00    +0.000 C 
ATOM      4  C   UNL     1       0.843  10.741  20.452  0.00  0.00    +0.000 C 
ATOM      5  C   UNL     1       1.467  10.044  21.663  0.00  0.00    +0.000 C 
ATOM      6  C   UNL     1       1.308   8.532  21.615  0.00  0.00    +0.000 C 
ENDROOT
BRANCH   1   7
ATOM      7  C   UNL     1       1.331   6.412  20.347  0.00  0.00    +0.000 C 
BRANCH   7   8
ATOM      8  C   UNL     1       2.449   5.361  20.593  0.00  0.00    +0.000 C 
BRANCH   8   9
ATOM      9  C   UNL     1       3.244   5.057  19.320  0.00  0.00    +0.000 C 
BRANCH   9  10
ATOM     10  O   UNL     1       4.631   5.381  19.369  0.00  0.00    +0.000 OA
BRANCH  10  16
ATOM     11  C   UNL     1       6.478   5.768  17.737  0.00  0.00    +0.000 A 
ATOM     12  C   UNL     1       6.979   5.535  16.449  0.00  0.00    +0.000 A 
ATOM     13  C   UNL     1       6.219   4.851  15.506  0.00  0.00    +0.000 A 
ATOM     14  C   UNL     1       4.960   4.362  15.873  0.00  0.00    +0.000 A 
ATOM     15  C   UNL     1       4.487   4.526  17.186  0.00  0.00    +0.000 A 
ATOM     16  C   UNL     1       5.238   5.231  18.133  0.00  0.00    +0.000 A 
BRANCH  13  17
ATOM     17  C   UNL     1       6.697   4.695  14.106  0.00  0.00    +0.000 C 
ATOM     18  C   UNL     1       6.036   3.669  13.207  0.00  0.00    +0.000 C 
ATOM     19  O   UNL     1       7.605   5.401  13.692  0.00  0.00    +0.000 OA
ENDBRANCH  13  17
BRANCH  11  21
ATOM     20  C   UNL     1       8.029   5.694  19.490  0.00  0.00    +0.000 C 
ATOM     21  O   UNL     1       7.241   6.499  18.609  0.00  0.00    +0.000 OA
ENDBRANCH  11  21
ENDBRANCH  10  16
ENDBRANCH   9  10
ENDBRANCH   8   9
ENDBRANCH   7   8
ENDBRANCH   1   7
BRANCH   4  22
ATOM     22  C   UNL     1      -0.734  10.782  20.507  0.00  0.00    +0.000 C 
BRANCH  22  23
ATOM     23  C   UNL     1      -1.245  11.939  21.385  0.00  0.00    +0.000 A 
ATOM     24  C   UNL     1      -0.376  12.891  21.929  0.00  0.00    +0.000 A 
ATOM     25  C   UNL     1      -0.833  13.834  22.852  0.00  0.00    +0.000 A 
ATOM     26  C   UNL     1      -2.174  13.851  23.248  0.00  0.00    +0.000 A 
ATOM     27  C   UNL     1      -2.650  14.788  24.323  0.00  0.00    +0.000 C 
ATOM     28  C   UNL     1      -3.061  12.955  22.651  0.00  0.00    +0.000 A 
ATOM     29  C   UNL     1      -2.608  12.030  21.704  0.00  0.00    +0.000 A 
ENDBRANCH  22  23
BRANCH  22  30
ATOM     30  C   UNL     1      -1.421  10.806  19.145  0.00  0.00    +0.000 A 
ATOM     31  C   UNL     1      -1.237  11.910  18.295  0.00  0.00    +0.000 A 
ATOM     32  C   UNL     1      -1.814  11.942  17.026  0.00  0.00    +0.000 A 
ATOM     33  C   UNL     1      -2.584  10.867  16.583  0.00  0.00    +0.000 A 
ATOM     34  C   UNL     1      -3.179  10.854  15.197  0.00  0.00    +0.000 C 
ATOM     35  C   UNL     1      -2.790   9.765  17.420  0.00  0.00    +0.000 A 
ATOM     36  C   UNL     1      -2.200   9.735  18.683  0.00  0.00    +0.000 A 
ENDBRANCH  22  30
ENDBRANCH   4  22
TORSDOF 10
ENDMDL
MODEL 6
REMARK VINA RESULT:      -7.4      1.799      3.486
REMARK  Name = 
REMARK  14 active torsions:
REMARK  status: ('A' for Active; 'I' for Inactive)
REMARK    1  A    between atoms: C_1  and  O_2
REMARK    2  A    between atoms: O_2  and  C_3
REMARK    3  A    between atoms: C_5  and  C_6
REMARK    4  A    between atoms: C_6  and  C_7
REMARK    5  A    between atoms: C_11  and  O_12
REMARK    6  A    between atoms: O_12  and  C_13
REMARK    7  A    between atoms: C_13  and  C_14
REMARK    8  A    between atoms: C_14  and  C_15
REMARK    9  A    between atoms: C_15  and  N_16
REMARK   10  A    between atoms: C_19  and  C_20
REMARK   11  A    between atoms: C_20  and  C_21
REMARK   12  A    between atoms: C_20  and  C_28
REMARK   13  A    between atoms: C_24  and  C_25
REMARK   14  A    between atoms: C_31  and  C_32
REMARK                            x       y       z     vdW  Elec       q    Type
REMARK                         _______ _______ _______ _____ _____    ______ ____
ROOT
ATOM      1  N   UNL     1       1.067   8.073  21.514  0.00  0.00    +0.000 NA
ATOM      2  C   UNL     1       1.874   9.272  21.228  0.00  0.00    +0.000 C 
ATOM      3  C   UNL     1       1.189  10.549  21.718  0.00  0.00    +0.000 C 
ATOM      4  C   UNL     1      -0.196  10.769  21.072  0.00  0.00    +0.000 C 
ATOM      5  C   UNL     1      -1.021   9.531  21.429  0.00  0.00    +0.000 C 
ATOM      6  C   UNL     1      -0.316   8.232  21.070  0.00  0.00    +0.000 C 
ENDROOT
BRANCH   1   7
ATOM      7  C   UNL     1       1.739   6.866  20.964  0.00  0.00    +0.000 C 
BRANCH   7   8
ATOM      8  C   UNL     1       2.346   6.939  19.535  0.00  0.00    +0.000 C 
BRANCH   8   9
ATOM      9  C   UNL     1       2.926   5.594  19.086  0.00  0.00    +0.000 C 
BRANCH   9  10
ATOM     10  O   UNL     1       4.319   5.414  19.328  0.00  0.00    +0.000 OA
BRANCH  10  16
ATOM     11  C   UNL     1       6.347   5.688  17.902  0.00  0.00    +0.000 A 
ATOM     12  C   UNL     1       6.952   5.463  16.658  0.00  0.00    +0.000 A 
ATOM     13  C   UNL     1       6.229   4.898  15.612  0.00  0.00    +0.000 A 
ATOM     14  C   UNL     1       4.898   4.520  15.831  0.00  0.00    +0.000 A 
ATOM     15  C   UNL     1       4.315   4.673  17.099  0.00  0.00    +0.000 A 
ATOM     16  C   UNL     1       5.029   5.259  18.150  0.00  0.00    +0.000 A 
BRANCH  13  17
ATOM     17  C   UNL     1       6.827   4.756  14.258  0.00  0.00    +0.000 C 
ATOM     18  C   UNL     1       6.236   3.753  13.287  0.00  0.00    +0.000 C 
ATOM     19  O   UNL     1       7.778   5.456  13.938  0.00  0.00    +0.000 OA
ENDBRANCH  13  17
BRANCH  11  21
ATOM     20  C   UNL     1       8.203   5.527  19.323  0.00  0.00    +0.000 C 
ATOM     21  O   UNL     1       7.085   6.301  18.881  0.00  0.00    +0.000 OA
ENDBRANCH  11  21
ENDBRANCH  10  16
ENDBRANCH   9  10
ENDBRANCH   8   9
ENDBRANCH   7   8
ENDBRANCH   1   7
BRANCH   4  22
ATOM     22  C   UNL     1      -0.170  11.068  19.522  0.00  0.00    +0.000 C 
BRANCH  22  23
ATOM     23  C   UNL     1      -1.587  11.264  18.955  0.00  0.00    +0.000 A 
ATOM     24  C   UNL     1      -2.507  12.133  19.553  0.00  0.00    +0.000 A 
ATOM     25  C   UNL     1      -3.835  12.176  19.124  0.00  0.00    +0.000 A 
ATOM     26  C   UNL     1      -4.274  11.356  18.080  0.00  0.00    +0.000 A 
ATOM     27  C   UNL     1      -5.725  11.314  17.688  0.00  0.00    +0.000 C 
ATOM     28  C   UNL     1      -3.344  10.545  17.428  0.00  0.00    +0.000 A 
ATOM     29  C   UNL     1      -2.007  10.524  17.840  0.00  0.00    +0.000 A 
ENDBRANCH  22  23
BRANCH  22  30
ATOM     30  C   UNL     1       0.732  12.228  19.110  0.00  0.00    +0.000 A 
ATOM     31  C   UNL     1       1.957  11.961  18.475  0.00  0.00    +0.000 A 
ATOM     32  C   UNL     1       2.783  12.999  18.045  0.00  0.00    +0.000 A 
ATOM     33  C   UNL     1       2.397  14.325  18.241  0.00  0.00    +0.000 A 
ATOM     34  C   UNL     1       3.248  15.466  17.743  0.00  0.00    +0.000 C 
ATOM     35  C   UNL     1       1.188  14.610  18.884  0.00  0.00    +0.000 A 
ATOM     36  C   UNL     1       0.361  13.567  19.300  0.00  0.00    +0.000 A 
ENDBRANCH  22  30
ENDBRANCH   4  22
TORSDOF 10
ENDMDL
MODEL 7
REMARK VINA RESULT:      -7.3      2.250      4.324
REMARK  Name = 
REMARK  14 active torsions:
REMARK  status: ('A' for Active; 'I' for Inactive)
REMARK    1  A    between atoms: C_1  and  O_2
REMARK    2  A    between atoms: O_2  and  C_3
REMARK    3  A    between atoms: C_5  and  C_6
REMARK    4  A    between atoms: C_6  and  C_7
REMARK    5  A    between atoms: C_11  and  O_12
REMARK    6  A    between atoms: O_12  and  C_13
REMARK    7  A    between atoms: C_13  and  C_14
REMARK    8  A    between atoms: C_14  and  C_15
REMARK    9  A    between atoms: C_15  and  N_16
REMARK   10  A    between atoms: C_19  and  C_20
REMARK   11  A    between atoms: C_20  and  C_21
REMARK   12  A    between atoms: C_20  and  C_28
REMARK   13  A    between atoms: C_24  and  C_25
REMARK   14  A    between atoms: C_31  and  C_32
REMARK                            x       y       z     vdW  Elec       q    Type
REMARK                         _______ _______ _______ _____ _____    ______ ____
ROOT
ATOM      1  N   UNL     1       1.078   7.332  21.560  0.00  0.00    +0.000 NA
ATOM      2  C   UNL     1       1.960   8.512  21.559  0.00  0.00    +0.000 C 
ATOM      3  C   UNL     1       1.251   9.755  22.099  0.00  0.00    +0.000 C 
ATOM      4  C   UNL     1      -0.005  10.126  21.281  0.00  0.00    +0.000 C 
ATOM      5  C   UNL     1      -0.919   8.901  21.344  0.00  0.00    +0.000 C 
ATOM      6  C   UNL     1      -0.211   7.618  20.933  0.00  0.00    +0.000 C 
ENDROOT
BRANCH   1   7
ATOM      7  C   UNL     1       1.787   6.166  20.969  0.00  0.00    +0.000 C 
BRANCH   7   8
ATOM      8  C   UNL     1       0.943   4.966  20.454  0.00  0.00    +0.000 C 
BRANCH   8   9
ATOM      9  C   UNL     1       1.810   3.901  19.777  0.00  0.00    +0.000 C 
BRANCH   9  10
ATOM     10  O   UNL     1       2.000   4.064  18.374  0.00  0.00    +0.000 OA
BRANCH  10  16
ATOM     11  C   UNL     1       3.323   6.079  17.731  0.00  0.00    +0.000 A 
ATOM     12  C   UNL     1       4.588   6.623  17.470  0.00  0.00    +0.000 A 
ATOM     13  C   UNL     1       5.719   5.813  17.464  0.00  0.00    +0.000 A 
ATOM     14  C   UNL     1       5.583   4.452  17.761  0.00  0.00    +0.000 A 
ATOM     15  C   UNL     1       4.329   3.919  18.100  0.00  0.00    +0.000 A 
ATOM     16  C   UNL     1       3.184   4.723  18.088  0.00  0.00    +0.000 A 
BRANCH  13  17
ATOM     17  C   UNL     1       7.049   6.360  17.080  0.00  0.00    +0.000 C 
ATOM     18  C   UNL     1       7.860   7.125  18.106  0.00  0.00    +0.000 C 
ATOM     19  O   UNL     1       7.478   6.175  15.950  0.00  0.00    +0.000 OA
ENDBRANCH  13  17
BRANCH  11  21
ATOM     20  C   UNL     1       2.543   8.277  17.937  0.00  0.00    +0.000 C 
ATOM     21  O   UNL     1       2.234   6.907  17.667  0.00  0.00    +0.000 OA
ENDBRANCH  11  21
ENDBRANCH  10  16
ENDBRANCH   9  10
ENDBRANCH   8   9
ENDBRANCH   7   8
ENDBRANCH   1   7
BRANCH   4  22
ATOM     22  C   UNL     1       0.278  10.611  19.805  0.00  0.00    +0.000 C 
BRANCH  22  23
ATOM     23  C   UNL     1      -1.026  10.875  19.031  0.00  0.00    +0.000 A 
ATOM     24  C   UNL     1      -1.989  11.778  19.496  0.00  0.00    +0.000 A 
ATOM     25  C   UNL     1      -3.232  11.885  18.870  0.00  0.00    +0.000 A 
ATOM     26  C   UNL     1      -3.541  11.095  17.758  0.00  0.00    +0.000 A 
ATOM     27  C   UNL     1      -4.914  11.122  17.148  0.00  0.00    +0.000 C 
ATOM     28  C   UNL     1      -2.557  10.250  17.243  0.00  0.00    +0.000 A 
ATOM     29  C   UNL     1      -1.301  10.165  17.853  0.00  0.00    +0.000 A 
ENDBRANCH  22  23
BRANCH  22  30
ATOM     30  C   UNL     1       1.214  11.811  19.695  0.00  0.00    +0.000 A 
ATOM     31  C   UNL     1       1.934  12.021  18.506  0.00  0.00    +0.000 A 
ATOM     32  C   UNL     1       2.762  13.132  18.356  0.00  0.00    +0.000 A 
ATOM     33  C   UNL     1       2.884  14.057  19.394  0.00  0.00    +0.000 A 
ATOM     34  C   UNL     1       3.735  15.292  19.241  0.00  0.00    +0.000 C 
ATOM     35  C   UNL     1       2.186  13.857  20.590  0.00  0.00    +0.000 A 
ATOM     36  C   UNL     1       1.350  12.750  20.728  0.00  0.00    +0.000 A 
ENDBRANCH  22  30
ENDBRANCH   4  22
TORSDOF 10
ENDMDL
MODEL 8
REMARK VINA RESULT:      -7.3      2.061      4.209
REMARK  Name = 
REMARK  14 active torsions:
REMARK  status: ('A' for Active; 'I' for Inactive)
REMARK    1  A    between atoms: C_1  and  O_2
REMARK    2  A    between atoms: O_2  and  C_3
REMARK    3  A    between atoms: C_5  and  C_6
REMARK    4  A    between atoms: C_6  and  C_7
REMARK    5  A    between atoms: C_11  and  O_12
REMARK    6  A    between atoms: O_12  and  C_13
REMARK    7  A    between atoms: C_13  and  C_14
REMARK    8  A    between atoms: C_14  and  C_15
REMARK    9  A    between atoms: C_15  and  N_16
REMARK   10  A    between atoms: C_19  and  C_20
REMARK   11  A    between atoms: C_20  and  C_21
REMARK   12  A    between atoms: C_20  and  C_28
REMARK   13  A    between atoms: C_24  and  C_25
REMARK   14  A    between atoms: C_31  and  C_32
REMARK                            x       y       z     vdW  Elec       q    Type
REMARK                         _______ _______ _______ _____ _____    ______ ____
ROOT
ATOM      1  N   UNL     1       0.693   9.774  19.295  0.00  0.00    +0.000 NA
ATOM      2  C   UNL     1      -0.646   9.864  19.902  0.00  0.00    +0.000 C 
ATOM      3  C   UNL     1      -1.508  10.932  19.225  0.00  0.00    +0.000 C 
ATOM      4  C   UNL     1      -0.879  12.340  19.300  0.00  0.00    +0.000 C 
ATOM      5  C   UNL     1       0.486  12.222  18.618  0.00  0.00    +0.000 C 
ATOM      6  C   UNL     1       1.327  11.086  19.182  0.00  0.00    +0.000 C 
ENDROOT
BRANCH   1   7
ATOM      7  C   UNL     1       1.515   8.772  20.024  0.00  0.00    +0.000 C 
BRANCH   7   8
ATOM      8  C   UNL     1       2.147   7.601  19.219  0.00  0.00    +0.000 C 
BRANCH   8   9
ATOM      9  C   UNL     1       2.339   6.349  20.080  0.00  0.00    +0.000 C 
BRANCH   9  10
ATOM     10  O   UNL     1       2.269   5.108  19.383  0.00  0.00    +0.000 OA
BRANCH  10  16
ATOM     11  C   UNL     1       3.431   4.057  17.442  0.00  0.00    +0.000 A 
ATOM     12  C   UNL     1       4.602   3.970  16.676  0.00  0.00    +0.000 A 
ATOM     13  C   UNL     1       5.746   4.666  17.052  0.00  0.00    +0.000 A 
ATOM     14  C   UNL     1       5.702   5.488  18.184  0.00  0.00    +0.000 A 
ATOM     15  C   UNL     1       4.508   5.638  18.909  0.00  0.00    +0.000 A 
ATOM     16  C   UNL     1       3.359   4.925  18.549  0.00  0.00    +0.000 A 
BRANCH  13  17
ATOM     17  C   UNL     1       7.024   4.495  16.309  0.00  0.00    +0.000 C 
ATOM     18  C   UNL     1       7.031   4.641  14.800  0.00  0.00    +0.000 C 
ATOM     19  O   UNL     1       8.054   4.252  16.921  0.00  0.00    +0.000 OA
ENDBRANCH  13  17
BRANCH  11  21
ATOM     20  C   UNL     1       2.249   2.060  17.757  0.00  0.00    +0.000 C 
ATOM     21  O   UNL     1       2.350   3.306  17.062  0.00  0.00    +0.000 OA
ENDBRANCH  11  21
ENDBRANCH  10  16
ENDBRANCH   9  10
ENDBRANCH   8   9
ENDBRANCH   7   8
ENDBRANCH   1   7
BRANCH   4  22
ATOM     22  C   UNL     1      -0.794  12.958  20.750  0.00  0.00    +0.000 C 
BRANCH  22  23
ATOM     23  C   UNL     1      -0.239  14.393  20.728  0.00  0.00    +0.000 A 
ATOM     24  C   UNL     1      -0.821  15.397  19.947  0.00  0.00    +0.000 A 
ATOM     25  C   UNL     1      -0.211  16.646  19.812  0.00  0.00    +0.000 A 
ATOM     26  C   UNL     1       0.995  16.923  20.463  0.00  0.00    +0.000 A 
ATOM     27  C   UNL     1       1.716  18.222  20.234  0.00  0.00    +0.000 C 
ATOM     28  C   UNL     1       1.540  15.954  21.306  0.00  0.00    +0.000 A 
ATOM     29  C   UNL     1       0.912  14.713  21.463  0.00  0.00    +0.000 A 
ENDBRANCH  22  23
BRANCH  22  30
ATOM     30  C   UNL     1      -2.096  12.905  21.544  0.00  0.00    +0.000 A 
ATOM     31  C   UNL     1      -2.074  12.476  22.883  0.00  0.00    +0.000 A 
ATOM     32  C   UNL     1      -3.238  12.459  23.650  0.00  0.00    +0.000 A 
ATOM     33  C   UNL     1      -4.448  12.873  23.091  0.00  0.00    +0.000 A 
ATOM     34  C   UNL     1      -5.712  12.910  23.912  0.00  0.00    +0.000 C 
ATOM     35  C   UNL     1      -4.492  13.289  21.757  0.00  0.00    +0.000 A 
ATOM     36  C   UNL     1      -3.321  13.315  21.000  0.00  0.00    +0.000 A 
ENDBRANCH  22  30
ENDBRANCH   4  22
TORSDOF 10
ENDMDL
MODEL 9
REMARK VINA RESULT:      -7.3      0.945      2.055
REMARK  Name = 
REMARK  14 active torsions:
REMARK  status: ('A' for Active; 'I' for Inactive)
REMARK    1  A    between atoms: C_1  and  O_2
REMARK    2  A    between atoms: O_2  and  C_3
REMARK    3  A    between atoms: C_5  and  C_6
REMARK    4  A    between atoms: C_6  and  C_7
REMARK    5  A    between atoms: C_11  and  O_12
REMARK    6  A    between atoms: O_12  and  C_13
REMARK    7  A    between atoms: C_13  and  C_14
REMARK    8  A    between atoms: C_14  and  C_15
REMARK    9  A    between atoms: C_15  and  N_16
REMARK   10  A    between atoms: C_19  and  C_20
REMARK   11  A    between atoms: C_20  and  C_21
REMARK   12  A    between atoms: C_20  and  C_28
REMARK   13  A    between atoms: C_24  and  C_25
REMARK   14  A    between atoms: C_31  and  C_32
REMARK                            x       y       z     vdW  Elec       q    Type
REMARK                         _______ _______ _______ _____ _____    ______ ____
ROOT
ATOM      1  N   UNL     1       1.672   8.957  19.513  0.00  0.00    +0.000 NA
ATOM      2  C   UNL     1       1.013   9.636  18.384  0.00  0.00    +0.000 C 
ATOM      3  C   UNL     1       0.968  11.153  18.578  0.00  0.00    +0.000 C 
ATOM      4  C   UNL     1       0.213  11.567  19.860  0.00  0.00    +0.000 C 
ATOM      5  C   UNL     1       0.952  10.887  21.014  0.00  0.00    +0.000 C 
ATOM      6  C   UNL     1       1.127   9.391  20.799  0.00  0.00    +0.000 C 
ENDROOT
BRANCH   1   7
ATOM      7  C   UNL     1       1.635   7.484  19.313  0.00  0.00    +0.000 C 
BRANCH   7   8
ATOM      8  C   UNL     1       2.001   6.562  20.510  0.00  0.00    +0.000 C 
BRANCH   8   9
ATOM      9  C   UNL     1       1.869   5.078  20.155  0.00  0.00    +0.000 C 
BRANCH   9  10
ATOM     10  O   UNL     1       3.077   4.324  20.204  0.00  0.00    +0.000 OA
BRANCH  10  16
ATOM     11  C   UNL     1       3.631   3.997  17.793  0.00  0.00    +0.000 A 
ATOM     12  C   UNL     1       4.502   4.289  16.735  0.00  0.00    +0.000 A 
ATOM     13  C   UNL     1       5.658   5.031  16.954  0.00  0.00    +0.000 A 
ATOM     14  C   UNL     1       5.921   5.518  18.240  0.00  0.00    +0.000 A 
ATOM     15  C   UNL     1       5.010   5.293  19.286  0.00  0.00    +0.000 A 
ATOM     16  C   UNL     1       3.856   4.530  19.077  0.00  0.00    +0.000 A 
BRANCH  13  17
ATOM     17  C   UNL     1       6.643   5.253  15.861  0.00  0.00    +0.000 C 
ATOM     18  C   UNL     1       6.530   4.444  14.584  0.00  0.00    +0.000 C 
ATOM     19  O   UNL     1       7.522   6.092  15.998  0.00  0.00    +0.000 OA
ENDBRANCH  13  17
BRANCH  11  21
ATOM     20  C   UNL     1       2.679   1.867  17.998  0.00  0.00    +0.000 C 
ATOM     21  O   UNL     1       2.537   3.213  17.536  0.00  0.00    +0.000 OA
ENDBRANCH  11  21
ENDBRANCH  10  16
ENDBRANCH   9  10
ENDBRANCH   8   9
ENDBRANCH   7   8
ENDBRANCH   1   7
BRANCH   4  22
ATOM     22  C   UNL     1      -1.336  11.262  19.851  0.00  0.00    +0.000 C 
BRANCH  22  23
ATOM     23  C   UNL     1      -2.142  12.381  20.534  0.00  0.00    +0.000 A 
ATOM     24  C   UNL     1      -3.540  12.414  20.490  0.00  0.00    +0.000 A 
ATOM     25  C   UNL     1      -4.247  13.517  20.972  0.00  0.00    +0.000 A 
ATOM     26  C   UNL     1      -3.571  14.613  21.518  0.00  0.00    +0.000 A 
ATOM     27  C   UNL     1      -4.316  15.851  21.935  0.00  0.00    +0.000 C 
ATOM     28  C   UNL     1      -2.182  14.553  21.636  0.00  0.00    +0.000 A 
ATOM     29  C   UNL     1      -1.477  13.434  21.179  0.00  0.00    +0.000 A 
ENDBRANCH  22  23
BRANCH  22  30
ATOM     30  C   UNL     1      -1.918  10.951  18.476  0.00  0.00    +0.000 A 
ATOM     31  C   UNL     1      -1.875  11.929  17.467  0.00  0.00    +0.000 A 
ATOM     32  C   UNL     1      -2.358  11.660  16.187  0.00  0.00    +0.000 A 
ATOM     33  C   UNL     1      -2.892  10.406  15.891  0.00  0.00    +0.000 A 
ATOM     34  C   UNL     1      -3.376  10.073  14.502  0.00  0.00    +0.000 C 
ATOM     35  C   UNL     1      -2.956   9.425  16.886  0.00  0.00    +0.000 A 
ATOM     36  C   UNL     1      -2.460   9.696  18.161  0.00  0.00    +0.000 A 
ENDBRANCH  22  30
ENDBRANCH   4  22
TORSDOF 10
ENDMDL
