MODEL 1
REMARK VINA RESULT:      -8.3      0.000      0.000
REMARK  Name = 
REMARK  5 active torsions:
REMARK  status: ('A' for Active; 'I' for Inactive)
REMARK    1  A    between atoms: C_1  and  C_2
REMARK    2  A    between atoms: C_8  and  N_9
REMARK    3  A    between atoms: C_10  and  C_12
REMARK    4  A    between atoms: N_16  and  S_17
REMARK    5  A    between atoms: S_17  and  C_20
REMARK                            x       y       z     vdW  Elec       q    Type
REMARK                         _______ _______ _______ _____ _____    ______ ____
ROOT
ATOM      1  C   UNL     1       1.185   9.577  22.140  0.00  0.00    +0.000 C 
ATOM      2  C   UNL     1       0.268   9.670  23.362  0.00  0.00    +0.000 C 
ATOM      3  C   UNL     1      -1.159  10.036  22.981  0.00  0.00    +0.000 C 
ATOM      4  C   UNL     1      -1.212  11.266  22.079  0.00  0.00    +0.000 C 
ATOM      5  N   UNL     1      -0.307  11.108  20.904  0.00  0.00    +0.000 NA
ATOM      6  C   UNL     1       1.105  10.833  21.280  0.00  0.00    +0.000 C 
ENDROOT
BRANCH   1   8
ATOM      7  N   UNL     1       2.121   7.689  20.806  0.00  0.00    +0.000 N 
ATOM      8  C   UNL     1       0.993   8.256  21.385  0.00  0.00    +0.000 C 
ATOM      9  O   UNL     1      -0.154   7.834  21.265  0.00  0.00    +0.000 OA
ATOM     10  H   UNL     1       2.974   8.242  20.822  0.00  0.00    +0.000 HD
BRANCH   7  18
ATOM     11  C   UNL     1       2.809   7.598  17.901  0.00  0.00    +0.000 C 
ATOM     12  C   UNL     1       2.463   6.391  18.731  0.00  0.00    +0.000 A 
ATOM     13  C   UNL     1       2.466   5.139  18.073  0.00  0.00    +0.000 A 
ATOM     14  C   UNL     1       2.178   3.964  18.764  0.00  0.00    +0.000 A 
ATOM     15 BR   UNL     1       2.141   2.308  17.854  0.00  0.00    +0.000 Br
ATOM     16  C   UNL     1       1.923   4.007  20.123  0.00  0.00    +0.000 A 
ATOM     17  C   UNL     1       1.925   5.237  20.787  0.00  0.00    +0.000 A 
ATOM     18  C   UNL     1       2.164   6.446  20.112  0.00  0.00    +0.000 A 
ENDBRANCH   7  18
ENDBRANCH   1   8
BRANCH   5  19
ATOM     19  S   UNL     1      -0.540  12.213  19.618  0.00  0.00    +0.000 S 
ATOM     20  O   UNL     1      -1.147  13.401  20.192  0.00  0.00    +0.000 OA
ATOM     21  O   UNL     1       0.708  12.319  18.893  0.00  0.00    +0.000 OA
BRANCH  19  22
ATOM     22  C   UNL     1      -1.732  11.492  18.547  0.00  0.00    +0.000 A 
ATOM     23  C   UNL     1      -1.357  10.593  17.519  0.00  0.00    +0.000 A 
ATOM     24  C   UNL     1      -2.305   9.922  16.698  0.00  0.00    +0.000 A 
ATOM     25  C   UNL     1      -3.694  10.088  16.836  0.00  0.00    +0.000 A 
ATOM     26  C   UNL     1      -4.082  10.968  17.862  0.00  0.00    +0.000 A 
ATOM     27  N   UNL     1      -5.315  11.327  18.236  0.00  0.00    +0.000 NA
ATOM     28  O   UNL     1      -5.151  12.191  19.300  0.00  0.00    +0.000 OA
ATOM     29  N   UNL     1      -3.818  12.396  19.591  0.00  0.00    +0.000 NA
ATOM     30  C   UNL     1      -3.118  11.655  18.719  0.00  0.00    +0.000 A 
ENDBRANCH  19  22
ENDBRANCH   5  19
TORSDOF 4
ENDMDL
MODEL 2
REMARK VINA RESULT:      -8.0      4.295      6.093
REMARK  Name = 
REMARK  5 active torsions:
REMARK  status: ('A' for Active; 'I' for Inactive)
REMARK    1  A    between atoms: C_1  and  C_2
REMARK    2  A    between atoms: C_8  and  N_9
REMARK    3  A    between atoms: C_10  and  C_12
REMARK    4  A    between atoms: N_16  and  S_17
REMARK    5  A    between atoms: S_17  and  C_20
REMARK                            x       y       z     vdW  Elec       q    Type
REMARK                         _______ _______ _______ _____ _____    ______ ____
ROOT
ATOM      1  C   UNL     1      -1.404  13.722  21.474  0.00  0.00    +0.000 C 
ATOM      2  C   UNL     1      -0.631  12.757  22.375  0.00  0.00    +0.000 C 
ATOM      3  C   UNL     1      -1.483  11.575  22.813  0.00  0.00    +0.000 C 
ATOM      4  C   UNL     1      -2.822  12.019  23.395  0.00  0.00    +0.000 C 
ATOM      5  N   UNL     1      -3.529  12.948  22.466  0.00  0.00    +0.000 NA
ATOM      6  C   UNL     1      -2.725  14.146  22.106  0.00  0.00    +0.000 C 
ENDROOT
BRANCH   1   8
ATOM      7  N   UNL     1      -2.437  12.194  19.795  0.00  0.00    +0.000 N 
ATOM      8  C   UNL     1      -1.508  13.198  20.036  0.00  0.00    +0.000 C 
ATOM      9  O   UNL     1      -0.706  13.634  19.215  0.00  0.00    +0.000 OA
ATOM     10  H   UNL     1      -2.904  11.794  20.605  0.00  0.00    +0.000 HD
BRANCH   7  18
ATOM     11  C   UNL     1      -0.567  10.208  18.579  0.00  0.00    +0.000 C 
ATOM     12  C   UNL     1      -1.835  10.692  17.927  0.00  0.00    +0.000 A 
ATOM     13  C   UNL     1      -2.142  10.162  16.653  0.00  0.00    +0.000 A 
ATOM     14  C   UNL     1      -3.304  10.535  15.981  0.00  0.00    +0.000 A 
ATOM     15 BR   UNL     1      -3.671   9.851  14.258  0.00  0.00    +0.000 Br
ATOM     16  C   UNL     1      -4.197  11.407  16.578  0.00  0.00    +0.000 A 
ATOM     17  C   UNL     1      -3.909  11.931  17.841  0.00  0.00    +0.000 A 
ATOM     18  C   UNL     1      -2.724  11.614  18.526  0.00  0.00    +0.000 A 
ENDBRANCH   7  18
ENDBRANCH   1   8
BRANCH   5  19
ATOM     19  S   UNL     1      -5.186  13.225  22.793  0.00  0.00    +0.000 S 
ATOM     20  O   UNL     1      -5.629  12.143  23.654  0.00  0.00    +0.000 OA
ATOM     21  O   UNL     1      -5.328  14.598  23.227  0.00  0.00    +0.000 OA
BRANCH  19  22
ATOM     22  C   UNL     1      -6.035  13.047  21.264  0.00  0.00    +0.000 A 
ATOM     23  C   UNL     1      -6.792  11.889  20.966  0.00  0.00    +0.000 A 
ATOM     24  C   UNL     1      -7.564  11.756  19.780  0.00  0.00    +0.000 A 
ATOM     25  C   UNL     1      -7.648  12.762  18.802  0.00  0.00    +0.000 A 
ATOM     26  C   UNL     1      -6.911  13.925  19.090  0.00  0.00    +0.000 A 
ATOM     27  N   UNL     1      -6.793  15.043  18.364  0.00  0.00    +0.000 NA
ATOM     28  O   UNL     1      -5.979  15.884  19.097  0.00  0.00    +0.000 OA
ATOM     29  N   UNL     1      -5.567  15.297  20.276  0.00  0.00    +0.000 NA
ATOM     30  C   UNL     1      -6.122  14.077  20.311  0.00  0.00    +0.000 A 
ENDBRANCH  19  22
ENDBRANCH   5  19
TORSDOF 4
ENDMDL
MODEL 3
REMARK VINA RESULT:      -7.7      4.945      7.197
REMARK  Name = 
REMARK  5 active torsions:
REMARK  status: ('A' for Active; 'I' for Inactive)
REMARK    1  A    between atoms: C_1  and  C_2
REMARK    2  A    between atoms: C_8  and  N_9
REMARK    3  A    between atoms: C_10  and  C_12
REMARK    4  A    between atoms: N_16  and  S_17
REMARK    5  A    between atoms: S_17  and  C_20
REMARK                            x       y       z     vdW  Elec       q    Type
REMARK                         _______ _______ _______ _____ _____    ______ ____
ROOT
ATOM      1  C   UNL     1      -2.546   9.822  17.790  0.00  0.00    +0.000 C 
ATOM      2  C   UNL     1      -2.324   9.808  16.277  0.00  0.00    +0.000 C 
ATOM      3  C   UNL     1      -2.872  11.059  15.605  0.00  0.00    +0.000 C 
ATOM      4  C   UNL     1      -4.317  11.339  16.012  0.00  0.00    +0.000 C 
ATOM      5  N   UNL     1      -4.464  11.350  17.496  0.00  0.00    +0.000 NA
ATOM      6  C   UNL     1      -4.004  10.092  18.143  0.00  0.00    +0.000 C 
ENDROOT
BRANCH   1   8
ATOM      7  N   UNL     1      -1.921  12.016  18.800  0.00  0.00    +0.000 N 
ATOM      8  C   UNL     1      -1.526  10.716  18.506  0.00  0.00    +0.000 C 
ATOM      9  O   UNL     1      -0.403  10.257  18.694  0.00  0.00    +0.000 OA
ATOM     10  H   UNL     1      -2.812  12.323  18.419  0.00  0.00    +0.000 HD
BRANCH   7  18
ATOM     11  C   UNL     1      -1.668  11.882  21.773  0.00  0.00    +0.000 C 
ATOM     12  C   UNL     1      -1.039  12.945  20.913  0.00  0.00    +0.000 A 
ATOM     13  C   UNL     1      -0.283  13.940  21.576  0.00  0.00    +0.000 A 
ATOM     14  C   UNL     1       0.354  14.953  20.861  0.00  0.00    +0.000 A 
ATOM     15 BR   UNL     1       1.317  16.300  21.771  0.00  0.00    +0.000 Br
ATOM     16  C   UNL     1       0.285  14.971  19.480  0.00  0.00    +0.000 A 
ATOM     17  C   UNL     1      -0.452  13.989  18.812  0.00  0.00    +0.000 A 
ATOM     18  C   UNL     1      -1.145  12.981  19.504  0.00  0.00    +0.000 A 
ENDBRANCH   7  18
ENDBRANCH   1   8
BRANCH   5  19
ATOM     19  S   UNL     1      -5.915  12.022  18.105  0.00  0.00    +0.000 S 
ATOM     20  O   UNL     1      -6.227  13.169  17.271  0.00  0.00    +0.000 OA
ATOM     21  O   UNL     1      -6.876  10.948  18.245  0.00  0.00    +0.000 OA
BRANCH  19  22
ATOM     22  C   UNL     1      -5.548  12.635  19.710  0.00  0.00    +0.000 A 
ATOM     23  C   UNL     1      -4.667  13.726  19.904  0.00  0.00    +0.000 A 
ATOM     24  C   UNL     1      -4.423  14.303  21.180  0.00  0.00    +0.000 A 
ATOM     25  C   UNL     1      -5.038  13.847  22.360  0.00  0.00    +0.000 A 
ATOM     26  C   UNL     1      -5.927  12.772  22.181  0.00  0.00    +0.000 A 
ATOM     27  N   UNL     1      -6.656  12.127  23.099  0.00  0.00    +0.000 NA
ATOM     28  O   UNL     1      -7.374  11.172  22.407  0.00  0.00    +0.000 OA
ATOM     29  N   UNL     1      -7.090  11.198  21.057  0.00  0.00    +0.000 NA
ATOM     30  C   UNL     1      -6.194  12.177  20.873  0.00  0.00    +0.000 A 
ENDBRANCH  19  22
ENDBRANCH   5  19
TORSDOF 4
ENDMDL
MODEL 4
REMARK VINA RESULT:      -7.7      1.327      1.710
REMARK  Name = 
REMARK  5 active torsions:
REMARK  status: ('A' for Active; 'I' for Inactive)
REMARK    1  A    between atoms: C_1  and  C_2
REMARK    2  A    between atoms: C_8  and  N_9
REMARK    3  A    between atoms: C_10  and  C_12
REMARK    4  A    between atoms: N_16  and  S_17
REMARK    5  A    between atoms: S_17  and  C_20
REMARK                            x       y       z     vdW  Elec       q    Type
REMARK                         _______ _______ _______ _____ _____    ______ ____
ROOT
ATOM      1  C   UNL     1       1.171   9.794  21.997  0.00  0.00    +0.000 C 
ATOM      2  C   UNL     1       0.368   9.698  23.295  0.00  0.00    +0.000 C 
ATOM      3  C   UNL     1      -1.106  10.008  23.082  0.00  0.00    +0.000 C 
ATOM      4  C   UNL     1      -1.311  11.321  22.330  0.00  0.00    +0.000 C 
ATOM      5  N   UNL     1      -0.511  11.348  21.071  0.00  0.00    +0.000 NA
ATOM      6  C   UNL     1       0.943  11.127  21.292  0.00  0.00    +0.000 C 
ENDROOT
BRANCH   1   8
ATOM      7  N   UNL     1       2.101   7.757  20.899  0.00  0.00    +0.000 N 
ATOM      8  C   UNL     1       0.983   8.552  21.118  0.00  0.00    +0.000 C 
ATOM      9  O   UNL     1      -0.116   8.388  20.595  0.00  0.00    +0.000 OA
ATOM     10  H   UNL     1       2.991   8.112  21.237  0.00  0.00    +0.000 HD
BRANCH   7  18
ATOM     11  C   UNL     1       2.844   7.750  18.006  0.00  0.00    +0.000 C 
ATOM     12  C   UNL     1       2.448   6.524  18.785  0.00  0.00    +0.000 A 
ATOM     13  C   UNL     1       2.431   5.297  18.082  0.00  0.00    +0.000 A 
ATOM     14  C   UNL     1       2.097   4.107  18.725  0.00  0.00    +0.000 A 
ATOM     15 BR   UNL     1       2.033   2.486  17.755  0.00  0.00    +0.000 Br
ATOM     16  C   UNL     1       1.816   4.109  20.079  0.00  0.00    +0.000 A 
ATOM     17  C   UNL     1       1.839   5.314  20.787  0.00  0.00    +0.000 A 
ATOM     18  C   UNL     1       2.124   6.538  20.161  0.00  0.00    +0.000 A 
ENDBRANCH   7  18
ENDBRANCH   1   8
BRANCH   5  19
ATOM     19  S   UNL     1      -0.923  12.566  19.942  0.00  0.00    +0.000 S 
ATOM     20  O   UNL     1      -1.061  13.802  20.691  0.00  0.00    +0.000 OA
ATOM     21  O   UNL     1       0.017  12.488  18.844  0.00  0.00    +0.000 OA
BRANCH  19  22
ATOM     22  C   UNL     1      -2.516  12.157  19.323  0.00  0.00    +0.000 A 
ATOM     23  C   UNL     1      -3.697  12.565  19.988  0.00  0.00    +0.000 A 
ATOM     24  C   UNL     1      -4.998  12.330  19.463  0.00  0.00    +0.000 A 
ATOM     25  C   UNL     1      -5.226  11.677  18.239  0.00  0.00    +0.000 A 
ATOM     26  C   UNL     1      -4.061  11.278  17.560  0.00  0.00    +0.000 A 
ATOM     27  N   UNL     1      -3.951  10.644  16.387  0.00  0.00    +0.000 NA
ATOM     28  O   UNL     1      -2.596  10.506  16.157  0.00  0.00    +0.000 OA
ATOM     29  N   UNL     1      -1.848  11.034  17.189  0.00  0.00    +0.000 NA
ATOM     30  C   UNL     1      -2.719  11.523  18.084  0.00  0.00    +0.000 A 
ENDBRANCH  19  22
ENDBRANCH   5  19
TORSDOF 4
ENDMDL
MODEL 5
REMARK VINA RESULT:      -7.7      2.686      4.081
REMARK  Name = 
REMARK  5 active torsions:
REMARK  status: ('A' for Active; 'I' for Inactive)
REMARK    1  A    between atoms: C_1  and  C_2
REMARK    2  A    between atoms: C_8  and  N_9
REMARK    3  A    between atoms: C_10  and  C_12
REMARK    4  A    between atoms: N_16  and  S_17
REMARK    5  A    between atoms: S_17  and  C_20
REMARK                            x       y       z     vdW  Elec       q    Type
REMARK                         _______ _______ _______ _____ _____    ______ ____
ROOT
ATOM      1  C   UNL     1       1.228   9.494  22.198  0.00  0.00    +0.000 C 
ATOM      2  C   UNL     1       0.275   9.583  23.392  0.00  0.00    +0.000 C 
ATOM      3  C   UNL     1      -1.125  10.010  22.978  0.00  0.00    +0.000 C 
ATOM      4  C   UNL     1      -1.106  11.268  22.114  0.00  0.00    +0.000 C 
ATOM      5  N   UNL     1      -0.168  11.115  20.964  0.00  0.00    +0.000 NA
ATOM      6  C   UNL     1       1.220  10.778  21.376  0.00  0.00    +0.000 C 
ENDROOT
BRANCH   1   8
ATOM      7  N   UNL     1       2.142   7.610  20.843  0.00  0.00    +0.000 N 
ATOM      8  C   UNL     1       1.015   8.205  21.395  0.00  0.00    +0.000 C 
ATOM      9  O   UNL     1      -0.141   7.832  21.218  0.00  0.00    +0.000 OA
ATOM     10  H   UNL     1       3.015   8.128  20.908  0.00  0.00    +0.000 HD
BRANCH   7  18
ATOM     11  C   UNL     1       2.856   7.589  17.943  0.00  0.00    +0.000 C 
ATOM     12  C   UNL     1       2.475   6.366  18.733  0.00  0.00    +0.000 A 
ATOM     13  C   UNL     1       2.457   5.134  18.038  0.00  0.00    +0.000 A 
ATOM     14  C   UNL     1       2.137   3.947  18.692  0.00  0.00    +0.000 A 
ATOM     15 BR   UNL     1       2.072   2.319  17.733  0.00  0.00    +0.000 Br
ATOM     16  C   UNL     1       1.870   3.955  20.049  0.00  0.00    +0.000 A 
ATOM     17  C   UNL     1       1.893   5.165  20.749  0.00  0.00    +0.000 A 
ATOM     18  C   UNL     1       2.165   6.387  20.112  0.00  0.00    +0.000 A 
ENDBRANCH   7  18
ENDBRANCH   1   8
BRANCH   5  19
ATOM     19  S   UNL     1      -0.321  12.266  19.707  0.00  0.00    +0.000 S 
ATOM     20  O   UNL     1      -0.452  11.520  18.469  0.00  0.00    +0.000 OA
ATOM     21  O   UNL     1      -1.349  13.209  20.093  0.00  0.00    +0.000 OA
BRANCH  19  22
ATOM     22  C   UNL     1       1.207  13.130  19.630  0.00  0.00    +0.000 A 
ATOM     23  C   UNL     1       1.974  13.176  18.440  0.00  0.00    +0.000 A 
ATOM     24  C   UNL     1       3.166  13.942  18.320  0.00  0.00    +0.000 A 
ATOM     25  C   UNL     1       3.685  14.723  19.367  0.00  0.00    +0.000 A 
ATOM     26  C   UNL     1       2.927  14.699  20.551  0.00  0.00    +0.000 A 
ATOM     27  N   UNL     1       3.158  15.332  21.707  0.00  0.00    +0.000 NA
ATOM     28  O   UNL     1       2.109  14.994  22.539  0.00  0.00    +0.000 OA
ATOM     29  N   UNL     1       1.224  14.135  21.921  0.00  0.00    +0.000 NA
ATOM     30  C   UNL     1       1.695  13.924  20.683  0.00  0.00    +0.000 A 
ENDBRANCH  19  22
ENDBRANCH   5  19
TORSDOF 4
ENDMDL
MODEL 6
REMARK VINA RESULT:      -7.6      4.647      7.311
REMARK  Name = 
REMARK  5 active torsions:
REMARK  status: ('A' for Active; 'I' for Inactive)
REMARK    1  A    between atoms: C_1  and  C_2
REMARK    2  A    between atoms: C_8  and  N_9
REMARK    3  A    between atoms: C_10  and  C_12
REMARK    4  A    between atoms: N_16  and  S_17
REMARK    5  A    between atoms: S_17  and  C_20
REMARK                            x       y       z     vdW  Elec       q    Type
REMARK                         _______ _______ _______ _____ _____    ______ ____
ROOT
ATOM      1  C   UNL     1      -6.154  12.858  22.243  0.00  0.00    +0.000 C 
ATOM      2  C   UNL     1      -7.163  13.991  22.048  0.00  0.00    +0.000 C 
ATOM      3  C   UNL     1      -6.527  15.224  21.424  0.00  0.00    +0.000 C 
ATOM      4  C   UNL     1      -5.262  15.650  22.164  0.00  0.00    +0.000 C 
ATOM      5  N   UNL     1      -4.316  14.505  22.313  0.00  0.00    +0.000 NA
ATOM      6  C   UNL     1      -4.917  13.331  22.998  0.00  0.00    +0.000 C 
ENDROOT
BRANCH   1   8
ATOM      7  N   UNL     1      -4.941  12.680  20.071  0.00  0.00    +0.000 N 
ATOM      8  C   UNL     1      -5.873  12.114  20.932  0.00  0.00    +0.000 C 
ATOM      9  O   UNL     1      -6.550  11.119  20.689  0.00  0.00    +0.000 OA
ATOM     10  H   UNL     1      -4.594  13.605  20.312  0.00  0.00    +0.000 HD
BRANCH   7  18
ATOM     11  C   UNL     1      -6.677  12.812  17.644  0.00  0.00    +0.000 C 
ATOM     12  C   UNL     1      -5.324  12.154  17.687  0.00  0.00    +0.000 A 
ATOM     13  C   UNL     1      -4.863  11.561  16.488  0.00  0.00    +0.000 A 
ATOM     14  C   UNL     1      -3.614  10.947  16.426  0.00  0.00    +0.000 A 
ATOM     15 BR   UNL     1      -3.038  10.119  14.828  0.00  0.00    +0.000 Br
ATOM     16  C   UNL     1      -2.789  10.945  17.536  0.00  0.00    +0.000 A 
ATOM     17  C   UNL     1      -3.230  11.535  18.724  0.00  0.00    +0.000 A 
ATOM     18  C   UNL     1      -4.502  12.121  18.836  0.00  0.00    +0.000 A 
ENDBRANCH   7  18
ENDBRANCH   1   8
BRANCH   5  19
ATOM     19  S   UNL     1      -2.715  14.904  22.767  0.00  0.00    +0.000 S 
ATOM     20  O   UNL     1      -2.511  16.295  22.404  0.00  0.00    +0.000 OA
ATOM     21  O   UNL     1      -2.526  14.481  24.139  0.00  0.00    +0.000 OA
BRANCH  19  22
ATOM     22  C   UNL     1      -1.651  13.943  21.751  0.00  0.00    +0.000 A 
ATOM     23  C   UNL     1      -1.236  14.395  20.475  0.00  0.00    +0.000 A 
ATOM     24  C   UNL     1      -0.304  13.685  19.671  0.00  0.00    +0.000 A 
ATOM     25  C   UNL     1       0.290  12.475  20.071  0.00  0.00    +0.000 A 
ATOM     26  C   UNL     1      -0.102  12.020  21.343  0.00  0.00    +0.000 A 
ATOM     27  N   UNL     1       0.285  10.917  21.993  0.00  0.00    +0.000 NA
ATOM     28  O   UNL     1      -0.372  10.944  23.207  0.00  0.00    +0.000 OA
ATOM     29  N   UNL     1      -1.188  12.051  23.321  0.00  0.00    +0.000 NA
ATOM     30  C   UNL     1      -1.051  12.747  22.183  0.00  0.00    +0.000 A 
ENDBRANCH  19  22
ENDBRANCH   5  19
TORSDOF 4
ENDMDL
MODEL 7
REMARK VINA RESULT:      -7.5      3.219      4.850
REMARK  Name = 
REMARK  5 active torsions:
REMARK  status: ('A' for Active; 'I' for Inactive)
REMARK    1  A    between atoms: C_1  and  C_2
REMARK    2  A    between atoms: C_8  and  N_9
REMARK    3  A    between atoms: C_10  and  C_12
REMARK    4  A    between atoms: N_16  and  S_17
REMARK    5  A    between atoms: S_17  and  C_20
REMARK                            x       y       z     vdW  Elec       q    Type
REMARK                         _______ _______ _______ _____ _____    ______ ____
ROOT
ATOM      1  C   UNL     1      -1.464  12.323  18.737  0.00  0.00    +0.000 C 
ATOM      2  C   UNL     1      -0.457  13.373  18.264  0.00  0.00    +0.000 C 
ATOM      3  C   UNL     1       0.590  13.681  19.324  0.00  0.00    +0.000 C 
ATOM      4  C   UNL     1      -0.042  14.002  20.676  0.00  0.00    +0.000 C 
ATOM      5  N   UNL     1      -1.003  12.936  21.084  0.00  0.00    +0.000 NA
ATOM      6  C   UNL     1      -2.075  12.695  20.083  0.00  0.00    +0.000 C 
ENDROOT
BRANCH   1   8
ATOM      7  N   UNL     1       0.409  10.720  19.120  0.00  0.00    +0.000 N 
ATOM      8  C   UNL     1      -0.887  10.904  18.654  0.00  0.00    +0.000 C 
ATOM      9  O   UNL     1      -1.570  10.046  18.103  0.00  0.00    +0.000 OA
ATOM     10  H   UNL     1       0.929  11.555  19.377  0.00  0.00    +0.000 HD
BRANCH   7  18
ATOM     11  C   UNL     1       0.375   9.082  21.617  0.00  0.00    +0.000 C 
ATOM     12  C   UNL     1       1.117   8.705  20.363  0.00  0.00    +0.000 A 
ATOM     13  C   UNL     1       1.843   7.491  20.390  0.00  0.00    +0.000 A 
ATOM     14  C   UNL     1       2.543   7.050  19.269  0.00  0.00    +0.000 A 
ATOM     15 BR   UNL     1       3.547   5.450  19.343  0.00  0.00    +0.000 Br
ATOM     16  C   UNL     1       2.502   7.782  18.097  0.00  0.00    +0.000 A 
ATOM     17  C   UNL     1       1.781   8.979  18.055  0.00  0.00    +0.000 A 
ATOM     18  C   UNL     1       1.103   9.478  19.180  0.00  0.00    +0.000 A 
ENDBRANCH   7  18
ENDBRANCH   1   8
BRANCH   5  19
ATOM     19  S   UNL     1      -1.495  12.952  22.723  0.00  0.00    +0.000 S 
ATOM     20  O   UNL     1      -1.959  11.612  23.034  0.00  0.00    +0.000 OA
ATOM     21  O   UNL     1      -0.427  13.544  23.500  0.00  0.00    +0.000 OA
BRANCH  19  22
ATOM     22  C   UNL     1      -2.890  14.016  22.818  0.00  0.00    +0.000 A 
ATOM     23  C   UNL     1      -2.751  15.425  22.807  0.00  0.00    +0.000 A 
ATOM     24  C   UNL     1      -3.863  16.310  22.788  0.00  0.00    +0.000 A 
ATOM     25  C   UNL     1      -5.197  15.866  22.775  0.00  0.00    +0.000 A 
ATOM     26  C   UNL     1      -5.352  14.468  22.773  0.00  0.00    +0.000 A 
ATOM     27  N   UNL     1      -6.481  13.751  22.761  0.00  0.00    +0.000 NA
ATOM     28  O   UNL     1      -6.087  12.427  22.742  0.00  0.00    +0.000 OA
ATOM     29  N   UNL     1      -4.713  12.303  22.760  0.00  0.00    +0.000 NA
ATOM     30  C   UNL     1      -4.216  13.549  22.781  0.00  0.00    +0.000 A 
ENDBRANCH  19  22
ENDBRANCH   5  19
TORSDOF 4
ENDMDL
MODEL 8
REMARK VINA RESULT:      -7.5      4.890      7.100
REMARK  Name = 
REMARK  5 active torsions:
REMARK  status: ('A' for Active; 'I' for Inactive)
REMARK    1  A    between atoms: C_1  and  C_2
REMARK    2  A    between atoms: C_8  and  N_9
REMARK    3  A    between atoms: C_10  and  C_12
REMARK    4  A    between atoms: N_16  and  S_17
REMARK    5  A    between atoms: S_17  and  C_20
REMARK                            x       y       z     vdW  Elec       q    Type
REMARK                         _______ _______ _______ _____ _____    ______ ____
ROOT
ATOM      1  C   UNL     1       1.177  13.576  21.138  0.00  0.00    +0.000 C 
ATOM      2  C   UNL     1       1.556  14.546  20.017  0.00  0.00    +0.000 C 
ATOM      3  C   UNL     1       0.659  14.391  18.798  0.00  0.00    +0.000 C 
ATOM      4  C   UNL     1       0.558  12.937  18.344  0.00  0.00    +0.000 C 
ATOM      5  N   UNL     1       0.176  12.047  19.478  0.00  0.00    +0.000 NA
ATOM      6  C   UNL     1       1.103  12.139  20.637  0.00  0.00    +0.000 C 
ENDROOT
BRANCH   1   8
ATOM      7  N   UNL     1      -1.299  13.722  21.404  0.00  0.00    +0.000 N 
ATOM      8  C   UNL     1      -0.053  14.060  21.917  0.00  0.00    +0.000 C 
ATOM      9  O   UNL     1       0.140  14.785  22.888  0.00  0.00    +0.000 OA
ATOM     10  H   UNL     1      -1.315  13.278  20.489  0.00  0.00    +0.000 HD
BRANCH   7  18
ATOM     11  C   UNL     1      -2.547  11.835  23.354  0.00  0.00    +0.000 C 
ATOM     12  C   UNL     1      -3.170  13.131  22.906  0.00  0.00    +0.000 A 
ATOM     13  C   UNL     1      -4.432  13.458  23.455  0.00  0.00    +0.000 A 
ATOM     14  C   UNL     1      -5.075  14.646  23.116  0.00  0.00    +0.000 A 
ATOM     15 BR   UNL     1      -6.783  15.040  23.823  0.00  0.00    +0.000 Br
ATOM     16  C   UNL     1      -4.462  15.544  22.261  0.00  0.00    +0.000 A 
ATOM     17  C   UNL     1      -3.211  15.236  21.719  0.00  0.00    +0.000 A 
ATOM     18  C   UNL     1      -2.555  14.026  22.002  0.00  0.00    +0.000 A 
ENDBRANCH   7  18
ENDBRANCH   1   8
BRANCH   5  19
ATOM     19  S   UNL     1      -0.349  10.473  19.058  0.00  0.00    +0.000 S 
ATOM     20  O   UNL     1       0.703   9.883  18.249  0.00  0.00    +0.000 OA
ATOM     21  O   UNL     1      -0.783   9.812  20.270  0.00  0.00    +0.000 OA
BRANCH  19  22
ATOM     22  C   UNL     1      -1.750  10.673  18.016  0.00  0.00    +0.000 A 
ATOM     23  C   UNL     1      -1.838  10.028  16.759  0.00  0.00    +0.000 A 
ATOM     24  C   UNL     1      -2.996  10.095  15.937  0.00  0.00    +0.000 A 
ATOM     25  C   UNL     1      -4.155  10.804  16.300  0.00  0.00    +0.000 A 
ATOM     26  C   UNL     1      -4.087  11.439  17.553  0.00  0.00    +0.000 A 
ATOM     27  N   UNL     1      -5.017  12.179  18.168  0.00  0.00    +0.000 NA
ATOM     28  O   UNL     1      -4.465  12.550  19.378  0.00  0.00    +0.000 OA
ATOM     29  N   UNL     1      -3.182  12.064  19.524  0.00  0.00    +0.000 NA
ATOM     30  C   UNL     1      -2.907  11.368  18.411  0.00  0.00    +0.000 A 
ENDBRANCH  19  22
ENDBRANCH   5  19
TORSDOF 4
ENDMDL
MODEL 9
REMARK VINA RESULT:      -7.5      5.080      7.279
REMARK  Name = 
REMARK  5 active torsions:
REMARK  status: ('A' for Active; 'I' for Inactive)
REMARK    1  A    between atoms: C_1  and  C_2
REMARK    2  A    between atoms: C_8  and  N_9
REMARK    3  A    between atoms: C_10  and  C_12
REMARK    4  A    between atoms: N_16  and  S_17
REMARK    5  A    between atoms: S_17  and  C_20
REMARK                            x       y       z     vdW  Elec       q    Type
REMARK                         _______ _______ _______ _____ _____    ______ ____
ROOT
ATOM      1  C   UNL     1      -2.539   9.777  17.939  0.00  0.00    +0.000 C 
ATOM      2  C   UNL     1      -2.192  10.035  16.471  0.00  0.00    +0.000 C 
ATOM      3  C   UNL     1      -2.880  11.280  15.930  0.00  0.00    +0.000 C 
ATOM      4  C   UNL     1      -4.379  11.273  16.214  0.00  0.00    +0.000 C 
ATOM      5  N   UNL     1      -4.650  11.028  17.661  0.00  0.00    +0.000 NA
ATOM      6  C   UNL     1      -4.046   9.767  18.167  0.00  0.00    +0.000 C 
ENDROOT
BRANCH   1   8
ATOM      7  N   UNL     1      -2.320  11.909  19.216  0.00  0.00    +0.000 N 
ATOM      8  C   UNL     1      -1.743  10.690  18.880  0.00  0.00    +0.000 C 
ATOM      9  O   UNL     1      -0.617  10.326  19.204  0.00  0.00    +0.000 OA
ATOM     10  H   UNL     1      -3.173  12.165  18.727  0.00  0.00    +0.000 HD
BRANCH   7  18
ATOM     11  C   UNL     1      -0.283  13.877  18.269  0.00  0.00    +0.000 C 
ATOM     12  C   UNL     1      -0.787  13.790  19.685  0.00  0.00    +0.000 A 
ATOM     13  C   UNL     1      -0.246  14.708  20.615  0.00  0.00    +0.000 A 
ATOM     14  C   UNL     1      -0.668  14.716  21.943  0.00  0.00    +0.000 A 
ATOM     15 BR   UNL     1       0.104  15.920  23.179  0.00  0.00    +0.000 Br
ATOM     16  C   UNL     1      -1.657  13.844  22.359  0.00  0.00    +0.000 A 
ATOM     17  C   UNL     1      -2.206  12.938  21.447  0.00  0.00    +0.000 A 
ATOM     18  C   UNL     1      -1.771  12.869  20.113  0.00  0.00    +0.000 A 
ENDBRANCH   7  18
ENDBRANCH   1   8
BRANCH   5  19
ATOM     19  S   UNL     1      -6.238  11.370  18.199  0.00  0.00    +0.000 S 
ATOM     20  O   UNL     1      -6.830  12.260  17.217  0.00  0.00    +0.000 OA
ATOM     21  O   UNL     1      -6.880  10.112  18.513  0.00  0.00    +0.000 OA
BRANCH  19  22
ATOM     22  C   UNL     1      -6.075  12.284  19.691  0.00  0.00    +0.000 A 
ATOM     23  C   UNL     1      -5.453  13.556  19.718  0.00  0.00    +0.000 A 
ATOM     24  C   UNL     1      -5.389  14.359  20.890  0.00  0.00    +0.000 A 
ATOM     25  C   UNL     1      -5.939  13.964  22.122  0.00  0.00    +0.000 A 
ATOM     26  C   UNL     1      -6.573  12.708  22.108  0.00  0.00    +0.000 A 
ATOM     27  N   UNL     1      -7.184  12.067  23.110  0.00  0.00    +0.000 NA
ATOM     28  O   UNL     1      -7.655  10.886  22.572  0.00  0.00    +0.000 OA
ATOM     29  N   UNL     1      -7.329  10.768  21.236  0.00  0.00    +0.000 NA
ATOM     30  C   UNL     1      -6.654  11.879  20.907  0.00  0.00    +0.000 A 
ENDBRANCH  19  22
ENDBRANCH   5  19
TORSDOF 4
ENDMDL
