MODEL 1
REMARK VINA RESULT:      -7.9      0.000      0.000
REMARK  Name = 
REMARK  6 active torsions:
REMARK  status: ('A' for Active; 'I' for Inactive)
REMARK    1  A    between atoms: C_2  and  C_3
REMARK    2  A    between atoms: C_3  and  C_4
REMARK    3  A    between atoms: C_7  and  C_8
REMARK    4  A    between atoms: C_9  and  C_10
REMARK    5  A    between atoms: C_10  and  C_12
REMARK    6  A    between atoms: C_13  and  C_14
REMARK                            x       y       z     vdW  Elec       q    Type
REMARK                         _______ _______ _______ _____ _____    ______ ____
ROOT
ATOM      1  C   UNL     1       5.226   6.256  17.133  0.00  0.00    +0.000 C 
ATOM      2  C   UNL     1       6.428   6.314  17.756  0.00  0.00    +0.000 C 
ENDROOT
BRANCH   1   6
ATOM      3  C   UNL     1       1.885   3.835  18.638  0.00  0.00    +0.000 C 
ATOM      4  C   UNL     1       3.008   3.303  18.130  0.00  0.00    +0.000 C 
ATOM      5  C   UNL     1       4.102   4.127  17.663  0.00  0.00    +0.000 C 
ATOM      6  C   UNL     1       4.084   5.480  17.625  0.00  0.00    +0.000 C 
ATOM      7  C   UNL     1       2.848   6.145  18.157  0.00  0.00    +0.000 C 
ATOM      8  O   UNL     1       2.756   7.384  18.199  0.00  0.00    +0.000 OA
ATOM      9  C   UNL     1       1.694   5.316  18.674  0.00  0.00    +0.000 C 
BRANCH   3  10
ATOM     10  C   UNL     1       0.775   3.018  19.254  0.00  0.00    +0.000 C 
BRANCH  10  12
ATOM     11  C   UNL     1       1.434   2.447  21.939  0.00  0.00    +0.000 C 
ATOM     12  C   UNL     1       1.130   2.711  20.699  0.00  0.00    +0.000 C 
ENDBRANCH  10  12
ENDBRANCH   3  10
ENDBRANCH   1   6
BRANCH   2  13
ATOM     13  C   UNL     1       7.560   7.122  17.245  0.00  0.00    +0.000 C 
ATOM     14  O   UNL     1       8.026   6.915  16.128  0.00  0.00    +0.000 OA
BRANCH  13  15
ATOM     15  C   UNL     1       8.111   8.194  18.113  0.00  0.00    +0.000 C 
ATOM     16  C   UNL     1       8.321   9.438  17.643  0.00  0.00    +0.000 C 
BRANCH  16  17
ATOM     17  C   UNL     1       8.897  10.530  18.452  0.00  0.00    +0.000 A 
ATOM     18  C   UNL     1       8.921  11.828  17.928  0.00  0.00    +0.000 A 
ATOM     19  C   UNL     1       9.452  12.895  18.663  0.00  0.00    +0.000 A 
ATOM     20  C   UNL     1       9.960  12.674  19.938  0.00  0.00    +0.000 A 
ATOM     21 CL   UNL     1      10.634  13.985  20.823  0.00  0.00    +0.000 Cl
ATOM     22  C   UNL     1       9.924  11.398  20.491  0.00  0.00    +0.000 A 
ATOM     23  C   UNL     1       9.400  10.333  19.747  0.00  0.00    +0.000 A 
ENDBRANCH  16  17
ENDBRANCH  13  15
ENDBRANCH   2  13
TORSDOF 6
ENDMDL
MODEL 2
REMARK VINA RESULT:      -7.8      5.285      7.732
REMARK  Name = 
REMARK  6 active torsions:
REMARK  status: ('A' for Active; 'I' for Inactive)
REMARK    1  A    between atoms: C_2  and  C_3
REMARK    2  A    between atoms: C_3  and  C_4
REMARK    3  A    between atoms: C_7  and  C_8
REMARK    4  A    between atoms: C_9  and  C_10
REMARK    5  A    between atoms: C_10  and  C_12
REMARK    6  A    between atoms: C_13  and  C_14
REMARK                            x       y       z     vdW  Elec       q    Type
REMARK                         _______ _______ _______ _____ _____    ______ ____
ROOT
ATOM      1  C   UNL     1       4.174   4.534  19.248  0.00  0.00    +0.000 C 
ATOM      2  C   UNL     1       2.918   5.027  19.368  0.00  0.00    +0.000 C 
ENDROOT
BRANCH   1   6
ATOM      3  C   UNL     1       6.346   4.551  15.430  0.00  0.00    +0.000 C 
ATOM      4  C   UNL     1       5.011   4.443  15.515  0.00  0.00    +0.000 C 
ATOM      5  C   UNL     1       4.321   4.463  16.787  0.00  0.00    +0.000 C 
ATOM      6  C   UNL     1       4.933   4.523  17.993  0.00  0.00    +0.000 C 
ATOM      7  C   UNL     1       6.431   4.625  17.976  0.00  0.00    +0.000 C 
ATOM      8  O   UNL     1       7.077   4.724  19.034  0.00  0.00    +0.000 OA
ATOM      9  C   UNL     1       7.183   4.629  16.666  0.00  0.00    +0.000 C 
BRANCH   3  10
ATOM     10  C   UNL     1       7.097   4.664  14.126  0.00  0.00    +0.000 C 
BRANCH  10  12
ATOM     11  C   UNL     1       5.754   3.148  12.159  0.00  0.00    +0.000 C 
ATOM     12  C   UNL     1       6.374   3.849  13.067  0.00  0.00    +0.000 C 
ENDBRANCH  10  12
ENDBRANCH   3  10
ENDBRANCH   1   6
BRANCH   2  13
ATOM     13  C   UNL     1       2.181   5.042  20.653  0.00  0.00    +0.000 C 
ATOM     14  O   UNL     1       2.261   4.098  21.435  0.00  0.00    +0.000 OA
BRANCH  13  15
ATOM     15  C   UNL     1       1.349   6.229  20.978  0.00  0.00    +0.000 C 
ATOM     16  C   UNL     1       1.728   7.470  20.618  0.00  0.00    +0.000 C 
BRANCH  16  17
ATOM     17  C   UNL     1       0.958   8.686  20.944  0.00  0.00    +0.000 A 
ATOM     18  C   UNL     1       0.529   8.890  22.261  0.00  0.00    +0.000 A 
ATOM     19  C   UNL     1      -0.198  10.032  22.616  0.00  0.00    +0.000 A 
ATOM     20  C   UNL     1      -0.500  10.990  21.654  0.00  0.00    +0.000 A 
ATOM     21 CL   UNL     1      -1.416  12.376  22.093  0.00  0.00    +0.000 Cl
ATOM     22  C   UNL     1      -0.063  10.822  20.344  0.00  0.00    +0.000 A 
ATOM     23  C   UNL     1       0.657   9.673  19.992  0.00  0.00    +0.000 A 
ENDBRANCH  16  17
ENDBRANCH  13  15
ENDBRANCH   2  13
TORSDOF 6
ENDMDL
MODEL 3
REMARK VINA RESULT:      -7.7      3.853      5.249
REMARK  Name = 
REMARK  6 active torsions:
REMARK  status: ('A' for Active; 'I' for Inactive)
REMARK    1  A    between atoms: C_2  and  C_3
REMARK    2  A    between atoms: C_3  and  C_4
REMARK    3  A    between atoms: C_7  and  C_8
REMARK    4  A    between atoms: C_9  and  C_10
REMARK    5  A    between atoms: C_10  and  C_12
REMARK    6  A    between atoms: C_13  and  C_14
REMARK                            x       y       z     vdW  Elec       q    Type
REMARK                         _______ _______ _______ _____ _____    ______ ____
ROOT
ATOM      1  C   UNL     1       6.880   6.086  16.062  0.00  0.00    +0.000 C 
ATOM      2  C   UNL     1       7.447   5.671  17.220  0.00  0.00    +0.000 C 
ENDROOT
BRANCH   1   6
ATOM      3  C   UNL     1       5.838   3.441  12.714  0.00  0.00    +0.000 C 
ATOM      4  C   UNL     1       5.100   3.539  13.831  0.00  0.00    +0.000 C 
ATOM      5  C   UNL     1       5.456   4.437  14.908  0.00  0.00    +0.000 C 
ATOM      6  C   UNL     1       6.574   5.200  14.935  0.00  0.00    +0.000 C 
ATOM      7  C   UNL     1       7.461   5.125  13.725  0.00  0.00    +0.000 C 
ATOM      8  O   UNL     1       8.489   5.820  13.643  0.00  0.00    +0.000 OA
ATOM      9  C   UNL     1       7.108   4.215  12.572  0.00  0.00    +0.000 C 
BRANCH   3  10
ATOM     10  C   UNL     1       5.438   2.617  11.514  0.00  0.00    +0.000 C 
BRANCH  10  12
ATOM     11  C   UNL     1       3.150   3.772  10.329  0.00  0.00    +0.000 C 
ATOM     12  C   UNL     1       4.207   3.239  10.876  0.00  0.00    +0.000 C 
ENDBRANCH  10  12
ENDBRANCH   3  10
ENDBRANCH   1   6
BRANCH   2  13
ATOM     13  C   UNL     1       7.729   6.586  18.350  0.00  0.00    +0.000 C 
ATOM     14  O   UNL     1       7.743   6.172  19.506  0.00  0.00    +0.000 OA
BRANCH  13  15
ATOM     15  C   UNL     1       8.002   8.016  18.051  0.00  0.00    +0.000 C 
ATOM     16  C   UNL     1       8.799   8.758  18.842  0.00  0.00    +0.000 C 
BRANCH  16  17
ATOM     17  C   UNL     1       9.077  10.189  18.610  0.00  0.00    +0.000 A 
ATOM     18  C   UNL     1       8.208  10.930  17.799  0.00  0.00    +0.000 A 
ATOM     19  C   UNL     1       8.430  12.290  17.557  0.00  0.00    +0.000 A 
ATOM     20  C   UNL     1       9.523  12.929  18.132  0.00  0.00    +0.000 A 
ATOM     21 CL   UNL     1       9.802  14.594  17.808  0.00  0.00    +0.000 Cl
ATOM     22  C   UNL     1      10.385  12.220  18.962  0.00  0.00    +0.000 A 
ATOM     23  C   UNL     1      10.165  10.857  19.193  0.00  0.00    +0.000 A 
ENDBRANCH  16  17
ENDBRANCH  13  15
ENDBRANCH   2  13
TORSDOF 6
ENDMDL
MODEL 4
REMARK VINA RESULT:      -7.7      3.603      9.654
REMARK  Name = 
REMARK  6 active torsions:
REMARK  status: ('A' for Active; 'I' for Inactive)
REMARK    1  A    between atoms: C_2  and  C_3
REMARK    2  A    between atoms: C_3  and  C_4
REMARK    3  A    between atoms: C_7  and  C_8
REMARK    4  A    between atoms: C_9  and  C_10
REMARK    5  A    between atoms: C_10  and  C_12
REMARK    6  A    between atoms: C_13  and  C_14
REMARK                            x       y       z     vdW  Elec       q    Type
REMARK                         _______ _______ _______ _____ _____    ______ ____
ROOT
ATOM      1  C   UNL     1       8.174   9.241  17.565  0.00  0.00    +0.000 C 
ATOM      2  C   UNL     1       7.866   8.031  18.091  0.00  0.00    +0.000 C 
ENDROOT
BRANCH   1   6
ATOM      3  C   UNL     1       9.909  12.512  19.928  0.00  0.00    +0.000 C 
ATOM      4  C   UNL     1      10.088  11.215  20.226  0.00  0.00    +0.000 C 
ATOM      5  C   UNL     1       9.522  10.159  19.414  0.00  0.00    +0.000 C 
ATOM      6  C   UNL     1       8.720  10.358  18.342  0.00  0.00    +0.000 C 
ATOM      7  C   UNL     1       8.458  11.787  17.963  0.00  0.00    +0.000 C 
ATOM      8  O   UNL     1       7.765  12.067  16.969  0.00  0.00    +0.000 OA
ATOM      9  C   UNL     1       9.051  12.916  18.774  0.00  0.00    +0.000 C 
BRANCH   3  10
ATOM     10  C   UNL     1      10.583  13.642  20.667  0.00  0.00    +0.000 C 
BRANCH  10  12
ATOM     11  C   UNL     1       8.915  14.481  22.784  0.00  0.00    +0.000 C 
ATOM     12  C   UNL     1       9.685  14.094  21.806  0.00  0.00    +0.000 C 
ENDBRANCH  10  12
ENDBRANCH   3  10
ENDBRANCH   1   6
BRANCH   2  13
ATOM     13  C   UNL     1       7.332   6.914  17.278  0.00  0.00    +0.000 C 
ATOM     14  O   UNL     1       7.849   6.615  16.205  0.00  0.00    +0.000 OA
BRANCH  13  15
ATOM     15  C   UNL     1       6.163   6.159  17.796  0.00  0.00    +0.000 C 
ATOM     16  C   UNL     1       5.287   5.565  16.964  0.00  0.00    +0.000 C 
BRANCH  16  17
ATOM     17  C   UNL     1       4.091   4.831  17.425  0.00  0.00    +0.000 A 
ATOM     18  C   UNL     1       4.045   3.440  17.279  0.00  0.00    +0.000 A 
ATOM     19  C   UNL     1       2.934   2.704  17.707  0.00  0.00    +0.000 A 
ATOM     20  C   UNL     1       1.856   3.355  18.296  0.00  0.00    +0.000 A 
ATOM     21 CL   UNL     1       0.484   2.447  18.795  0.00  0.00    +0.000 Cl
ATOM     22  C   UNL     1       1.889   4.734  18.476  0.00  0.00    +0.000 A 
ATOM     23  C   UNL     1       2.999   5.466  18.036  0.00  0.00    +0.000 A 
ENDBRANCH  16  17
ENDBRANCH  13  15
ENDBRANCH   2  13
TORSDOF 6
ENDMDL
MODEL 5
REMARK VINA RESULT:      -7.7      0.987      1.339
REMARK  Name = 
REMARK  6 active torsions:
REMARK  status: ('A' for Active; 'I' for Inactive)
REMARK    1  A    between atoms: C_2  and  C_3
REMARK    2  A    between atoms: C_3  and  C_4
REMARK    3  A    between atoms: C_7  and  C_8
REMARK    4  A    between atoms: C_9  and  C_10
REMARK    5  A    between atoms: C_10  and  C_12
REMARK    6  A    between atoms: C_13  and  C_14
REMARK                            x       y       z     vdW  Elec       q    Type
REMARK                         _______ _______ _______ _____ _____    ______ ____
ROOT
ATOM      1  C   UNL     1       5.286   6.499  17.521  0.00  0.00    +0.000 C 
ATOM      2  C   UNL     1       6.585   6.345  17.872  0.00  0.00    +0.000 C 
ENDROOT
BRANCH   1   6
ATOM      3  C   UNL     1       1.953   4.140  19.139  0.00  0.00    +0.000 C 
ATOM      4  C   UNL     1       2.375   5.289  19.689  0.00  0.00    +0.000 C 
ATOM      5  C   UNL     1       3.461   6.057  19.119  0.00  0.00    +0.000 C 
ATOM      6  C   UNL     1       4.192   5.676  18.045  0.00  0.00    +0.000 C 
ATOM      7  C   UNL     1       3.790   4.386  17.390  0.00  0.00    +0.000 C 
ATOM      8  O   UNL     1       4.377   3.976  16.373  0.00  0.00    +0.000 OA
ATOM      9  C   UNL     1       2.645   3.569  17.944  0.00  0.00    +0.000 C 
BRANCH   3  10
ATOM     10  C   UNL     1       0.745   3.374  19.620  0.00  0.00    +0.000 C 
BRANCH  10  12
ATOM     11  C   UNL     1       1.282   2.331  22.188  0.00  0.00    +0.000 C 
ATOM     12  C   UNL     1       1.033   2.812  21.002  0.00  0.00    +0.000 C 
ENDBRANCH  10  12
ENDBRANCH   3  10
ENDBRANCH   1   6
BRANCH   2  13
ATOM     13  C   UNL     1       7.669   7.204  17.340  0.00  0.00    +0.000 C 
ATOM     14  O   UNL     1       8.109   7.030  16.207  0.00  0.00    +0.000 OA
BRANCH  13  15
ATOM     15  C   UNL     1       8.203   8.286  18.206  0.00  0.00    +0.000 C 
ATOM     16  C   UNL     1       8.399   9.531  17.733  0.00  0.00    +0.000 C 
BRANCH  16  17
ATOM     17  C   UNL     1       8.958  10.633  18.540  0.00  0.00    +0.000 A 
ATOM     18  C   UNL     1       9.000  11.923  17.998  0.00  0.00    +0.000 A 
ATOM     19  C   UNL     1       9.515  12.998  18.730  0.00  0.00    +0.000 A 
ATOM     20  C   UNL     1       9.990  12.795  20.022  0.00  0.00    +0.000 A 
ATOM     21 CL   UNL     1      10.646  14.117  20.904  0.00  0.00    +0.000 Cl
ATOM     22  C   UNL     1       9.935  11.527  20.591  0.00  0.00    +0.000 A 
ATOM     23  C   UNL     1       9.427  10.453  19.851  0.00  0.00    +0.000 A 
ENDBRANCH  16  17
ENDBRANCH  13  15
ENDBRANCH   2  13
TORSDOF 6
ENDMDL
MODEL 6
REMARK VINA RESULT:      -7.6      5.148      7.584
REMARK  Name = 
REMARK  6 active torsions:
REMARK  status: ('A' for Active; 'I' for Inactive)
REMARK    1  A    between atoms: C_2  and  C_3
REMARK    2  A    between atoms: C_3  and  C_4
REMARK    3  A    between atoms: C_7  and  C_8
REMARK    4  A    between atoms: C_9  and  C_10
REMARK    5  A    between atoms: C_10  and  C_12
REMARK    6  A    between atoms: C_13  and  C_14
REMARK                            x       y       z     vdW  Elec       q    Type
REMARK                         _______ _______ _______ _____ _____    ______ ____
ROOT
ATOM      1  C   UNL     1       2.900   4.886  18.458  0.00  0.00    +0.000 C 
ATOM      2  C   UNL     1       3.164   5.045  19.777  0.00  0.00    +0.000 C 
ENDROOT
BRANCH   1   6
ATOM      3  C   UNL     1       5.930   4.786  15.279  0.00  0.00    +0.000 C 
ATOM      4  C   UNL     1       5.424   3.680  15.847  0.00  0.00    +0.000 C 
ATOM      5  C   UNL     1       4.409   3.744  16.877  0.00  0.00    +0.000 C 
ATOM      6  C   UNL     1       3.926   4.891  17.410  0.00  0.00    +0.000 C 
ATOM      7  C   UNL     1       4.463   6.170  16.837  0.00  0.00    +0.000 C 
ATOM      8  O   UNL     1       4.049   7.273  17.236  0.00  0.00    +0.000 OA
ATOM      9  C   UNL     1       5.507   6.141  15.745  0.00  0.00    +0.000 C 
BRANCH   3  10
ATOM     10  C   UNL     1       6.892   4.766  14.115  0.00  0.00    +0.000 C 
BRANCH  10  12
ATOM     11  C   UNL     1       5.850   3.098  12.090  0.00  0.00    +0.000 C 
ATOM     12  C   UNL     1       6.331   3.868  13.025  0.00  0.00    +0.000 C 
ENDBRANCH  10  12
ENDBRANCH   3  10
ENDBRANCH   1   6
BRANCH   2  13
ATOM     13  C   UNL     1       2.108   5.018  20.816  0.00  0.00    +0.000 C 
ATOM     14  O   UNL     1       1.957   4.031  21.531  0.00  0.00    +0.000 OA
BRANCH  13  15
ATOM     15  C   UNL     1       1.244   6.215  20.977  0.00  0.00    +0.000 C 
ATOM     16  C   UNL     1       1.737   7.460  20.834  0.00  0.00    +0.000 C 
BRANCH  16  17
ATOM     17  C   UNL     1       0.930   8.683  21.016  0.00  0.00    +0.000 A 
ATOM     18  C   UNL     1       0.646   9.485  19.905  0.00  0.00    +0.000 A 
ATOM     19  C   UNL     1      -0.120  10.650  20.031  0.00  0.00    +0.000 A 
ATOM     20  C   UNL     1      -0.617  11.022  21.275  0.00  0.00    +0.000 A 
ATOM     21 CL   UNL     1      -1.535  12.469  21.425  0.00  0.00    +0.000 Cl
ATOM     22  C   UNL     1      -0.370  10.228  22.389  0.00  0.00    +0.000 A 
ATOM     23  C   UNL     1       0.405   9.069  22.259  0.00  0.00    +0.000 A 
ENDBRANCH  16  17
ENDBRANCH  13  15
ENDBRANCH   2  13
TORSDOF 6
ENDMDL
MODEL 7
REMARK VINA RESULT:      -7.6      0.467      1.092
REMARK  Name = 
REMARK  6 active torsions:
REMARK  status: ('A' for Active; 'I' for Inactive)
REMARK    1  A    between atoms: C_2  and  C_3
REMARK    2  A    between atoms: C_3  and  C_4
REMARK    3  A    between atoms: C_7  and  C_8
REMARK    4  A    between atoms: C_9  and  C_10
REMARK    5  A    between atoms: C_10  and  C_12
REMARK    6  A    between atoms: C_13  and  C_14
REMARK                            x       y       z     vdW  Elec       q    Type
REMARK                         _______ _______ _______ _____ _____    ______ ____
ROOT
ATOM      1  C   UNL     1       5.388   5.777  17.005  0.00  0.00    +0.000 C 
ATOM      2  C   UNL     1       6.210   6.587  17.716  0.00  0.00    +0.000 C 
ENDROOT
BRANCH   1   6
ATOM      3  C   UNL     1       1.950   3.646  18.715  0.00  0.00    +0.000 C 
ATOM      4  C   UNL     1       2.966   3.024  18.096  0.00  0.00    +0.000 C 
ATOM      5  C   UNL     1       4.097   3.752  17.563  0.00  0.00    +0.000 C 
ATOM      6  C   UNL     1       4.216   5.100  17.569  0.00  0.00    +0.000 C 
ATOM      7  C   UNL     1       3.103   5.864  18.227  0.00  0.00    +0.000 C 
ATOM      8  O   UNL     1       3.145   7.104  18.316  0.00  0.00    +0.000 OA
ATOM      9  C   UNL     1       1.917   5.136  18.815  0.00  0.00    +0.000 C 
BRANCH   3  10
ATOM     10  C   UNL     1       0.815   2.921  19.398  0.00  0.00    +0.000 C 
BRANCH  10  12
ATOM     11  C   UNL     1       1.494   2.497  22.106  0.00  0.00    +0.000 C 
ATOM     12  C   UNL     1       1.181   2.693  20.856  0.00  0.00    +0.000 C 
ENDBRANCH  10  12
ENDBRANCH   3  10
ENDBRANCH   1   6
BRANCH   2  13
ATOM     13  C   UNL     1       7.378   7.272  17.115  0.00  0.00    +0.000 C 
ATOM     14  O   UNL     1       8.075   6.708  16.275  0.00  0.00    +0.000 OA
BRANCH  13  15
ATOM     15  C   UNL     1       7.681   8.661  17.546  0.00  0.00    +0.000 C 
ATOM     16  C   UNL     1       8.670   8.924  18.420  0.00  0.00    +0.000 C 
BRANCH  16  17
ATOM     17  C   UNL     1       8.991  10.281  18.907  0.00  0.00    +0.000 A 
ATOM     18  C   UNL     1       9.554  10.434  20.179  0.00  0.00    +0.000 A 
ATOM     19  C   UNL     1       9.879  11.701  20.678  0.00  0.00    +0.000 A 
ATOM     20  C   UNL     1       9.650  12.832  19.902  0.00  0.00    +0.000 A 
ATOM     21 CL   UNL     1      10.028  14.386  20.533  0.00  0.00    +0.000 Cl
ATOM     22  C   UNL     1       9.115  12.703  18.625  0.00  0.00    +0.000 A 
ATOM     23  C   UNL     1       8.783  11.434  18.135  0.00  0.00    +0.000 A 
ENDBRANCH  16  17
ENDBRANCH  13  15
ENDBRANCH   2  13
TORSDOF 6
ENDMDL
MODEL 8
REMARK VINA RESULT:      -7.5      3.780      5.267
REMARK  Name = 
REMARK  6 active torsions:
REMARK  status: ('A' for Active; 'I' for Inactive)
REMARK    1  A    between atoms: C_2  and  C_3
REMARK    2  A    between atoms: C_3  and  C_4
REMARK    3  A    between atoms: C_7  and  C_8
REMARK    4  A    between atoms: C_9  and  C_10
REMARK    5  A    between atoms: C_10  and  C_12
REMARK    6  A    between atoms: C_13  and  C_14
REMARK                            x       y       z     vdW  Elec       q    Type
REMARK                         _______ _______ _______ _____ _____    ______ ____
ROOT
ATOM      1  C   UNL     1       7.528   5.505  16.444  0.00  0.00    +0.000 C 
ATOM      2  C   UNL     1       7.238   6.768  16.839  0.00  0.00    +0.000 C 
ENDROOT
BRANCH   1   6
ATOM      3  C   UNL     1       5.692   3.591  12.943  0.00  0.00    +0.000 C 
ATOM      4  C   UNL     1       5.210   3.460  14.189  0.00  0.00    +0.000 C 
ATOM      5  C   UNL     1       5.823   4.122  15.320  0.00  0.00    +0.000 C 
ATOM      6  C   UNL     1       6.953   4.865  15.257  0.00  0.00    +0.000 C 
ATOM      7  C   UNL     1       7.562   5.037  13.895  0.00  0.00    +0.000 C 
ATOM      8  O   UNL     1       8.578   5.735  13.733  0.00  0.00    +0.000 OA
ATOM      9  C   UNL     1       6.935   4.379  12.687  0.00  0.00    +0.000 C 
BRANCH   3  10
ATOM     10  C   UNL     1       5.013   3.027  11.718  0.00  0.00    +0.000 C 
BRANCH  10  12
ATOM     11  C   UNL     1       6.353   0.672  10.927  0.00  0.00    +0.000 C 
ATOM     12  C   UNL     1       5.735   1.759  11.293  0.00  0.00    +0.000 C 
ENDBRANCH  10  12
ENDBRANCH   3  10
ENDBRANCH   1   6
BRANCH   2  13
ATOM     13  C   UNL     1       7.848   7.396  18.034  0.00  0.00    +0.000 C 
ATOM     14  O   UNL     1       8.232   6.710  18.977  0.00  0.00    +0.000 OA
BRANCH  13  15
ATOM     15  C   UNL     1       7.991   8.874  18.060  0.00  0.00    +0.000 C 
ATOM     16  C   UNL     1       9.074   9.464  18.601  0.00  0.00    +0.000 C 
BRANCH  16  17
ATOM     17  C   UNL     1       9.251  10.928  18.683  0.00  0.00    +0.000 A 
ATOM     18  C   UNL     1      10.053  11.463  19.698  0.00  0.00    +0.000 A 
ATOM     19  C   UNL     1      10.253  12.843  19.810  0.00  0.00    +0.000 A 
ATOM     20  C   UNL     1       9.656  13.707  18.898  0.00  0.00    +0.000 A 
ATOM     21 CL   UNL     1       9.886  15.403  19.058  0.00  0.00    +0.000 Cl
ATOM     22  C   UNL     1       8.876  13.198  17.865  0.00  0.00    +0.000 A 
ATOM     23  C   UNL     1       8.671  11.816  17.764  0.00  0.00    +0.000 A 
ENDBRANCH  16  17
ENDBRANCH  13  15
ENDBRANCH   2  13
TORSDOF 6
ENDMDL
MODEL 9
REMARK VINA RESULT:      -7.5      1.046      1.716
REMARK  Name = 
REMARK  6 active torsions:
REMARK  status: ('A' for Active; 'I' for Inactive)
REMARK    1  A    between atoms: C_2  and  C_3
REMARK    2  A    between atoms: C_3  and  C_4
REMARK    3  A    between atoms: C_7  and  C_8
REMARK    4  A    between atoms: C_9  and  C_10
REMARK    5  A    between atoms: C_10  and  C_12
REMARK    6  A    between atoms: C_13  and  C_14
REMARK                            x       y       z     vdW  Elec       q    Type
REMARK                         _______ _______ _______ _____ _____    ______ ____
ROOT
ATOM      1  C   UNL     1       5.167   6.621  17.356  0.00  0.00    +0.000 C 
ATOM      2  C   UNL     1       6.444   6.631  17.807  0.00  0.00    +0.000 C 
ENDROOT
BRANCH   1   6
ATOM      3  C   UNL     1       1.927   4.206  19.078  0.00  0.00    +0.000 C 
ATOM      4  C   UNL     1       2.285   5.406  19.561  0.00  0.00    +0.000 C 
ATOM      5  C   UNL     1       3.342   6.190  18.958  0.00  0.00    +0.000 C 
ATOM      6  C   UNL     1       4.105   5.780  17.917  0.00  0.00    +0.000 C 
ATOM      7  C   UNL     1       3.774   4.434  17.338  0.00  0.00    +0.000 C 
ATOM      8  O   UNL     1       4.395   3.992  16.355  0.00  0.00    +0.000 OA
ATOM      9  C   UNL     1       2.662   3.599  17.928  0.00  0.00    +0.000 C 
BRANCH   3  10
ATOM     10  C   UNL     1       0.750   3.414  19.592  0.00  0.00    +0.000 C 
BRANCH  10  12
ATOM     11  C   UNL     1       1.389   2.363  22.133  0.00  0.00    +0.000 C 
ATOM     12  C   UNL     1       1.093   2.848  20.960  0.00  0.00    +0.000 C 
ENDBRANCH  10  12
ENDBRANCH   3  10
ENDBRANCH   1   6
BRANCH   2  13
ATOM     13  C   UNL     1       7.492   7.506  17.232  0.00  0.00    +0.000 C 
ATOM     14  O   UNL     1       8.178   7.127  16.286  0.00  0.00    +0.000 OA
BRANCH  13  15
ATOM     15  C   UNL     1       7.688   8.856  17.821  0.00  0.00    +0.000 C 
ATOM     16  C   UNL     1       8.904   9.281  18.211  0.00  0.00    +0.000 C 
BRANCH  16  17
ATOM     17  C   UNL     1       9.148  10.598  18.832  0.00  0.00    +0.000 A 
ATOM     18  C   UNL     1       9.478  10.661  20.191  0.00  0.00    +0.000 A 
ATOM     19  C   UNL     1       9.724  11.887  20.819  0.00  0.00    +0.000 A 
ATOM     20  C   UNL     1       9.650  13.068  20.089  0.00  0.00    +0.000 A 
ATOM     21 CL   UNL     1       9.927  14.572  20.875  0.00  0.00    +0.000 Cl
ATOM     22  C   UNL     1       9.350  13.030  18.731  0.00  0.00    +0.000 A 
ATOM     23  C   UNL     1       9.095  11.801  18.110  0.00  0.00    +0.000 A 
ENDBRANCH  16  17
ENDBRANCH  13  15
ENDBRANCH   2  13
TORSDOF 6
ENDMDL
