MODEL 1
REMARK VINA RESULT:      -7.9      0.000      0.000
REMARK  Name = 
REMARK  3 active torsions:
REMARK  status: ('A' for Active; 'I' for Inactive)
REMARK    1  A    between atoms: C_1  and  N_2
REMARK    2  A    between atoms: C_6  and  C_7
REMARK    3  A    between atoms: C_6  and  C_14
REMARK                            x       y       z     vdW  Elec       q    Type
REMARK                         _______ _______ _______ _____ _____    ______ ____
ROOT
ATOM      1  C   UNL     1       7.072   5.337  15.694  0.00  0.00    +0.000 C 
ATOM      2  N   UNL     1       6.910   5.553  17.130  0.00  0.00    +0.000 NA
ATOM      3  C   UNL     1       6.250   6.837  17.421  0.00  0.00    +0.000 C 
ATOM      4  C   UNL     1       4.752   6.874  17.082  0.00  0.00    +0.000 C 
ATOM      5  C   UNL     1       3.997   5.736  17.763  0.00  0.00    +0.000 C 
ATOM      6  C   UNL     1       2.888   5.913  18.528  0.00  0.00    +0.000 C 
ATOM      7  C   UNL     1       4.669   4.400  17.473  0.00  0.00    +0.000 C 
ATOM      8  C   UNL     1       6.178   4.449  17.781  0.00  0.00    +0.000 C 
ENDROOT
BRANCH   6   9
ATOM      9  C   UNL     1       2.332   7.273  18.711  0.00  0.00    +0.000 A 
ATOM     10  C   UNL     1       1.922   7.695  19.984  0.00  0.00    +0.000 A 
ATOM     11  C   UNL     1       1.396   8.975  20.161  0.00  0.00    +0.000 A 
ATOM     12  C   UNL     1       1.286   9.824  19.065  0.00  0.00    +0.000 A 
ATOM     13  F   UNL     1       0.776  11.052  19.235  0.00  0.00    +0.000 F 
ATOM     14  C   UNL     1       1.692   9.423  17.798  0.00  0.00    +0.000 A 
ATOM     15  C   UNL     1       2.219   8.144  17.618  0.00  0.00    +0.000 A 
ENDBRANCH   6   9
BRANCH   6  16
ATOM     16  C   UNL     1       2.203   4.792  19.103  0.00  0.00    +0.000 A 
ATOM     17  C   UNL     1       2.243   4.341  20.411  0.00  0.00    +0.000 A 
ATOM     18  C   UNL     1       1.545   3.116  20.593  0.00  0.00    +0.000 A 
ATOM     19 CL   UNL     1       1.472   2.309  22.097  0.00  0.00    +0.000 Cl
ATOM     20  C   UNL     1       0.971   2.667  19.429  0.00  0.00    +0.000 A 
ATOM     21  S   UNL     1       1.280   3.723  18.118  0.00  0.00    +0.000 S 
ENDBRANCH   6  16
TORSDOF 2
ENDMDL
MODEL 2
REMARK VINA RESULT:      -7.9      0.039      1.059
REMARK  Name = 
REMARK  3 active torsions:
REMARK  status: ('A' for Active; 'I' for Inactive)
REMARK    1  A    between atoms: C_1  and  N_2
REMARK    2  A    between atoms: C_6  and  C_7
REMARK    3  A    between atoms: C_6  and  C_14
REMARK                            x       y       z     vdW  Elec       q    Type
REMARK                         _______ _______ _______ _____ _____    ______ ____
ROOT
ATOM      1  C   UNL     1       7.075   5.363  15.719  0.00  0.00    +0.000 C 
ATOM      2  N   UNL     1       6.909   5.565  17.157  0.00  0.00    +0.000 NA
ATOM      3  C   UNL     1       6.253   6.848  17.459  0.00  0.00    +0.000 C 
ATOM      4  C   UNL     1       4.755   6.893  17.117  0.00  0.00    +0.000 C 
ATOM      5  C   UNL     1       3.994   5.751  17.783  0.00  0.00    +0.000 C 
ATOM      6  C   UNL     1       2.884   5.924  18.546  0.00  0.00    +0.000 C 
ATOM      7  C   UNL     1       4.662   4.416  17.481  0.00  0.00    +0.000 C 
ATOM      8  C   UNL     1       6.170   4.457  17.794  0.00  0.00    +0.000 C 
ENDROOT
BRANCH   6   9
ATOM      9  C   UNL     1       2.332   7.285  18.742  0.00  0.00    +0.000 A 
ATOM     10  C   UNL     1       2.247   8.167  17.655  0.00  0.00    +0.000 A 
ATOM     11  C   UNL     1       1.729   9.450  17.836  0.00  0.00    +0.000 A 
ATOM     12  C   UNL     1       1.297   9.840  19.099  0.00  0.00    +0.000 A 
ATOM     13  F   UNL     1       0.804  11.074  19.272  0.00  0.00    +0.000 F 
ATOM     14  C   UNL     1       1.371   8.976  20.185  0.00  0.00    +0.000 A 
ATOM     15  C   UNL     1       1.888   7.692  20.008  0.00  0.00    +0.000 A 
ENDBRANCH   6   9
BRANCH   6  16
ATOM     16  C   UNL     1       2.193   4.801  19.108  0.00  0.00    +0.000 A 
ATOM     17  C   UNL     1       2.202   4.355  20.418  0.00  0.00    +0.000 A 
ATOM     18  C   UNL     1       1.510   3.124  20.586  0.00  0.00    +0.000 A 
ATOM     19 CL   UNL     1       1.403   2.323  22.091  0.00  0.00    +0.000 Cl
ATOM     20  C   UNL     1       0.970   2.667  19.409  0.00  0.00    +0.000 A 
ATOM     21  S   UNL     1       1.305   3.719  18.102  0.00  0.00    +0.000 S 
ENDBRANCH   6  16
TORSDOF 2
ENDMDL
MODEL 3
REMARK VINA RESULT:      -7.6      2.932      4.674
REMARK  Name = 
REMARK  3 active torsions:
REMARK  status: ('A' for Active; 'I' for Inactive)
REMARK    1  A    between atoms: C_1  and  N_2
REMARK    2  A    between atoms: C_6  and  C_7
REMARK    3  A    between atoms: C_6  and  C_14
REMARK                            x       y       z     vdW  Elec       q    Type
REMARK                         _______ _______ _______ _____ _____    ______ ____
ROOT
ATOM      1  C   UNL     1       1.973   2.197  21.742  0.00  0.00    +0.000 C 
ATOM      2  N   UNL     1       1.543   2.537  20.387  0.00  0.00    +0.000 NA
ATOM      3  C   UNL     1       0.909   3.865  20.330  0.00  0.00    +0.000 C 
ATOM      4  C   UNL     1       1.883   5.043  20.490  0.00  0.00    +0.000 C 
ATOM      5  C   UNL     1       3.023   4.967  19.479  0.00  0.00    +0.000 C 
ATOM      6  C   UNL     1       3.372   5.987  18.653  0.00  0.00    +0.000 C 
ATOM      7  C   UNL     1       3.689   3.598  19.525  0.00  0.00    +0.000 C 
ATOM      8  C   UNL     1       2.651   2.463  19.415  0.00  0.00    +0.000 C 
ENDROOT
BRANCH   6   9
ATOM      9  C   UNL     1       2.645   7.276  18.729  0.00  0.00    +0.000 A 
ATOM     10  C   UNL     1       2.010   7.650  19.922  0.00  0.00    +0.000 A 
ATOM     11  C   UNL     1       1.323   8.862  19.998  0.00  0.00    +0.000 A 
ATOM     12  C   UNL     1       1.278   9.692  18.883  0.00  0.00    +0.000 A 
ATOM     13  F   UNL     1       0.615  10.853  18.955  0.00  0.00    +0.000 F 
ATOM     14  C   UNL     1       1.906   9.337  17.695  0.00  0.00    +0.000 A 
ATOM     15  C   UNL     1       2.595   8.126  17.615  0.00  0.00    +0.000 A 
ENDBRANCH   6   9
BRANCH   6  16
ATOM     16  C   UNL     1       4.483   5.862  17.755  0.00  0.00    +0.000 A 
ATOM     17  C   UNL     1       4.517   5.260  16.509  0.00  0.00    +0.000 A 
ATOM     18  C   UNL     1       5.828   5.200  15.962  0.00  0.00    +0.000 A 
ATOM     19 CL   UNL     1       6.166   4.468  14.456  0.00  0.00    +0.000 Cl
ATOM     20  C   UNL     1       6.763   5.774  16.788  0.00  0.00    +0.000 A 
ATOM     21  S   UNL     1       6.058   6.378  18.225  0.00  0.00    +0.000 S 
ENDBRANCH   6  16
TORSDOF 2
ENDMDL
MODEL 4
REMARK VINA RESULT:      -7.6      3.041      4.819
REMARK  Name = 
REMARK  3 active torsions:
REMARK  status: ('A' for Active; 'I' for Inactive)
REMARK    1  A    between atoms: C_1  and  N_2
REMARK    2  A    between atoms: C_6  and  C_7
REMARK    3  A    between atoms: C_6  and  C_14
REMARK                            x       y       z     vdW  Elec       q    Type
REMARK                         _______ _______ _______ _____ _____    ______ ____
ROOT
ATOM      1  C   UNL     1       7.010   5.258  16.007  0.00  0.00    +0.000 C 
ATOM      2  N   UNL     1       5.582   5.188  15.702  0.00  0.00    +0.000 NA
ATOM      3  C   UNL     1       4.896   4.174  16.520  0.00  0.00    +0.000 C 
ATOM      4  C   UNL     1       4.726   4.556  17.999  0.00  0.00    +0.000 C 
ATOM      5  C   UNL     1       4.029   5.904  18.151  0.00  0.00    +0.000 C 
ATOM      6  C   UNL     1       2.932   6.107  18.926  0.00  0.00    +0.000 C 
ATOM      7  C   UNL     1       4.727   6.965  17.310  0.00  0.00    +0.000 C 
ATOM      8  C   UNL     1       4.915   6.496  15.854  0.00  0.00    +0.000 C 
ENDROOT
BRANCH   6   9
ATOM      9  C   UNL     1       2.367   4.982  19.708  0.00  0.00    +0.000 A 
ATOM     10  C   UNL     1       2.801   4.758  21.022  0.00  0.00    +0.000 A 
ATOM     11  C   UNL     1       2.273   3.698  21.761  0.00  0.00    +0.000 A 
ATOM     12  C   UNL     1       1.314   2.874  21.183  0.00  0.00    +0.000 A 
ATOM     13  F   UNL     1       0.810   1.855  21.891  0.00  0.00    +0.000 F 
ATOM     14  C   UNL     1       0.870   3.086  19.883  0.00  0.00    +0.000 A 
ATOM     15  C   UNL     1       1.396   4.145  19.141  0.00  0.00    +0.000 A 
ENDBRANCH   6   9
BRANCH   6  16
ATOM     16  C   UNL     1       2.353   7.412  19.058  0.00  0.00    +0.000 A 
ATOM     17  C   UNL     1       1.816   8.002  20.188  0.00  0.00    +0.000 A 
ATOM     18  C   UNL     1       1.203   9.256  19.917  0.00  0.00    +0.000 A 
ATOM     19 CL   UNL     1       0.420  10.181  21.121  0.00  0.00    +0.000 Cl
ATOM     20  C   UNL     1       1.301   9.606  18.593  0.00  0.00    +0.000 A 
ATOM     21  S   UNL     1       2.128   8.419  17.679  0.00  0.00    +0.000 S 
ENDBRANCH   6  16
TORSDOF 2
ENDMDL
MODEL 5
REMARK VINA RESULT:      -7.6      2.935      4.792
REMARK  Name = 
REMARK  3 active torsions:
REMARK  status: ('A' for Active; 'I' for Inactive)
REMARK    1  A    between atoms: C_1  and  N_2
REMARK    2  A    between atoms: C_6  and  C_7
REMARK    3  A    between atoms: C_6  and  C_14
REMARK                            x       y       z     vdW  Elec       q    Type
REMARK                         _______ _______ _______ _____ _____    ______ ____
ROOT
ATOM      1  C   UNL     1       1.997   2.217  21.766  0.00  0.00    +0.000 C 
ATOM      2  N   UNL     1       1.560   2.557  20.414  0.00  0.00    +0.000 NA
ATOM      3  C   UNL     1       0.920   3.882  20.360  0.00  0.00    +0.000 C 
ATOM      4  C   UNL     1       1.890   5.064  20.517  0.00  0.00    +0.000 C 
ATOM      5  C   UNL     1       3.026   4.994  19.501  0.00  0.00    +0.000 C 
ATOM      6  C   UNL     1       3.367   6.016  18.674  0.00  0.00    +0.000 C 
ATOM      7  C   UNL     1       3.697   3.627  19.543  0.00  0.00    +0.000 C 
ATOM      8  C   UNL     1       2.664   2.488  19.437  0.00  0.00    +0.000 C 
ENDROOT
BRANCH   6   9
ATOM      9  C   UNL     1       2.634   7.301  18.754  0.00  0.00    +0.000 A 
ATOM     10  C   UNL     1       2.554   8.131  17.627  0.00  0.00    +0.000 A 
ATOM     11  C   UNL     1       1.867   9.343  17.699  0.00  0.00    +0.000 A 
ATOM     12  C   UNL     1       1.264   9.716  18.895  0.00  0.00    +0.000 A 
ATOM     13  F   UNL     1       0.608  10.882  18.964  0.00  0.00    +0.000 F 
ATOM     14  C   UNL     1       1.330   8.902  20.020  0.00  0.00    +0.000 A 
ATOM     15  C   UNL     1       2.017   7.689  19.951  0.00  0.00    +0.000 A 
ENDBRANCH   6   9
BRANCH   6  16
ATOM     16  C   UNL     1       4.474   5.896  17.771  0.00  0.00    +0.000 A 
ATOM     17  C   UNL     1       4.497   5.323  16.511  0.00  0.00    +0.000 A 
ATOM     18  C   UNL     1       5.806   5.257  15.960  0.00  0.00    +0.000 A 
ATOM     19 CL   UNL     1       6.131   4.556  14.437  0.00  0.00    +0.000 Cl
ATOM     20  C   UNL     1       6.750   5.798  16.797  0.00  0.00    +0.000 A 
ATOM     21  S   UNL     1       6.057   6.378  18.250  0.00  0.00    +0.000 S 
ENDBRANCH   6  16
TORSDOF 2
ENDMDL
MODEL 6
REMARK VINA RESULT:      -7.6      3.037      4.891
REMARK  Name = 
REMARK  3 active torsions:
REMARK  status: ('A' for Active; 'I' for Inactive)
REMARK    1  A    between atoms: C_1  and  N_2
REMARK    2  A    between atoms: C_6  and  C_7
REMARK    3  A    between atoms: C_6  and  C_14
REMARK                            x       y       z     vdW  Elec       q    Type
REMARK                         _______ _______ _______ _____ _____    ______ ____
ROOT
ATOM      1  C   UNL     1       7.038   5.118  16.024  0.00  0.00    +0.000 C 
ATOM      2  N   UNL     1       5.611   5.057  15.717  0.00  0.00    +0.000 NA
ATOM      3  C   UNL     1       4.912   4.064  16.551  0.00  0.00    +0.000 C 
ATOM      4  C   UNL     1       4.744   4.473  18.022  0.00  0.00    +0.000 C 
ATOM      5  C   UNL     1       4.060   5.831  18.150  0.00  0.00    +0.000 C 
ATOM      6  C   UNL     1       2.963   6.058  18.918  0.00  0.00    +0.000 C 
ATOM      7  C   UNL     1       4.770   6.870  17.291  0.00  0.00    +0.000 C 
ATOM      8  C   UNL     1       4.956   6.373  15.844  0.00  0.00    +0.000 C 
ENDROOT
BRANCH   6   9
ATOM      9  C   UNL     1       2.385   4.953  19.718  0.00  0.00    +0.000 A 
ATOM     10  C   UNL     1       1.399   4.127  19.159  0.00  0.00    +0.000 A 
ATOM     11  C   UNL     1       0.851   3.086  19.909  0.00  0.00    +0.000 A 
ATOM     12  C   UNL     1       1.294   2.877  21.211  0.00  0.00    +0.000 A 
ATOM     13  F   UNL     1       0.764   1.880  21.932  0.00  0.00    +0.000 F 
ATOM     14  C   UNL     1       2.274   3.683  21.778  0.00  0.00    +0.000 A 
ATOM     15  C   UNL     1       2.825   4.725  21.030  0.00  0.00    +0.000 A 
ENDBRANCH   6   9
BRANCH   6  16
ATOM     16  C   UNL     1       2.396   7.370  19.025  0.00  0.00    +0.000 A 
ATOM     17  C   UNL     1       1.836   7.975  20.137  0.00  0.00    +0.000 A 
ATOM     18  C   UNL     1       1.246   9.234  19.841  0.00  0.00    +0.000 A 
ATOM     19 CL   UNL     1       0.443  10.177  21.018  0.00  0.00    +0.000 Cl
ATOM     20  C   UNL     1       1.384   9.574  18.518  0.00  0.00    +0.000 A 
ATOM     21  S   UNL     1       2.220   8.371  17.634  0.00  0.00    +0.000 S 
ENDBRANCH   6  16
TORSDOF 2
ENDMDL
MODEL 7
REMARK VINA RESULT:      -7.2      2.897      4.686
REMARK  Name = 
REMARK  3 active torsions:
REMARK  status: ('A' for Active; 'I' for Inactive)
REMARK    1  A    between atoms: C_1  and  N_2
REMARK    2  A    between atoms: C_6  and  C_7
REMARK    3  A    between atoms: C_6  and  C_14
REMARK                            x       y       z     vdW  Elec       q    Type
REMARK                         _______ _______ _______ _____ _____    ______ ____
ROOT
ATOM      1  C   UNL     1       1.812   2.152  21.688  0.00  0.00    +0.000 C 
ATOM      2  N   UNL     1       1.497   2.519  20.309  0.00  0.00    +0.000 NA
ATOM      3  C   UNL     1       0.775   3.800  20.233  0.00  0.00    +0.000 C 
ATOM      4  C   UNL     1       1.638   5.035  20.535  0.00  0.00    +0.000 C 
ATOM      5  C   UNL     1       2.876   5.084  19.645  0.00  0.00    +0.000 C 
ATOM      6  C   UNL     1       3.229   6.160  18.896  0.00  0.00    +0.000 C 
ATOM      7  C   UNL     1       3.633   3.763  19.711  0.00  0.00    +0.000 C 
ATOM      8  C   UNL     1       2.699   2.565  19.454  0.00  0.00    +0.000 C 
ENDROOT
BRANCH   6   9
ATOM      9  C   UNL     1       2.404   7.390  18.943  0.00  0.00    +0.000 A 
ATOM     10  C   UNL     1       1.906   7.851  20.170  0.00  0.00    +0.000 A 
ATOM     11  C   UNL     1       1.128   9.008  20.218  0.00  0.00    +0.000 A 
ATOM     12  C   UNL     1       0.855   9.696  19.041  0.00  0.00    +0.000 A 
ATOM     13  F   UNL     1       0.104  10.805  19.087  0.00  0.00    +0.000 F 
ATOM     14  C   UNL     1       1.345   9.255  17.817  0.00  0.00    +0.000 A 
ATOM     15  C   UNL     1       2.125   8.098  17.765  0.00  0.00    +0.000 A 
ENDBRANCH   6   9
BRANCH   6  16
ATOM     16  C   UNL     1       4.431   6.152  18.114  0.00  0.00    +0.000 A 
ATOM     17  C   UNL     1       5.567   6.926  18.279  0.00  0.00    +0.000 A 
ATOM     18  C   UNL     1       6.511   6.749  17.230  0.00  0.00    +0.000 A 
ATOM     19 CL   UNL     1       7.982   7.614  17.156  0.00  0.00    +0.000 Cl
ATOM     20  C   UNL     1       6.087   5.831  16.300  0.00  0.00    +0.000 A 
ATOM     21  S   UNL     1       4.550   5.190  16.690  0.00  0.00    +0.000 S 
ENDBRANCH   6  16
TORSDOF 2
ENDMDL
MODEL 8
REMARK VINA RESULT:      -7.2      2.897      4.803
REMARK  Name = 
REMARK  3 active torsions:
REMARK  status: ('A' for Active; 'I' for Inactive)
REMARK    1  A    between atoms: C_1  and  N_2
REMARK    2  A    between atoms: C_6  and  C_7
REMARK    3  A    between atoms: C_6  and  C_14
REMARK                            x       y       z     vdW  Elec       q    Type
REMARK                         _______ _______ _______ _____ _____    ______ ____
ROOT
ATOM      1  C   UNL     1       1.794   2.155  21.682  0.00  0.00    +0.000 C 
ATOM      2  N   UNL     1       1.481   2.524  20.303  0.00  0.00    +0.000 NA
ATOM      3  C   UNL     1       0.762   3.806  20.227  0.00  0.00    +0.000 C 
ATOM      4  C   UNL     1       1.626   5.040  20.532  0.00  0.00    +0.000 C 
ATOM      5  C   UNL     1       2.866   5.087  19.644  0.00  0.00    +0.000 C 
ATOM      6  C   UNL     1       3.223   6.163  18.896  0.00  0.00    +0.000 C 
ATOM      7  C   UNL     1       3.621   3.765  19.710  0.00  0.00    +0.000 C 
ATOM      8  C   UNL     1       2.685   2.568  19.451  0.00  0.00    +0.000 C 
ENDROOT
BRANCH   6   9
ATOM      9  C   UNL     1       2.400   7.395  18.943  0.00  0.00    +0.000 A 
ATOM     10  C   UNL     1       2.115   8.089  17.758  0.00  0.00    +0.000 A 
ATOM     11  C   UNL     1       1.342   9.250  17.798  0.00  0.00    +0.000 A 
ATOM     12  C   UNL     1       0.858   9.706  19.019  0.00  0.00    +0.000 A 
ATOM     13  F   UNL     1       0.120  10.823  19.056  0.00  0.00    +0.000 F 
ATOM     14  C   UNL     1       1.128   9.027  20.201  0.00  0.00    +0.000 A 
ATOM     15  C   UNL     1       1.901   7.865  20.165  0.00  0.00    +0.000 A 
ENDBRANCH   6   9
BRANCH   6  16
ATOM     16  C   UNL     1       4.426   6.154  18.117  0.00  0.00    +0.000 A 
ATOM     17  C   UNL     1       5.562   6.927  18.282  0.00  0.00    +0.000 A 
ATOM     18  C   UNL     1       6.508   6.748  17.236  0.00  0.00    +0.000 A 
ATOM     19 CL   UNL     1       7.979   7.612  17.163  0.00  0.00    +0.000 Cl
ATOM     20  C   UNL     1       6.086   5.830  16.306  0.00  0.00    +0.000 A 
ATOM     21  S   UNL     1       4.547   5.190  16.694  0.00  0.00    +0.000 S 
ENDBRANCH   6  16
TORSDOF 2
ENDMDL
MODEL 9
REMARK VINA RESULT:      -7.1      3.272      5.039
REMARK  Name = 
REMARK  3 active torsions:
REMARK  status: ('A' for Active; 'I' for Inactive)
REMARK    1  A    between atoms: C_1  and  N_2
REMARK    2  A    between atoms: C_6  and  C_7
REMARK    3  A    between atoms: C_6  and  C_14
REMARK                            x       y       z     vdW  Elec       q    Type
REMARK                         _______ _______ _______ _____ _____    ______ ____
ROOT
ATOM      1  C   UNL     1       7.033   5.143  15.902  0.00  0.00    +0.000 C 
ATOM      2  N   UNL     1       5.605   5.068  15.602  0.00  0.00    +0.000 NA
ATOM      3  C   UNL     1       4.917   4.078  16.448  0.00  0.00    +0.000 C 
ATOM      4  C   UNL     1       4.751   4.502  17.916  0.00  0.00    +0.000 C 
ATOM      5  C   UNL     1       4.058   5.856  18.032  0.00  0.00    +0.000 C 
ATOM      6  C   UNL     1       2.962   6.083  18.802  0.00  0.00    +0.000 C 
ATOM      7  C   UNL     1       4.757   6.891  17.160  0.00  0.00    +0.000 C 
ATOM      8  C   UNL     1       4.941   6.381  15.718  0.00  0.00    +0.000 C 
ENDROOT
BRANCH   6   9
ATOM      9  C   UNL     1       2.396   4.982  19.616  0.00  0.00    +0.000 A 
ATOM     10  C   UNL     1       2.867   4.762  20.918  0.00  0.00    +0.000 A 
ATOM     11  C   UNL     1       2.337   3.725  21.687  0.00  0.00    +0.000 A 
ATOM     12  C   UNL     1       1.340   2.918  21.150  0.00  0.00    +0.000 A 
ATOM     13  F   UNL     1       0.835   1.921  21.888  0.00  0.00    +0.000 F 
ATOM     14  C   UNL     1       0.859   3.127  19.863  0.00  0.00    +0.000 A 
ATOM     15  C   UNL     1       1.386   4.163  19.091  0.00  0.00    +0.000 A 
ENDBRANCH   6   9
BRANCH   6  16
ATOM     16  C   UNL     1       2.387   7.392  18.898  0.00  0.00    +0.000 A 
ATOM     17  C   UNL     1       2.501   8.447  18.010  0.00  0.00    +0.000 A 
ATOM     18  C   UNL     1       1.910   9.645  18.498  0.00  0.00    +0.000 A 
ATOM     19 CL   UNL     1       1.946  11.114  17.627  0.00  0.00    +0.000 Cl
ATOM     20  C   UNL     1       1.340   9.476  19.736  0.00  0.00    +0.000 A 
ATOM     21  S   UNL     1       1.524   7.874  20.309  0.00  0.00    +0.000 S 
ENDBRANCH   6  16
TORSDOF 2
ENDMDL
