MODEL 1
REMARK VINA RESULT:      -9.6      0.000      0.000
REMARK  Name = 
REMARK  4 active torsions:
REMARK  status: ('A' for Active; 'I' for Inactive)
REMARK    1  A    between atoms: C_2  and  C_21
REMARK    2  A    between atoms: C_7  and  S_8
REMARK    3  A    between atoms: S_8  and  C_9
REMARK    4  A    between atoms: C_9  and  C_10
REMARK                            x       y       z     vdW  Elec       q    Type
REMARK                         _______ _______ _______ _____ _____    ______ ____
ROOT
ATOM      1  O   UNL     1       4.764   4.251  16.234  0.00  0.00    +0.000 OA
ATOM      2  C   UNL     1       4.926   3.651  17.291  0.00  0.00    +0.000 C 
ATOM      3  N   UNL     1       5.847   3.986  18.265  0.00  0.00    +0.000 N 
ATOM      4  C   UNL     1       6.584   5.147  18.315  0.00  0.00    +0.000 A 
ATOM      5  N   UNL     1       7.616   5.312  19.115  0.00  0.00    +0.000 NA
ATOM      6  N   UNL     1       8.207   6.557  18.954  0.00  0.00    +0.000 NA
ATOM      7  C   UNL     1       7.558   7.299  18.082  0.00  0.00    +0.000 A 
ATOM      8  S   UNL     1       6.180   6.536  17.409  0.00  0.00    +0.000 S 
ATOM      9  H   UNL     1       6.070   3.305  18.982  0.00  0.00    +0.000 HD
ENDROOT
BRANCH   2  10
ATOM     10  C   UNL     1       4.174   2.337  17.589  0.00  0.00    +0.000 C 
ATOM     11  C   UNL     1       2.790   2.321  16.941  0.00  0.00    +0.000 C 
ATOM     12  O   UNL     1       1.931   3.319  17.509  0.00  0.00    +0.000 OA
ATOM     13  C   UNL     1       2.043   3.372  18.872  0.00  0.00    +0.000 A 
ATOM     14  C   UNL     1       1.085   4.125  19.547  0.00  0.00    +0.000 A 
ATOM     15  C   UNL     1       1.123   4.210  20.938  0.00  0.00    +0.000 A 
ATOM     16  C   UNL     1       2.119   3.540  21.653  0.00  0.00    +0.000 A 
ATOM     17  C   UNL     1       3.088   2.799  20.975  0.00  0.00    +0.000 A 
ATOM     18  C   UNL     1       3.062   2.734  19.585  0.00  0.00    +0.000 A 
ATOM     19  O   UNL     1       4.085   2.043  18.985  0.00  0.00    +0.000 OA
ENDBRANCH   2  10
BRANCH   7  20
ATOM     20  S   UNL     1       8.034   8.932  17.662  0.00  0.00    +0.000 S 
BRANCH  20  21
ATOM     21  C   UNL     1       9.002   9.398  19.127  0.00  0.00    +0.000 C 
BRANCH  21  22
ATOM     22  C   UNL     1       9.607  10.789  19.005  0.00  0.00    +0.000 A 
ATOM     23  C   UNL     1      10.232  11.138  17.790  0.00  0.00    +0.000 A 
ATOM     24  C   UNL     1      10.849  12.374  17.628  0.00  0.00    +0.000 A 
ATOM     25  C   UNL     1      10.849  13.291  18.674  0.00  0.00    +0.000 A 
ATOM     26  C   UNL     1      10.212  12.995  19.888  0.00  0.00    +0.000 A 
ATOM     27  C   UNL     1      10.210  13.948  20.920  0.00  0.00    +0.000 A 
ATOM     28  C   UNL     1       9.572  13.691  22.130  0.00  0.00    +0.000 A 
ATOM     29  C   UNL     1       8.933  12.475  22.326  0.00  0.00    +0.000 A 
ATOM     30  C   UNL     1       8.935  11.512  21.310  0.00  0.00    +0.000 A 
ATOM     31  C   UNL     1       9.573  11.739  20.070  0.00  0.00    +0.000 A 
ENDBRANCH  21  22
ENDBRANCH  20  21
ENDBRANCH   7  20
TORSDOF 4
ENDMDL
MODEL 2
REMARK VINA RESULT:      -9.4      6.231      9.305
REMARK  Name = 
REMARK  4 active torsions:
REMARK  status: ('A' for Active; 'I' for Inactive)
REMARK    1  A    between atoms: C_2  and  C_21
REMARK    2  A    between atoms: C_7  and  S_8
REMARK    3  A    between atoms: S_8  and  C_9
REMARK    4  A    between atoms: C_9  and  C_10
REMARK                            x       y       z     vdW  Elec       q    Type
REMARK                         _______ _______ _______ _____ _____    ______ ____
ROOT
ATOM      1  O   UNL     1       2.099   5.182  19.523  0.00  0.00    +0.000 OA
ATOM      2  C   UNL     1       2.775   5.461  18.538  0.00  0.00    +0.000 C 
ATOM      3  N   UNL     1       2.767   6.678  17.883  0.00  0.00    +0.000 N 
ATOM      4  C   UNL     1       2.170   7.833  18.332  0.00  0.00    +0.000 A 
ATOM      5  N   UNL     1       1.978   8.889  17.571  0.00  0.00    +0.000 NA
ATOM      6  N   UNL     1       1.329   9.911  18.250  0.00  0.00    +0.000 NA
ATOM      7  C   UNL     1       1.115   9.603  19.511  0.00  0.00    +0.000 A 
ATOM      8  S   UNL     1       1.697   8.056  19.958  0.00  0.00    +0.000 S 
ATOM      9  H   UNL     1       3.171   6.737  16.956  0.00  0.00    +0.000 HD
ENDROOT
BRANCH   2  10
ATOM     10  C   UNL     1       3.640   4.395  17.834  0.00  0.00    +0.000 C 
ATOM     11  C   UNL     1       4.365   3.503  18.840  0.00  0.00    +0.000 C 
ATOM     12  O   UNL     1       5.326   4.243  19.603  0.00  0.00    +0.000 OA
ATOM     13  C   UNL     1       6.043   5.106  18.819  0.00  0.00    +0.000 A 
ATOM     14  C   UNL     1       7.165   5.693  19.402  0.00  0.00    +0.000 A 
ATOM     15  C   UNL     1       7.955   6.568  18.659  0.00  0.00    +0.000 A 
ATOM     16  C   UNL     1       7.625   6.855  17.333  0.00  0.00    +0.000 A 
ATOM     17  C   UNL     1       6.493   6.279  16.753  0.00  0.00    +0.000 A 
ATOM     18  C   UNL     1       5.692   5.423  17.503  0.00  0.00    +0.000 A 
ATOM     19  O   UNL     1       4.559   4.949  16.890  0.00  0.00    +0.000 OA
ENDBRANCH   2  10
BRANCH   7  20
ATOM     20  S   UNL     1       0.332  10.683  20.647  0.00  0.00    +0.000 S 
BRANCH  20  21
ATOM     21  C   UNL     1      -0.223  12.010  19.537  0.00  0.00    +0.000 C 
BRANCH  21  22
ATOM     22  C   UNL     1      -1.739  12.121  19.477  0.00  0.00    +0.000 A 
ATOM     23  C   UNL     1      -2.410  12.667  20.590  0.00  0.00    +0.000 A 
ATOM     24  C   UNL     1      -3.798  12.752  20.622  0.00  0.00    +0.000 A 
ATOM     25  C   UNL     1      -4.546  12.299  19.540  0.00  0.00    +0.000 A 
ATOM     26  C   UNL     1      -3.916  11.778  18.401  0.00  0.00    +0.000 A 
ATOM     27  C   UNL     1      -4.694  11.347  17.314  0.00  0.00    +0.000 A 
ATOM     28  C   UNL     1      -4.098  10.841  16.162  0.00  0.00    +0.000 A 
ATOM     29  C   UNL     1      -2.715  10.753  16.085  0.00  0.00    +0.000 A 
ATOM     30  C   UNL     1      -1.927  11.169  17.164  0.00  0.00    +0.000 A 
ATOM     31  C   UNL     1      -2.499  11.688  18.348  0.00  0.00    +0.000 A 
ENDBRANCH  21  22
ENDBRANCH  20  21
ENDBRANCH   7  20
TORSDOF 4
ENDMDL
MODEL 3
REMARK VINA RESULT:      -9.4      6.319      9.096
REMARK  Name = 
REMARK  4 active torsions:
REMARK  status: ('A' for Active; 'I' for Inactive)
REMARK    1  A    between atoms: C_2  and  C_21
REMARK    2  A    between atoms: C_7  and  S_8
REMARK    3  A    between atoms: S_8  and  C_9
REMARK    4  A    between atoms: C_9  and  C_10
REMARK                            x       y       z     vdW  Elec       q    Type
REMARK                         _______ _______ _______ _____ _____    ______ ____
ROOT
ATOM      1  O   UNL     1       4.300   7.015  17.221  0.00  0.00    +0.000 OA
ATOM      2  C   UNL     1       3.979   6.205  18.084  0.00  0.00    +0.000 C 
ATOM      3  N   UNL     1       3.137   6.464  19.148  0.00  0.00    +0.000 N 
ATOM      4  C   UNL     1       2.362   7.590  19.310  0.00  0.00    +0.000 A 
ATOM      5  N   UNL     1       1.773   7.903  20.444  0.00  0.00    +0.000 NA
ATOM      6  N   UNL     1       1.076   9.101  20.356  0.00  0.00    +0.000 NA
ATOM      7  C   UNL     1       1.121   9.606  19.143  0.00  0.00    +0.000 A 
ATOM      8  S   UNL     1       2.004   8.656  18.024  0.00  0.00    +0.000 S 
ATOM      9  H   UNL     1       3.121   5.817  19.928  0.00  0.00    +0.000 HD
ENDROOT
BRANCH   2  10
ATOM     10  C   UNL     1       4.611   4.798  18.135  0.00  0.00    +0.000 C 
ATOM     11  C   UNL     1       4.136   3.925  16.975  0.00  0.00    +0.000 C 
ATOM     12  O   UNL     1       2.732   3.649  17.064  0.00  0.00    +0.000 OA
ATOM     13  C   UNL     1       2.353   3.346  18.344  0.00  0.00    +0.000 A 
ATOM     14  C   UNL     1       1.071   2.824  18.506  0.00  0.00    +0.000 A 
ATOM     15  C   UNL     1       0.622   2.473  19.779  0.00  0.00    +0.000 A 
ATOM     16  C   UNL     1       1.454   2.643  20.887  0.00  0.00    +0.000 A 
ATOM     17  C   UNL     1       2.732   3.181  20.726  0.00  0.00    +0.000 A 
ATOM     18  C   UNL     1       3.171   3.552  19.458  0.00  0.00    +0.000 A 
ATOM     19  O   UNL     1       4.411   4.136  19.386  0.00  0.00    +0.000 OA
ENDBRANCH   2  10
BRANCH   7  20
ATOM     20  S   UNL     1       0.329  11.103  18.692  0.00  0.00    +0.000 S 
BRANCH  20  21
ATOM     21  C   UNL     1      -1.366  10.782  19.260  0.00  0.00    +0.000 C 
BRANCH  21  22
ATOM     22  C   UNL     1      -2.376  10.811  18.122  0.00  0.00    +0.000 A 
ATOM     23  C   UNL     1      -2.047  10.142  16.925  0.00  0.00    +0.000 A 
ATOM     24  C   UNL     1      -2.901  10.170  15.828  0.00  0.00    +0.000 A 
ATOM     25  C   UNL     1      -4.105  10.862  15.904  0.00  0.00    +0.000 A 
ATOM     26  C   UNL     1      -4.483  11.515  17.086  0.00  0.00    +0.000 A 
ATOM     27  C   UNL     1      -5.715  12.189  17.142  0.00  0.00    +0.000 A 
ATOM     28  C   UNL     1      -6.127  12.833  18.306  0.00  0.00    +0.000 A 
ATOM     29  C   UNL     1      -5.309  12.815  19.427  0.00  0.00    +0.000 A 
ATOM     30  C   UNL     1      -4.075  12.156  19.383  0.00  0.00    +0.000 A 
ATOM     31  C   UNL     1      -3.626  11.493  18.219  0.00  0.00    +0.000 A 
ENDBRANCH  21  22
ENDBRANCH  20  21
ENDBRANCH   7  20
TORSDOF 4
ENDMDL
MODEL 4
REMARK VINA RESULT:      -9.0      6.309      9.244
REMARK  Name = 
REMARK  4 active torsions:
REMARK  status: ('A' for Active; 'I' for Inactive)
REMARK    1  A    between atoms: C_2  and  C_21
REMARK    2  A    between atoms: C_7  and  S_8
REMARK    3  A    between atoms: S_8  and  C_9
REMARK    4  A    between atoms: C_9  and  C_10
REMARK                            x       y       z     vdW  Elec       q    Type
REMARK                         _______ _______ _______ _____ _____    ______ ____
ROOT
ATOM      1  O   UNL     1       2.103   4.991  19.290  0.00  0.00    +0.000 OA
ATOM      2  C   UNL     1       2.874   5.309  18.391  0.00  0.00    +0.000 C 
ATOM      3  N   UNL     1       2.936   6.553  17.795  0.00  0.00    +0.000 N 
ATOM      4  C   UNL     1       2.303   7.693  18.236  0.00  0.00    +0.000 A 
ATOM      5  N   UNL     1       2.192   8.784  17.509  0.00  0.00    +0.000 NA
ATOM      6  N   UNL     1       1.483   9.780  18.168  0.00  0.00    +0.000 NA
ATOM      7  C   UNL     1       1.145   9.417  19.386  0.00  0.00    +0.000 A 
ATOM      8  S   UNL     1       1.673   7.845  19.817  0.00  0.00    +0.000 S 
ATOM      9  H   UNL     1       3.429   6.651  16.916  0.00  0.00    +0.000 HD
ENDROOT
BRANCH   2  10
ATOM     10  C   UNL     1       3.799   4.267  17.726  0.00  0.00    +0.000 C 
ATOM     11  C   UNL     1       4.509   3.401  18.764  0.00  0.00    +0.000 C 
ATOM     12  O   UNL     1       5.416   4.172  19.563  0.00  0.00    +0.000 OA
ATOM     13  C   UNL     1       6.137   5.055  18.806  0.00  0.00    +0.000 A 
ATOM     14  C   UNL     1       7.215   5.677  19.432  0.00  0.00    +0.000 A 
ATOM     15  C   UNL     1       8.008   6.575  18.718  0.00  0.00    +0.000 A 
ATOM     16  C   UNL     1       7.724   6.848  17.378  0.00  0.00    +0.000 A 
ATOM     17  C   UNL     1       6.634   6.236  16.755  0.00  0.00    +0.000 A 
ATOM     18  C   UNL     1       5.830   5.358  17.476  0.00  0.00    +0.000 A 
ATOM     19  O   UNL     1       4.739   4.847  16.819  0.00  0.00    +0.000 OA
ENDBRANCH   2  10
BRANCH   7  20
ATOM     20  S   UNL     1       0.259  10.451  20.488  0.00  0.00    +0.000 S 
BRANCH  20  21
ATOM     21  C   UNL     1      -0.389  11.703  19.343  0.00  0.00    +0.000 C 
BRANCH  21  22
ATOM     22  C   UNL     1      -1.807  11.394  18.885  0.00  0.00    +0.000 A 
ATOM     23  C   UNL     1      -1.989  10.376  17.927  0.00  0.00    +0.000 A 
ATOM     24  C   UNL     1      -3.252  10.075  17.428  0.00  0.00    +0.000 A 
ATOM     25  C   UNL     1      -4.362  10.780  17.880  0.00  0.00    +0.000 A 
ATOM     26  C   UNL     1      -4.228  11.780  18.854  0.00  0.00    +0.000 A 
ATOM     27  C   UNL     1      -5.369  12.462  19.308  0.00  0.00    +0.000 A 
ATOM     28  C   UNL     1      -5.272  13.448  20.288  0.00  0.00    +0.000 A 
ATOM     29  C   UNL     1      -4.032  13.767  20.821  0.00  0.00    +0.000 A 
ATOM     30  C   UNL     1      -2.885  13.102  20.372  0.00  0.00    +0.000 A 
ATOM     31  C   UNL     1      -2.947  12.097  19.380  0.00  0.00    +0.000 A 
ENDBRANCH  21  22
ENDBRANCH  20  21
ENDBRANCH   7  20
TORSDOF 4
ENDMDL
MODEL 5
REMARK VINA RESULT:      -8.9      6.488      9.626
REMARK  Name = 
REMARK  4 active torsions:
REMARK  status: ('A' for Active; 'I' for Inactive)
REMARK    1  A    between atoms: C_2  and  C_21
REMARK    2  A    between atoms: C_7  and  S_8
REMARK    3  A    between atoms: S_8  and  C_9
REMARK    4  A    between atoms: C_9  and  C_10
REMARK                            x       y       z     vdW  Elec       q    Type
REMARK                         _______ _______ _______ _____ _____    ______ ____
ROOT
ATOM      1  O   UNL     1       3.767   6.816  17.665  0.00  0.00    +0.000 OA
ATOM      2  C   UNL     1       3.394   6.082  18.574  0.00  0.00    +0.000 C 
ATOM      3  N   UNL     1       2.640   6.479  19.662  0.00  0.00    +0.000 N 
ATOM      4  C   UNL     1       2.012   7.695  19.809  0.00  0.00    +0.000 A 
ATOM      5  N   UNL     1       1.518   8.117  20.954  0.00  0.00    +0.000 NA
ATOM      6  N   UNL     1       0.965   9.386  20.846  0.00  0.00    +0.000 NA
ATOM      7  C   UNL     1       1.012   9.838  19.611  0.00  0.00    +0.000 A 
ATOM      8  S   UNL     1       1.722   8.748  18.497  0.00  0.00    +0.000 S 
ATOM      9  H   UNL     1       2.584   5.868  20.468  0.00  0.00    +0.000 HD
ENDROOT
BRANCH   2  10
ATOM     10  C   UNL     1       3.857   4.613  18.657  0.00  0.00    +0.000 C 
ATOM     11  C   UNL     1       5.204   4.486  19.366  0.00  0.00    +0.000 C 
ATOM     12  O   UNL     1       6.254   5.111  18.618  0.00  0.00    +0.000 OA
ATOM     13  C   UNL     1       6.161   4.836  17.281  0.00  0.00    +0.000 A 
ATOM     14  C   UNL     1       7.259   5.183  16.495  0.00  0.00    +0.000 A 
ATOM     15  C   UNL     1       7.245   4.916  15.127  0.00  0.00    +0.000 A 
ATOM     16  C   UNL     1       6.135   4.299  14.546  0.00  0.00    +0.000 A 
ATOM     17  C   UNL     1       5.029   3.966  15.330  0.00  0.00    +0.000 A 
ATOM     18  C   UNL     1       5.035   4.254  16.691  0.00  0.00    +0.000 A 
ATOM     19  O   UNL     1       3.888   3.960  17.386  0.00  0.00    +0.000 OA
ENDBRANCH   2  10
BRANCH   7  20
ATOM     20  S   UNL     1       0.381  11.401  19.134  0.00  0.00    +0.000 S 
BRANCH  20  21
ATOM     21  C   UNL     1      -1.360  11.238  19.626  0.00  0.00    +0.000 C 
BRANCH  21  22
ATOM     22  C   UNL     1      -2.290  11.088  18.432  0.00  0.00    +0.000 A 
ATOM     23  C   UNL     1      -1.822  10.369  17.312  0.00  0.00    +0.000 A 
ATOM     24  C   UNL     1      -2.601  10.236  16.167  0.00  0.00    +0.000 A 
ATOM     25  C   UNL     1      -3.867  10.811  16.119  0.00  0.00    +0.000 A 
ATOM     26  C   UNL     1      -4.381  11.508  17.222  0.00  0.00    +0.000 A 
ATOM     27  C   UNL     1      -5.670  12.062  17.152  0.00  0.00    +0.000 A 
ATOM     28  C   UNL     1      -6.215  12.744  18.237  0.00  0.00    +0.000 A 
ATOM     29  C   UNL     1      -5.476  12.887  19.402  0.00  0.00    +0.000 A 
ATOM     30  C   UNL     1      -4.186  12.349  19.482  0.00  0.00    +0.000 A 
ATOM     31  C   UNL     1      -3.601  11.650  18.401  0.00  0.00    +0.000 A 
ENDBRANCH  21  22
ENDBRANCH  20  21
ENDBRANCH   7  20
TORSDOF 4
ENDMDL
MODEL 6
REMARK VINA RESULT:      -8.8      6.854      9.832
REMARK  Name = 
REMARK  4 active torsions:
REMARK  status: ('A' for Active; 'I' for Inactive)
REMARK    1  A    between atoms: C_2  and  C_21
REMARK    2  A    between atoms: C_7  and  S_8
REMARK    3  A    between atoms: S_8  and  C_9
REMARK    4  A    between atoms: C_9  and  C_10
REMARK                            x       y       z     vdW  Elec       q    Type
REMARK                         _______ _______ _______ _____ _____    ______ ____
ROOT
ATOM      1  O   UNL     1       2.492   7.611  17.959  0.00  0.00    +0.000 OA
ATOM      2  C   UNL     1       2.341   6.781  18.849  0.00  0.00    +0.000 C 
ATOM      3  N   UNL     1       2.008   7.066  20.159  0.00  0.00    +0.000 N 
ATOM      4  C   UNL     1       1.590   8.287  20.639  0.00  0.00    +0.000 A 
ATOM      5  N   UNL     1       1.522   8.572  21.922  0.00  0.00    +0.000 NA
ATOM      6  N   UNL     1       1.102   9.877  22.144  0.00  0.00    +0.000 NA
ATOM      7  C   UNL     1       0.814  10.497  21.020  0.00  0.00    +0.000 A 
ATOM      8  S   UNL     1       1.024   9.534  19.619  0.00  0.00    +0.000 S 
ATOM      9  H   UNL     1       2.138   6.351  20.865  0.00  0.00    +0.000 HD
ENDROOT
BRANCH   2  10
ATOM     10  C   UNL     1       2.647   5.287  18.610  0.00  0.00    +0.000 C 
ATOM     11  C   UNL     1       3.409   4.673  19.782  0.00  0.00    +0.000 C 
ATOM     12  O   UNL     1       4.714   5.248  19.921  0.00  0.00    +0.000 OA
ATOM     13  C   UNL     1       5.336   5.401  18.712  0.00  0.00    +0.000 A 
ATOM     14  C   UNL     1       6.692   5.718  18.744  0.00  0.00    +0.000 A 
ATOM     15  C   UNL     1       7.397   5.871  17.550  0.00  0.00    +0.000 A 
ATOM     16  C   UNL     1       6.745   5.704  16.326  0.00  0.00    +0.000 A 
ATOM     17  C   UNL     1       5.382   5.402  16.294  0.00  0.00    +0.000 A 
ATOM     18  C   UNL     1       4.675   5.273  17.486  0.00  0.00    +0.000 A 
ATOM     19  O   UNL     1       3.326   5.043  17.377  0.00  0.00    +0.000 OA
ENDBRANCH   2  10
BRANCH   7  20
ATOM     20  S   UNL     1       0.239  12.151  20.952  0.00  0.00    +0.000 S 
BRANCH  20  21
ATOM     21  C   UNL     1      -0.917  12.058  19.553  0.00  0.00    +0.000 C 
BRANCH  21  22
ATOM     22  C   UNL     1      -2.359  12.300  19.974  0.00  0.00    +0.000 A 
ATOM     23  C   UNL     1      -2.598  12.796  21.272  0.00  0.00    +0.000 A 
ATOM     24  C   UNL     1      -3.894  12.993  21.739  0.00  0.00    +0.000 A 
ATOM     25  C   UNL     1      -4.978  12.705  20.917  0.00  0.00    +0.000 A 
ATOM     26  C   UNL     1      -4.783  12.239  19.609  0.00  0.00    +0.000 A 
ATOM     27  C   UNL     1      -5.896  11.976  18.793  0.00  0.00    +0.000 A 
ATOM     28  C   UNL     1      -5.735  11.529  17.484  0.00  0.00    +0.000 A 
ATOM     29  C   UNL     1      -4.458  11.333  16.976  0.00  0.00    +0.000 A 
ATOM     30  C   UNL     1      -3.340  11.583  17.781  0.00  0.00    +0.000 A 
ATOM     31  C   UNL     1      -3.466  12.037  19.113  0.00  0.00    +0.000 A 
ENDBRANCH  21  22
ENDBRANCH  20  21
ENDBRANCH   7  20
TORSDOF 4
ENDMDL
MODEL 7
REMARK VINA RESULT:      -8.7      6.492      9.030
REMARK  Name = 
REMARK  4 active torsions:
REMARK  status: ('A' for Active; 'I' for Inactive)
REMARK    1  A    between atoms: C_2  and  C_21
REMARK    2  A    between atoms: C_7  and  S_8
REMARK    3  A    between atoms: S_8  and  C_9
REMARK    4  A    between atoms: C_9  and  C_10
REMARK                            x       y       z     vdW  Elec       q    Type
REMARK                         _______ _______ _______ _____ _____    ______ ____
ROOT
ATOM      1  O   UNL     1       2.223   4.956  19.706  0.00  0.00    +0.000 OA
ATOM      2  C   UNL     1       2.766   5.422  18.710  0.00  0.00    +0.000 C 
ATOM      3  N   UNL     1       2.618   6.718  18.252  0.00  0.00    +0.000 N 
ATOM      4  C   UNL     1       2.014   7.751  18.933  0.00  0.00    +0.000 A 
ATOM      5  N   UNL     1       1.680   8.890  18.365  0.00  0.00    +0.000 NA
ATOM      6  N   UNL     1       1.059   9.754  19.257  0.00  0.00    +0.000 NA
ATOM      7  C   UNL     1       1.008   9.252  20.472  0.00  0.00    +0.000 A 
ATOM      8  S   UNL     1       1.720   7.700  20.614  0.00  0.00    +0.000 S 
ATOM      9  H   UNL     1       2.908   6.939  17.308  0.00  0.00    +0.000 HD
ENDROOT
BRANCH   2  10
ATOM     10  C   UNL     1       3.600   4.533  17.764  0.00  0.00    +0.000 C 
ATOM     11  C   UNL     1       4.398   3.484  18.536  0.00  0.00    +0.000 C 
ATOM     12  O   UNL     1       5.395   4.088  19.370  0.00  0.00    +0.000 OA
ATOM     13  C   UNL     1       6.050   5.104  18.727  0.00  0.00    +0.000 A 
ATOM     14  C   UNL     1       7.197   5.596  19.347  0.00  0.00    +0.000 A 
ATOM     15  C   UNL     1       7.927   6.618  18.741  0.00  0.00    +0.000 A 
ATOM     16  C   UNL     1       7.512   7.144  17.516  0.00  0.00    +0.000 A 
ATOM     17  C   UNL     1       6.354   6.662  16.903  0.00  0.00    +0.000 A 
ATOM     18  C   UNL     1       5.613   5.658  17.520  0.00  0.00    +0.000 A 
ATOM     19  O   UNL     1       4.451   5.281  16.894  0.00  0.00    +0.000 OA
ENDBRANCH   2  10
BRANCH   7  20
ATOM     20  S   UNL     1       0.304  10.097  21.835  0.00  0.00    +0.000 S 
BRANCH  20  21
ATOM     21  C   UNL     1       0.039  11.746  21.120  0.00  0.00    +0.000 C 
BRANCH  21  22
ATOM     22  C   UNL     1      -1.411  11.982  20.724  0.00  0.00    +0.000 A 
ATOM     23  C   UNL     1      -1.790  11.708  19.394  0.00  0.00    +0.000 A 
ATOM     24  C   UNL     1      -3.086  11.948  18.952  0.00  0.00    +0.000 A 
ATOM     25  C   UNL     1      -4.035  12.461  19.830  0.00  0.00    +0.000 A 
ATOM     26  C   UNL     1      -3.707  12.719  21.169  0.00  0.00    +0.000 A 
ATOM     27  C   UNL     1      -4.691  13.217  22.039  0.00  0.00    +0.000 A 
ATOM     28  C   UNL     1      -4.401  13.468  23.378  0.00  0.00    +0.000 A 
ATOM     29  C   UNL     1      -3.123  13.228  23.862  0.00  0.00    +0.000 A 
ATOM     30  C   UNL     1      -2.131  12.740  23.004  0.00  0.00    +0.000 A 
ATOM     31  C   UNL     1      -2.389  12.475  21.640  0.00  0.00    +0.000 A 
ENDBRANCH  21  22
ENDBRANCH  20  21
ENDBRANCH   7  20
TORSDOF 4
ENDMDL
MODEL 8
REMARK VINA RESULT:      -8.7      1.989      2.390
REMARK  Name = 
REMARK  4 active torsions:
REMARK  status: ('A' for Active; 'I' for Inactive)
REMARK    1  A    between atoms: C_2  and  C_21
REMARK    2  A    between atoms: C_7  and  S_8
REMARK    3  A    between atoms: S_8  and  C_9
REMARK    4  A    between atoms: C_9  and  C_10
REMARK                            x       y       z     vdW  Elec       q    Type
REMARK                         _______ _______ _______ _____ _____    ______ ____
ROOT
ATOM      1  O   UNL     1       6.287   4.462  19.524  0.00  0.00    +0.000 OA
ATOM      2  C   UNL     1       5.796   4.398  18.402  0.00  0.00    +0.000 C 
ATOM      3  N   UNL     1       5.794   5.419  17.472  0.00  0.00    +0.000 N 
ATOM      4  C   UNL     1       6.508   6.593  17.559  0.00  0.00    +0.000 A 
ATOM      5  N   UNL     1       6.287   7.631  16.781  0.00  0.00    +0.000 NA
ATOM      6  N   UNL     1       7.118   8.699  17.089  0.00  0.00    +0.000 NA
ATOM      7  C   UNL     1       7.970   8.399  18.046  0.00  0.00    +0.000 A 
ATOM      8  S   UNL     1       7.825   6.794  18.627  0.00  0.00    +0.000 S 
ATOM      9  H   UNL     1       5.168   5.357  16.678  0.00  0.00    +0.000 HD
ENDROOT
BRANCH   2  10
ATOM     10  C   UNL     1       4.991   3.161  17.952  0.00  0.00    +0.000 C 
ATOM     11  C   UNL     1       3.923   3.529  16.924  0.00  0.00    +0.000 C 
ATOM     12  O   UNL     1       2.916   4.378  17.490  0.00  0.00    +0.000 OA
ATOM     13  C   UNL     1       2.543   3.962  18.740  0.00  0.00    +0.000 A 
ATOM     14  C   UNL     1       1.407   4.559  19.282  0.00  0.00    +0.000 A 
ATOM     15  C   UNL     1       0.955   4.172  20.543  0.00  0.00    +0.000 A 
ATOM     16  C   UNL     1       1.638   3.188  21.260  0.00  0.00    +0.000 A 
ATOM     17  C   UNL     1       2.786   2.601  20.723  0.00  0.00    +0.000 A 
ATOM     18  C   UNL     1       3.249   3.004  19.474  0.00  0.00    +0.000 A 
ATOM     19  O   UNL     1       4.420   2.434  19.041  0.00  0.00    +0.000 OA
ENDBRANCH   2  10
BRANCH   7  20
ATOM     20  S   UNL     1       9.168   9.521  18.657  0.00  0.00    +0.000 S 
BRANCH  20  21
ATOM     21  C   UNL     1       8.600  11.076  17.909  0.00  0.00    +0.000 C 
BRANCH  21  22
ATOM     22  C   UNL     1       9.674  12.153  17.921  0.00  0.00    +0.000 A 
ATOM     23  C   UNL     1      11.024  11.745  17.934  0.00  0.00    +0.000 A 
ATOM     24  C   UNL     1      12.055  12.676  17.995  0.00  0.00    +0.000 A 
ATOM     25  C   UNL     1      11.761  14.035  18.038  0.00  0.00    +0.000 A 
ATOM     26  C   UNL     1      10.433  14.483  17.996  0.00  0.00    +0.000 A 
ATOM     27  C   UNL     1      10.166  15.862  18.020  0.00  0.00    +0.000 A 
ATOM     28  C   UNL     1       8.859  16.340  17.962  0.00  0.00    +0.000 A 
ATOM     29  C   UNL     1       7.802  15.443  17.886  0.00  0.00    +0.000 A 
ATOM     30  C   UNL     1       8.053  14.066  17.871  0.00  0.00    +0.000 A 
ATOM     31  C   UNL     1       9.367  13.547  17.928  0.00  0.00    +0.000 A 
ENDBRANCH  21  22
ENDBRANCH  20  21
ENDBRANCH   7  20
TORSDOF 4
ENDMDL
MODEL 9
REMARK VINA RESULT:      -8.7      6.574      8.570
REMARK  Name = 
REMARK  4 active torsions:
REMARK  status: ('A' for Active; 'I' for Inactive)
REMARK    1  A    between atoms: C_2  and  C_21
REMARK    2  A    between atoms: C_7  and  S_8
REMARK    3  A    between atoms: S_8  and  C_9
REMARK    4  A    between atoms: C_9  and  C_10
REMARK                            x       y       z     vdW  Elec       q    Type
REMARK                         _______ _______ _______ _____ _____    ______ ____
ROOT
ATOM      1  O   UNL     1       2.306   4.975  19.295  0.00  0.00    +0.000 OA
ATOM      2  C   UNL     1       2.904   5.548  18.391  0.00  0.00    +0.000 C 
ATOM      3  N   UNL     1       2.786   6.889  18.080  0.00  0.00    +0.000 N 
ATOM      4  C   UNL     1       2.150   7.842  18.843  0.00  0.00    +0.000 A 
ATOM      5  N   UNL     1       1.851   9.042  18.395  0.00  0.00    +0.000 NA
ATOM      6  N   UNL     1       1.185   9.803  19.346  0.00  0.00    +0.000 NA
ATOM      7  C   UNL     1       1.066   9.164  20.490  0.00  0.00    +0.000 A 
ATOM      8  S   UNL     1       1.763   7.599  20.488  0.00  0.00    +0.000 S 
ATOM      9  H   UNL     1       3.129   7.216  17.185  0.00  0.00    +0.000 HD
ENDROOT
BRANCH   2  10
ATOM     10  C   UNL     1       3.787   4.767  17.395  0.00  0.00    +0.000 C 
ATOM     11  C   UNL     1       4.546   3.634  18.082  0.00  0.00    +0.000 C 
ATOM     12  O   UNL     1       5.498   4.136  19.029  0.00  0.00    +0.000 OA
ATOM     13  C   UNL     1       6.184   5.214  18.538  0.00  0.00    +0.000 A 
ATOM     14  C   UNL     1       7.297   5.628  19.267  0.00  0.00    +0.000 A 
ATOM     15  C   UNL     1       8.057   6.708  18.818  0.00  0.00    +0.000 A 
ATOM     16  C   UNL     1       7.704   7.371  17.640  0.00  0.00    +0.000 A 
ATOM     17  C   UNL     1       6.579   6.966  16.919  0.00  0.00    +0.000 A 
ATOM     18  C   UNL     1       5.809   5.903  17.381  0.00  0.00    +0.000 A 
ATOM     19  O   UNL     1       4.680   5.604  16.658  0.00  0.00    +0.000 OA
ENDBRANCH   2  10
BRANCH   7  20
ATOM     20  S   UNL     1       0.290   9.851  21.902  0.00  0.00    +0.000 S 
BRANCH  20  21
ATOM     21  C   UNL     1      -0.834  11.052  21.129  0.00  0.00    +0.000 C 
BRANCH  21  22
ATOM     22  C   UNL     1      -0.773  12.418  21.796  0.00  0.00    +0.000 A 
ATOM     23  C   UNL     1       0.278  13.286  21.436  0.00  0.00    +0.000 A 
ATOM     24  C   UNL     1       0.423  14.530  22.043  0.00  0.00    +0.000 A 
ATOM     25  C   UNL     1      -0.483  14.935  23.017  0.00  0.00    +0.000 A 
ATOM     26  C   UNL     1      -1.559  14.114  23.383  0.00  0.00    +0.000 A 
ATOM     27  C   UNL     1      -2.470  14.557  24.356  0.00  0.00    +0.000 A 
ATOM     28  C   UNL     1      -3.558  13.773  24.728  0.00  0.00    +0.000 A 
ATOM     29  C   UNL     1      -3.746  12.532  24.136  0.00  0.00    +0.000 A 
ATOM     30  C   UNL     1      -2.841  12.073  23.172  0.00  0.00    +0.000 A 
ATOM     31  C   UNL     1      -1.726  12.843  22.771  0.00  0.00    +0.000 A 
ENDBRANCH  21  22
ENDBRANCH  20  21
ENDBRANCH   7  20
TORSDOF 4
ENDMDL
