MODEL 1
REMARK VINA RESULT:      -8.6      0.000      0.000
REMARK  Name = 
REMARK  6 active torsions:
REMARK  status: ('A' for Active; 'I' for Inactive)
REMARK    1  A    between atoms: C_1  and  C_2
REMARK    2  A    between atoms: C_2  and  O_3
REMARK    3  A    between atoms: O_3  and  C_4
REMARK    4  A    between atoms: C_12  and  C_13
REMARK    5  A    between atoms: N_16  and  C_17
REMARK    6  A    between atoms: C_17  and  C_18
REMARK                            x       y       z     vdW  Elec       q    Type
REMARK                         _______ _______ _______ _____ _____    ______ ____
ROOT
ATOM      1  C   UNL     1      -3.872  10.729  15.646  0.00  0.00    +0.000 A 
ATOM      2  C   UNL     1      -4.443  11.630  16.571  0.00  0.00    +0.000 A 
ATOM      3  C   UNL     1      -3.837  11.877  17.808  0.00  0.00    +0.000 A 
ATOM      4  C   UNL     1      -2.663  11.208  18.079  0.00  0.00    +0.000 A 
ATOM      5  C   UNL     1      -2.087  10.322  17.173  0.00  0.00    +0.000 A 
ATOM      6  C   UNL     1      -2.674  10.069  15.951  0.00  0.00    +0.000 A 
ATOM      7  O   UNL     1      -0.919   9.759  17.633  0.00  0.00    +0.000 OA
ATOM      8  C   UNL     1      -0.714  10.299  18.901  0.00  0.00    +0.000 C 
ATOM      9  C   UNL     1       0.322  10.011  19.704  0.00  0.00    +0.000 C 
ATOM     10  C   UNL     1      -1.805  11.243  19.257  0.00  0.00    +0.000 C 
ATOM     11  O   UNL     1      -1.945  11.883  20.276  0.00  0.00    +0.000 OA
ENDROOT
BRANCH   9  12
ATOM     12  C   UNL     1       1.355   9.071  19.278  0.00  0.00    +0.000 A 
ATOM     13  C   UNL     1       1.957   9.211  18.031  0.00  0.00    +0.000 A 
ATOM     14  C   UNL     1       2.793   8.205  17.563  0.00  0.00    +0.000 A 
ATOM     15  N   UNL     1       3.027   7.097  18.304  0.00  0.00    +0.000 N 
ATOM     16  C   UNL     1       2.514   6.986  19.552  0.00  0.00    +0.000 A 
ATOM     17  C   UNL     1       1.664   7.962  20.060  0.00  0.00    +0.000 A 
BRANCH  15  18
ATOM     18  C   UNL     1       3.782   5.961  17.715  0.00  0.00    +0.000 C 
BRANCH  18  19
ATOM     19  C   UNL     1       5.245   6.056  18.041  0.00  0.00    +0.000 A 
ATOM     20  C   UNL     1       5.798   5.299  19.088  0.00  0.00    +0.000 A 
ATOM     21  C   UNL     1       7.147   5.438  19.430  0.00  0.00    +0.000 A 
ATOM     22  C   UNL     1       7.956   6.333  18.733  0.00  0.00    +0.000 A 
ATOM     23  C   UNL     1       7.418   7.061  17.682  0.00  0.00    +0.000 A 
ATOM     24  F   UNL     1       8.189   7.916  17.000  0.00  0.00    +0.000 F 
ATOM     25  C   UNL     1       6.080   6.927  17.325  0.00  0.00    +0.000 A 
ENDBRANCH  18  19
ENDBRANCH  15  18
ENDBRANCH   9  12
BRANCH   1  26
ATOM     26  O   UNL     1      -4.391  10.416  14.416  0.00  0.00    +0.000 OA
BRANCH  26  28
ATOM     27  C   UNL     1      -4.145   9.852  12.103  0.00  0.00    +0.000 C 
ATOM     28  C   UNL     1      -3.507   9.798  13.480  0.00  0.00    +0.000 C 
ENDBRANCH  26  28
ENDBRANCH   1  26
TORSDOF 5
ENDMDL
MODEL 2
REMARK VINA RESULT:      -8.6      2.383      3.018
REMARK  Name = 
REMARK  6 active torsions:
REMARK  status: ('A' for Active; 'I' for Inactive)
REMARK    1  A    between atoms: C_1  and  C_2
REMARK    2  A    between atoms: C_2  and  O_3
REMARK    3  A    between atoms: O_3  and  C_4
REMARK    4  A    between atoms: C_12  and  C_13
REMARK    5  A    between atoms: N_16  and  C_17
REMARK    6  A    between atoms: C_17  and  C_18
REMARK                            x       y       z     vdW  Elec       q    Type
REMARK                         _______ _______ _______ _____ _____    ______ ____
ROOT
ATOM      1  C   UNL     1      -3.749  10.607  15.786  0.00  0.00    +0.000 A 
ATOM      2  C   UNL     1      -4.260  11.536  16.719  0.00  0.00    +0.000 A 
ATOM      3  C   UNL     1      -3.597  11.787  17.925  0.00  0.00    +0.000 A 
ATOM      4  C   UNL     1      -2.430  11.093  18.159  0.00  0.00    +0.000 A 
ATOM      5  C   UNL     1      -1.914  10.179  17.245  0.00  0.00    +0.000 A 
ATOM      6  C   UNL     1      -2.557   9.922  16.052  0.00  0.00    +0.000 A 
ATOM      7  O   UNL     1      -0.742   9.594  17.666  0.00  0.00    +0.000 OA
ATOM      8  C   UNL     1      -0.471  10.147  18.916  0.00  0.00    +0.000 C 
ATOM      9  C   UNL     1       0.589   9.846  19.680  0.00  0.00    +0.000 C 
ATOM     10  C   UNL     1      -1.523  11.125  19.300  0.00  0.00    +0.000 C 
ATOM     11  O   UNL     1      -1.606  11.783  20.314  0.00  0.00    +0.000 OA
ENDROOT
BRANCH   9  12
ATOM     12  C   UNL     1       1.581   8.875  19.228  0.00  0.00    +0.000 A 
ATOM     13  C   UNL     1       2.160   9.000  17.968  0.00  0.00    +0.000 A 
ATOM     14  C   UNL     1       2.951   7.969  17.478  0.00  0.00    +0.000 A 
ATOM     15  N   UNL     1       3.164   6.850  18.209  0.00  0.00    +0.000 N 
ATOM     16  C   UNL     1       2.675   6.750  19.468  0.00  0.00    +0.000 A 
ATOM     17  C   UNL     1       1.870   7.752  19.998  0.00  0.00    +0.000 A 
BRANCH  15  18
ATOM     18  C   UNL     1       3.867   5.692  17.599  0.00  0.00    +0.000 C 
BRANCH  18  19
ATOM     19  C   UNL     1       3.389   4.395  18.189  0.00  0.00    +0.000 A 
ATOM     20  C   UNL     1       4.280   3.537  18.854  0.00  0.00    +0.000 A 
ATOM     21  C   UNL     1       3.845   2.303  19.345  0.00  0.00    +0.000 A 
ATOM     22  C   UNL     1       2.517   1.912  19.177  0.00  0.00    +0.000 A 
ATOM     23  C   UNL     1       1.630   2.770  18.544  0.00  0.00    +0.000 A 
ATOM     24  F   UNL     1       0.352   2.408  18.385  0.00  0.00    +0.000 F 
ATOM     25  C   UNL     1       2.048   4.005  18.057  0.00  0.00    +0.000 A 
ENDBRANCH  18  19
ENDBRANCH  15  18
ENDBRANCH   9  12
BRANCH   1  26
ATOM     26  O   UNL     1      -4.327  10.288  14.584  0.00  0.00    +0.000 OA
BRANCH  26  28
ATOM     27  C   UNL     1      -4.245   9.797  12.242  0.00  0.00    +0.000 C 
ATOM     28  C   UNL     1      -3.448   9.885  13.532  0.00  0.00    +0.000 C 
ENDBRANCH  26  28
ENDBRANCH   1  26
TORSDOF 5
ENDMDL
MODEL 3
REMARK VINA RESULT:      -8.5      2.434      3.232
REMARK  Name = 
REMARK  6 active torsions:
REMARK  status: ('A' for Active; 'I' for Inactive)
REMARK    1  A    between atoms: C_1  and  C_2
REMARK    2  A    between atoms: C_2  and  O_3
REMARK    3  A    between atoms: O_3  and  C_4
REMARK    4  A    between atoms: C_12  and  C_13
REMARK    5  A    between atoms: N_16  and  C_17
REMARK    6  A    between atoms: C_17  and  C_18
REMARK                            x       y       z     vdW  Elec       q    Type
REMARK                         _______ _______ _______ _____ _____    ______ ____
ROOT
ATOM      1  C   UNL     1      -3.913  10.233  15.279  0.00  0.00    +0.000 A 
ATOM      2  C   UNL     1      -4.489  11.295  16.010  0.00  0.00    +0.000 A 
ATOM      3  C   UNL     1      -3.906  11.755  17.196  0.00  0.00    +0.000 A 
ATOM      4  C   UNL     1      -2.750  11.132  17.613  0.00  0.00    +0.000 A 
ATOM      5  C   UNL     1      -2.170  10.088  16.899  0.00  0.00    +0.000 A 
ATOM      6  C   UNL     1      -2.734   9.624  15.728  0.00  0.00    +0.000 A 
ATOM      7  O   UNL     1      -1.022   9.603  17.482  0.00  0.00    +0.000 OA
ATOM      8  C   UNL     1      -0.835  10.362  18.636  0.00  0.00    +0.000 C 
ATOM      9  C   UNL     1       0.177  10.213  19.503  0.00  0.00    +0.000 C 
ATOM     10  C   UNL     1      -1.918  11.370  18.786  0.00  0.00    +0.000 C 
ATOM     11  O   UNL     1      -2.069  12.187  19.668  0.00  0.00    +0.000 OA
ENDROOT
BRANCH   9  12
ATOM     12  C   UNL     1       1.204   9.198  19.281  0.00  0.00    +0.000 A 
ATOM     13  C   UNL     1       1.828   9.094  18.041  0.00  0.00    +0.000 A 
ATOM     14  C   UNL     1       2.657   8.008  17.786  0.00  0.00    +0.000 A 
ATOM     15  N   UNL     1       2.862   7.057  18.727  0.00  0.00    +0.000 N 
ATOM     16  C   UNL     1       2.327   7.188  19.964  0.00  0.00    +0.000 A 
ATOM     17  C   UNL     1       1.483   8.252  20.263  0.00  0.00    +0.000 A 
BRANCH  15  18
ATOM     18  C   UNL     1       3.610   5.822  18.376  0.00  0.00    +0.000 C 
BRANCH  18  19
ATOM     19  C   UNL     1       2.869   4.594  18.825  0.00  0.00    +0.000 A 
ATOM     20  C   UNL     1       1.828   4.058  18.047  0.00  0.00    +0.000 A 
ATOM     21  C   UNL     1       1.099   2.954  18.499  0.00  0.00    +0.000 A 
ATOM     22  C   UNL     1       1.400   2.374  19.730  0.00  0.00    +0.000 A 
ATOM     23  C   UNL     1       2.445   2.885  20.486  0.00  0.00    +0.000 A 
ATOM     24  F   UNL     1       2.747   2.329  21.666  0.00  0.00    +0.000 F 
ATOM     25  C   UNL     1       3.184   3.979  20.046  0.00  0.00    +0.000 A 
ENDBRANCH  18  19
ENDBRANCH  15  18
ENDBRANCH   9  12
BRANCH   1  26
ATOM     26  O   UNL     1      -4.410   9.708  14.114  0.00  0.00    +0.000 OA
BRANCH  26  28
ATOM     27  C   UNL     1      -4.516   9.935  11.734  0.00  0.00    +0.000 C 
ATOM     28  C   UNL     1      -3.603   9.851  12.944  0.00  0.00    +0.000 C 
ENDBRANCH  26  28
ENDBRANCH   1  26
TORSDOF 5
ENDMDL
MODEL 4
REMARK VINA RESULT:      -8.3      2.095      2.859
REMARK  Name = 
REMARK  6 active torsions:
REMARK  status: ('A' for Active; 'I' for Inactive)
REMARK    1  A    between atoms: C_1  and  C_2
REMARK    2  A    between atoms: C_2  and  O_3
REMARK    3  A    between atoms: O_3  and  C_4
REMARK    4  A    between atoms: C_12  and  C_13
REMARK    5  A    between atoms: N_16  and  C_17
REMARK    6  A    between atoms: C_17  and  C_18
REMARK                            x       y       z     vdW  Elec       q    Type
REMARK                         _______ _______ _______ _____ _____    ______ ____
ROOT
ATOM      1  C   UNL     1      -3.749  10.552  15.760  0.00  0.00    +0.000 A 
ATOM      2  C   UNL     1      -4.133  11.581  16.648  0.00  0.00    +0.000 A 
ATOM      3  C   UNL     1      -3.393  11.851  17.804  0.00  0.00    +0.000 A 
ATOM      4  C   UNL     1      -2.276  11.075  18.033  0.00  0.00    +0.000 A 
ATOM      5  C   UNL     1      -1.885  10.063  17.163  0.00  0.00    +0.000 A 
ATOM      6  C   UNL     1      -2.606   9.785  16.020  0.00  0.00    +0.000 A 
ATOM      7  O   UNL     1      -0.746   9.407  17.570  0.00  0.00    +0.000 OA
ATOM      8  C   UNL     1      -0.368  10.015  18.766  0.00  0.00    +0.000 C 
ATOM      9  C   UNL     1       0.701   9.674  19.501  0.00  0.00    +0.000 C 
ATOM     10  C   UNL     1      -1.315  11.102  19.128  0.00  0.00    +0.000 C 
ATOM     11  O   UNL     1      -1.291  11.830  20.096  0.00  0.00    +0.000 OA
ENDROOT
BRANCH   9  12
ATOM     12  C   UNL     1       1.585   8.593  19.073  0.00  0.00    +0.000 A 
ATOM     13  C   UNL     1       1.840   7.520  19.921  0.00  0.00    +0.000 A 
ATOM     14  C   UNL     1       2.827   6.604  19.581  0.00  0.00    +0.000 A 
ATOM     15  N   UNL     1       3.538   6.743  18.437  0.00  0.00    +0.000 N 
ATOM     16  C   UNL     1       3.244   7.735  17.563  0.00  0.00    +0.000 A 
ATOM     17  C   UNL     1       2.271   8.681  17.865  0.00  0.00    +0.000 A 
BRANCH  15  18
ATOM     18  C   UNL     1       4.700   5.854  18.178  0.00  0.00    +0.000 C 
BRANCH  18  19
ATOM     19  C   UNL     1       4.312   4.407  18.296  0.00  0.00    +0.000 A 
ATOM     20  C   UNL     1       3.453   3.815  17.355  0.00  0.00    +0.000 A 
ATOM     21  C   UNL     1       3.044   2.486  17.504  0.00  0.00    +0.000 A 
ATOM     22  C   UNL     1       3.485   1.737  18.593  0.00  0.00    +0.000 A 
ATOM     23  C   UNL     1       4.354   2.312  19.508  0.00  0.00    +0.000 A 
ATOM     24  F   UNL     1       4.791   1.598  20.552  0.00  0.00    +0.000 F 
ATOM     25  C   UNL     1       4.776   3.631  19.368  0.00  0.00    +0.000 A 
ENDBRANCH  18  19
ENDBRANCH  15  18
ENDBRANCH   9  12
BRANCH   1  26
ATOM     26  O   UNL     1      -4.411  10.207  14.610  0.00  0.00    +0.000 OA
BRANCH  26  28
ATOM     27  C   UNL     1      -4.521   9.757  12.261  0.00  0.00    +0.000 C 
ATOM     28  C   UNL     1      -3.607   9.929  13.461  0.00  0.00    +0.000 C 
ENDBRANCH  26  28
ENDBRANCH   1  26
TORSDOF 5
ENDMDL
MODEL 5
REMARK VINA RESULT:      -8.1      0.905      1.219
REMARK  Name = 
REMARK  6 active torsions:
REMARK  status: ('A' for Active; 'I' for Inactive)
REMARK    1  A    between atoms: C_1  and  C_2
REMARK    2  A    between atoms: C_2  and  O_3
REMARK    3  A    between atoms: O_3  and  C_4
REMARK    4  A    between atoms: C_12  and  C_13
REMARK    5  A    between atoms: N_16  and  C_17
REMARK    6  A    between atoms: C_17  and  C_18
REMARK                            x       y       z     vdW  Elec       q    Type
REMARK                         _______ _______ _______ _____ _____    ______ ____
ROOT
ATOM      1  C   UNL     1      -3.689  10.414  15.661  0.00  0.00    +0.000 A 
ATOM      2  C   UNL     1      -4.145  11.493  16.449  0.00  0.00    +0.000 A 
ATOM      3  C   UNL     1      -3.490  11.852  17.632  0.00  0.00    +0.000 A 
ATOM      4  C   UNL     1      -2.383  11.111  17.988  0.00  0.00    +0.000 A 
ATOM      5  C   UNL     1      -1.921  10.049  17.218  0.00  0.00    +0.000 A 
ATOM      6  C   UNL     1      -2.559   9.684  16.050  0.00  0.00    +0.000 A 
ATOM      7  O   UNL     1      -0.806   9.440  17.745  0.00  0.00    +0.000 OA
ATOM      8  C   UNL     1      -0.518  10.133  18.920  0.00  0.00    +0.000 C 
ATOM      9  C   UNL     1       0.500   9.859  19.748  0.00  0.00    +0.000 C 
ATOM     10  C   UNL     1      -1.500  11.227  19.142  0.00  0.00    +0.000 C 
ATOM     11  O   UNL     1      -1.551  12.018  20.058  0.00  0.00    +0.000 OA
ENDROOT
BRANCH   9  12
ATOM     12  C   UNL     1       1.424   8.765  19.456  0.00  0.00    +0.000 A 
ATOM     13  C   UNL     1       2.037   8.682  18.210  0.00  0.00    +0.000 A 
ATOM     14  C   UNL     1       2.757   7.540  17.881  0.00  0.00    +0.000 A 
ATOM     15  N   UNL     1       2.866   6.513  18.757  0.00  0.00    +0.000 N 
ATOM     16  C   UNL     1       2.344   6.616  20.002  0.00  0.00    +0.000 A 
ATOM     17  C   UNL     1       1.608   7.735  20.373  0.00  0.00    +0.000 A 
BRANCH  15  18
ATOM     18  C   UNL     1       3.491   5.237  18.323  0.00  0.00    +0.000 C 
BRANCH  18  19
ATOM     19  C   UNL     1       4.809   5.482  17.644  0.00  0.00    +0.000 A 
ATOM     20  C   UNL     1       4.985   5.170  16.285  0.00  0.00    +0.000 A 
ATOM     21  C   UNL     1       6.231   5.340  15.674  0.00  0.00    +0.000 A 
ATOM     22  C   UNL     1       7.312   5.822  16.410  0.00  0.00    +0.000 A 
ATOM     23  C   UNL     1       7.131   6.156  17.744  0.00  0.00    +0.000 A 
ATOM     24  F   UNL     1       8.161   6.628  18.458  0.00  0.00    +0.000 F 
ATOM     25  C   UNL     1       5.896   5.999  18.364  0.00  0.00    +0.000 A 
ENDBRANCH  18  19
ENDBRANCH  15  18
ENDBRANCH   9  12
BRANCH   1  26
ATOM     26  O   UNL     1      -4.266   9.982  14.494  0.00  0.00    +0.000 OA
BRANCH  26  28
ATOM     27  C   UNL     1      -4.289   9.811  12.107  0.00  0.00    +0.000 C 
ATOM     28  C   UNL     1      -3.418   9.898  13.347  0.00  0.00    +0.000 C 
ENDBRANCH  26  28
ENDBRANCH   1  26
TORSDOF 5
ENDMDL
MODEL 6
REMARK VINA RESULT:      -8.1      2.366      3.483
REMARK  Name = 
REMARK  6 active torsions:
REMARK  status: ('A' for Active; 'I' for Inactive)
REMARK    1  A    between atoms: C_1  and  C_2
REMARK    2  A    between atoms: C_2  and  O_3
REMARK    3  A    between atoms: O_3  and  C_4
REMARK    4  A    between atoms: C_12  and  C_13
REMARK    5  A    between atoms: N_16  and  C_17
REMARK    6  A    between atoms: C_17  and  C_18
REMARK                            x       y       z     vdW  Elec       q    Type
REMARK                         _______ _______ _______ _____ _____    ______ ____
ROOT
ATOM      1  C   UNL     1      -2.187  11.774  19.308  0.00  0.00    +0.000 A 
ATOM      2  C   UNL     1      -1.998  12.364  20.578  0.00  0.00    +0.000 A 
ATOM      3  C   UNL     1      -1.122  11.801  21.513  0.00  0.00    +0.000 A 
ATOM      4  C   UNL     1      -0.453  10.655  21.139  0.00  0.00    +0.000 A 
ATOM      5  C   UNL     1      -0.627  10.068  19.890  0.00  0.00    +0.000 A 
ATOM      6  C   UNL     1      -1.487  10.612  18.959  0.00  0.00    +0.000 A 
ATOM      7  O   UNL     1       0.131   8.933  19.713  0.00  0.00    +0.000 OA
ATOM      8  C   UNL     1       0.837   8.763  20.903  0.00  0.00    +0.000 C 
ATOM      9  C   UNL     1       1.699   7.766  21.153  0.00  0.00    +0.000 C 
ATOM     10  C   UNL     1       0.507   9.840  21.873  0.00  0.00    +0.000 C 
ATOM     11  O   UNL     1       0.932   9.998  22.996  0.00  0.00    +0.000 OA
ENDROOT
BRANCH   9  12
ATOM     12  C   UNL     1       1.971   6.746  20.143  0.00  0.00    +0.000 A 
ATOM     13  C   UNL     1       1.730   5.404  20.421  0.00  0.00    +0.000 A 
ATOM     14  C   UNL     1       2.172   4.435  19.529  0.00  0.00    +0.000 A 
ATOM     15  N   UNL     1       2.829   4.782  18.398  0.00  0.00    +0.000 N 
ATOM     16  C   UNL     1       2.997   6.086  18.075  0.00  0.00    +0.000 A 
ATOM     17  C   UNL     1       2.581   7.091  18.941  0.00  0.00    +0.000 A 
BRANCH  15  18
ATOM     18  C   UNL     1       3.441   3.728  17.548  0.00  0.00    +0.000 C 
BRANCH  18  19
ATOM     19  C   UNL     1       4.866   4.065  17.209  0.00  0.00    +0.000 A 
ATOM     20  C   UNL     1       5.803   4.325  18.223  0.00  0.00    +0.000 A 
ATOM     21  C   UNL     1       7.111   4.701  17.902  0.00  0.00    +0.000 A 
ATOM     22  C   UNL     1       7.496   4.821  16.569  0.00  0.00    +0.000 A 
ATOM     23  C   UNL     1       6.580   4.538  15.567  0.00  0.00    +0.000 A 
ATOM     24  F   UNL     1       6.943   4.642  14.283  0.00  0.00    +0.000 F 
ATOM     25  C   UNL     1       5.277   4.156  15.871  0.00  0.00    +0.000 A 
ENDBRANCH  18  19
ENDBRANCH  15  18
ENDBRANCH   9  12
BRANCH   1  26
ATOM     26  O   UNL     1      -3.025  12.244  18.330  0.00  0.00    +0.000 OA
BRANCH  26  28
ATOM     27  C   UNL     1      -4.909  11.854  16.906  0.00  0.00    +0.000 C 
ATOM     28  C   UNL     1      -3.627  11.271  17.474  0.00  0.00    +0.000 C 
ENDBRANCH  26  28
ENDBRANCH   1  26
TORSDOF 5
ENDMDL
MODEL 7
REMARK VINA RESULT:      -8.1      1.975      3.052
REMARK  Name = 
REMARK  6 active torsions:
REMARK  status: ('A' for Active; 'I' for Inactive)
REMARK    1  A    between atoms: C_1  and  C_2
REMARK    2  A    between atoms: C_2  and  O_3
REMARK    3  A    between atoms: O_3  and  C_4
REMARK    4  A    between atoms: C_12  and  C_13
REMARK    5  A    between atoms: N_16  and  C_17
REMARK    6  A    between atoms: C_17  and  C_18
REMARK                            x       y       z     vdW  Elec       q    Type
REMARK                         _______ _______ _______ _____ _____    ______ ____
ROOT
ATOM      1  C   UNL     1      -2.399  11.607  18.464  0.00  0.00    +0.000 A 
ATOM      2  C   UNL     1      -2.239  12.411  19.614  0.00  0.00    +0.000 A 
ATOM      3  C   UNL     1      -1.345  12.052  20.629  0.00  0.00    +0.000 A 
ATOM      4  C   UNL     1      -0.629  10.887  20.454  0.00  0.00    +0.000 A 
ATOM      5  C   UNL     1      -0.774  10.089  19.324  0.00  0.00    +0.000 A 
ATOM      6  C   UNL     1      -1.652  10.432  18.316  0.00  0.00    +0.000 A 
ATOM      7  O   UNL     1       0.029   8.972  19.341  0.00  0.00    +0.000 OA
ATOM      8  C   UNL     1       0.737   9.035  20.540  0.00  0.00    +0.000 C 
ATOM      9  C   UNL     1       1.637   8.131  20.954  0.00  0.00    +0.000 C 
ATOM     10  C   UNL     1       0.359  10.248  21.314  0.00  0.00    +0.000 C 
ATOM     11  O   UNL     1       0.773  10.612  22.393  0.00  0.00    +0.000 OA
ENDROOT
BRANCH   9  12
ATOM     12  C   UNL     1       1.954   6.966  20.132  0.00  0.00    +0.000 A 
ATOM     13  C   UNL     1       1.880   5.687  20.674  0.00  0.00    +0.000 A 
ATOM     14  C   UNL     1       2.367   4.610  19.943  0.00  0.00    +0.000 A 
ATOM     15  N   UNL     1       2.909   4.793  18.716  0.00  0.00    +0.000 N 
ATOM     16  C   UNL     1       2.913   6.020  18.144  0.00  0.00    +0.000 A 
ATOM     17  C   UNL     1       2.445   7.129  18.840  0.00  0.00    +0.000 A 
BRANCH  15  18
ATOM     18  C   UNL     1       3.578   3.658  18.029  0.00  0.00    +0.000 C 
BRANCH  18  19
ATOM     19  C   UNL     1       4.927   4.061  17.504  0.00  0.00    +0.000 A 
ATOM     20  C   UNL     1       5.218   3.976  16.132  0.00  0.00    +0.000 A 
ATOM     21  C   UNL     1       6.494   4.292  15.656  0.00  0.00    +0.000 A 
ATOM     22  C   UNL     1       7.492   4.694  16.543  0.00  0.00    +0.000 A 
ATOM     23  C   UNL     1       7.197   4.804  17.894  0.00  0.00    +0.000 A 
ATOM     24  F   UNL     1       8.146   5.198  18.752  0.00  0.00    +0.000 F 
ATOM     25  C   UNL     1       5.930   4.501  18.381  0.00  0.00    +0.000 A 
ENDBRANCH  18  19
ENDBRANCH  15  18
ENDBRANCH   9  12
BRANCH   1  26
ATOM     26  O   UNL     1      -3.251  11.870  17.423  0.00  0.00    +0.000 OA
BRANCH  26  28
ATOM     27  C   UNL     1      -3.924  10.580  15.522  0.00  0.00    +0.000 C 
ATOM     28  C   UNL     1      -2.832  11.447  16.124  0.00  0.00    +0.000 C 
ENDBRANCH  26  28
ENDBRANCH   1  26
TORSDOF 5
ENDMDL
MODEL 8
REMARK VINA RESULT:      -7.9      3.885      9.068
REMARK  Name = 
REMARK  6 active torsions:
REMARK  status: ('A' for Active; 'I' for Inactive)
REMARK    1  A    between atoms: C_1  and  C_2
REMARK    2  A    between atoms: C_2  and  O_3
REMARK    3  A    between atoms: O_3  and  C_4
REMARK    4  A    between atoms: C_12  and  C_13
REMARK    5  A    between atoms: N_16  and  C_17
REMARK    6  A    between atoms: C_17  and  C_18
REMARK                            x       y       z     vdW  Elec       q    Type
REMARK                         _______ _______ _______ _____ _____    ______ ____
ROOT
ATOM      1  C   UNL     1       5.843   5.208  15.491  0.00  0.00    +0.000 A 
ATOM      2  C   UNL     1       5.929   3.985  16.193  0.00  0.00    +0.000 A 
ATOM      3  C   UNL     1       5.232   3.788  17.390  0.00  0.00    +0.000 A 
ATOM      4  C   UNL     1       4.461   4.834  17.849  0.00  0.00    +0.000 A 
ATOM      5  C   UNL     1       4.364   6.042  17.164  0.00  0.00    +0.000 A 
ATOM      6  C   UNL     1       5.045   6.249  15.983  0.00  0.00    +0.000 A 
ATOM      7  O   UNL     1       3.544   6.955  17.787  0.00  0.00    +0.000 OA
ATOM      8  C   UNL     1       3.078   6.320  18.937  0.00  0.00    +0.000 C 
ATOM      9  C   UNL     1       2.245   6.865  19.836  0.00  0.00    +0.000 C 
ATOM     10  C   UNL     1       3.633   4.945  19.043  0.00  0.00    +0.000 C 
ATOM     11  O   UNL     1       3.442   4.121  19.911  0.00  0.00    +0.000 OA
ENDROOT
BRANCH   9  12
ATOM     12  C   UNL     1       1.743   8.225  19.656  0.00  0.00    +0.000 A 
ATOM     13  C   UNL     1       0.937   8.807  20.630  0.00  0.00    +0.000 A 
ATOM     14  C   UNL     1       0.312  10.019  20.360  0.00  0.00    +0.000 A 
ATOM     15  N   UNL     1       0.480  10.634  19.166  0.00  0.00    +0.000 N 
ATOM     16  C   UNL     1       1.326  10.120  18.242  0.00  0.00    +0.000 A 
ATOM     17  C   UNL     1       1.966   8.906  18.464  0.00  0.00    +0.000 A 
BRANCH  15  18
ATOM     18  C   UNL     1      -0.330  11.835  18.835  0.00  0.00    +0.000 C 
BRANCH  18  19
ATOM     19  C   UNL     1      -1.700  11.448  18.352  0.00  0.00    +0.000 A 
ATOM     20  C   UNL     1      -2.852  11.946  18.983  0.00  0.00    +0.000 A 
ATOM     21  C   UNL     1      -4.122  11.534  18.571  0.00  0.00    +0.000 A 
ATOM     22  C   UNL     1      -4.257  10.621  17.527  0.00  0.00    +0.000 A 
ATOM     23  C   UNL     1      -3.121  10.149  16.885  0.00  0.00    +0.000 A 
ATOM     24  F   UNL     1      -3.240   9.279  15.875  0.00  0.00    +0.000 F 
ATOM     25  C   UNL     1      -1.851  10.557  17.279  0.00  0.00    +0.000 A 
ENDBRANCH  18  19
ENDBRANCH  15  18
ENDBRANCH   9  12
BRANCH   1  26
ATOM     26  O   UNL     1       6.491   5.499  14.318  0.00  0.00    +0.000 OA
BRANCH  26  28
ATOM     27  C   UNL     1       6.254   3.788  12.661  0.00  0.00    +0.000 C 
ATOM     28  C   UNL     1       7.183   4.424  13.679  0.00  0.00    +0.000 C 
ENDBRANCH  26  28
ENDBRANCH   1  26
TORSDOF 5
ENDMDL
MODEL 9
REMARK VINA RESULT:      -7.9      2.052      2.849
REMARK  Name = 
REMARK  6 active torsions:
REMARK  status: ('A' for Active; 'I' for Inactive)
REMARK    1  A    between atoms: C_1  and  C_2
REMARK    2  A    between atoms: C_2  and  O_3
REMARK    3  A    between atoms: O_3  and  C_4
REMARK    4  A    between atoms: C_12  and  C_13
REMARK    5  A    between atoms: N_16  and  C_17
REMARK    6  A    between atoms: C_17  and  C_18
REMARK                            x       y       z     vdW  Elec       q    Type
REMARK                         _______ _______ _______ _____ _____    ______ ____
ROOT
ATOM      1  C   UNL     1      -2.268  11.399  17.419  0.00  0.00    +0.000 A 
ATOM      2  C   UNL     1      -2.173  12.376  18.434  0.00  0.00    +0.000 A 
ATOM      3  C   UNL     1      -1.312  12.205  19.524  0.00  0.00    +0.000 A 
ATOM      4  C   UNL     1      -0.563  11.048  19.559  0.00  0.00    +0.000 A 
ATOM      5  C   UNL     1      -0.643  10.081  18.562  0.00  0.00    +0.000 A 
ATOM      6  C   UNL     1      -1.488  10.237  17.483  0.00  0.00    +0.000 A 
ATOM      7  O   UNL     1       0.184   9.004  18.783  0.00  0.00    +0.000 OA
ATOM      8  C   UNL     1       0.842   9.273  19.982  0.00  0.00    +0.000 C 
ATOM      9  C   UNL     1       1.745   8.470  20.564  0.00  0.00    +0.000 C 
ATOM     10  C   UNL     1       0.405  10.579  20.542  0.00  0.00    +0.000 C 
ATOM     11  O   UNL     1       0.767  11.118  21.565  0.00  0.00    +0.000 OA
ENDROOT
BRANCH   9  12
ATOM     12  C   UNL     1       2.121   7.202  19.945  0.00  0.00    +0.000 A 
ATOM     13  C   UNL     1       1.974   6.010  20.648  0.00  0.00    +0.000 A 
ATOM     14  C   UNL     1       2.512   4.840  20.125  0.00  0.00    +0.000 A 
ATOM     15  N   UNL     1       3.174   4.850  18.945  0.00  0.00    +0.000 N 
ATOM     16  C   UNL     1       3.253   5.986  18.211  0.00  0.00    +0.000 A 
ATOM     17  C   UNL     1       2.738   7.182  18.698  0.00  0.00    +0.000 A 
BRANCH  15  18
ATOM     18  C   UNL     1       3.888   3.628  18.490  0.00  0.00    +0.000 C 
BRANCH  18  19
ATOM     19  C   UNL     1       5.005   3.974  17.546  0.00  0.00    +0.000 A 
ATOM     20  C   UNL     1       6.232   4.456  18.031  0.00  0.00    +0.000 A 
ATOM     21  C   UNL     1       7.246   4.836  17.146  0.00  0.00    +0.000 A 
ATOM     22  C   UNL     1       7.045   4.741  15.770  0.00  0.00    +0.000 A 
ATOM     23  C   UNL     1       5.844   4.240  15.291  0.00  0.00    +0.000 A 
ATOM     24  F   UNL     1       5.645   4.136  13.971  0.00  0.00    +0.000 F 
ATOM     25  C   UNL     1       4.829   3.850  16.159  0.00  0.00    +0.000 A 
ENDBRANCH  18  19
ENDBRANCH  15  18
ENDBRANCH   9  12
BRANCH   1  26
ATOM     26  O   UNL     1      -3.084  11.471  16.319  0.00  0.00    +0.000 OA
BRANCH  26  28
ATOM     27  C   UNL     1      -3.184  10.236  14.272  0.00  0.00    +0.000 C 
ATOM     28  C   UNL     1      -3.516  10.233  15.753  0.00  0.00    +0.000 C 
ENDBRANCH  26  28
ENDBRANCH   1  26
TORSDOF 5
ENDMDL
