MODEL 1
REMARK VINA RESULT:      -6.1      0.000      0.000
REMARK  Name = 
REMARK  9 active torsions:
REMARK  status: ('A' for Active; 'I' for Inactive)
REMARK    1  A    between atoms: C_2  and  O_3
REMARK    2  A    between atoms: C_2  and  C_4
REMARK    3  A    between atoms: C_4  and  C_5
REMARK    4  A    between atoms: C_5  and  C_6
REMARK    5  A    between atoms: C_6  and  C_7
REMARK    6  A    between atoms: C_7  and  C_8
REMARK    7  A    between atoms: C_8  and  O_9
REMARK    8  A    between atoms: O_9  and  N_10
REMARK    9  A    between atoms: N_13  and  C_14
REMARK                            x       y       z     vdW  Elec       q    Type
REMARK                         _______ _______ _______ _____ _____    ______ ____
ROOT
ATOM      1  N   UNL     1       5.367   3.647  18.949  0.00  0.00    +0.000 N 
ATOM      2  C   UNL     1       5.054   4.981  19.015  0.00  0.00    +0.000 C 
ATOM      3  O   UNL     1       5.944   5.822  18.962  0.00  0.00    +0.000 OA
ATOM      4  N   UNL     1       3.704   5.212  19.134  0.00  0.00    +0.000 N 
ATOM      5  H   UNL     1       6.310   3.384  19.212  0.00  0.00    +0.000 HD
ATOM      6  H   UNL     1       3.199   4.406  19.472  0.00  0.00    +0.000 HD
ENDROOT
BRANCH   4   7
ATOM      7  C   UNL     1       3.039   6.443  19.057  0.00  0.00    +0.000 A 
ATOM      8  C   UNL     1       2.291   6.962  20.113  0.00  0.00    +0.000 A 
ATOM      9  C   UNL     1       1.640   8.190  19.979  0.00  0.00    +0.000 A 
ATOM     10  C   UNL     1       1.737   8.905  18.787  0.00  0.00    +0.000 A 
ATOM     11  C   UNL     1       2.502   8.404  17.736  0.00  0.00    +0.000 A 
ATOM     12  C   UNL     1       3.165   7.182  17.875  0.00  0.00    +0.000 A 
ENDBRANCH   4   7
BRANCH   1  13
ATOM     13  O   UNL     1       4.343   2.698  19.151  0.00  0.00    +0.000 OA
BRANCH  13  14
ATOM     14  C   UNL     1       4.030   2.115  17.878  0.00  0.00    +0.000 C 
BRANCH  14  15
ATOM     15  C   UNL     1       2.516   2.103  17.698  0.00  0.00    +0.000 C 
BRANCH  15  16
ATOM     16  C   UNL     1       1.782   1.894  19.026  0.00  0.00    +0.000 C 
BRANCH  16  17
ATOM     17  C   UNL     1       0.622   2.876  19.184  0.00  0.00    +0.000 C 
BRANCH  17  18
ATOM     18  C   UNL     1       0.804   3.753  20.422  0.00  0.00    +0.000 C 
BRANCH  18  20
ATOM     19  O   UNL     1       1.347   2.281  22.282  0.00  0.00    +0.000 OA
ATOM     20  C   UNL     1       1.702   3.100  21.447  0.00  0.00    +0.000 C 
BRANCH  20  21
ATOM     21  O   UNL     1       2.984   3.523  21.350  0.00  0.00    +0.000 OA
ATOM     22  H   UNL     1       3.631   2.800  21.247  0.00  0.00    +0.000 HD
ENDBRANCH  20  21
ENDBRANCH  18  20
ENDBRANCH  17  18
ENDBRANCH  16  17
ENDBRANCH  15  16
ENDBRANCH  14  15
ENDBRANCH  13  14
ENDBRANCH   1  13
TORSDOF 9
ENDMDL
MODEL 2
REMARK VINA RESULT:      -6.1      2.596      4.386
REMARK  Name = 
REMARK  9 active torsions:
REMARK  status: ('A' for Active; 'I' for Inactive)
REMARK    1  A    between atoms: C_2  and  O_3
REMARK    2  A    between atoms: C_2  and  C_4
REMARK    3  A    between atoms: C_4  and  C_5
REMARK    4  A    between atoms: C_5  and  C_6
REMARK    5  A    between atoms: C_6  and  C_7
REMARK    6  A    between atoms: C_7  and  C_8
REMARK    7  A    between atoms: C_8  and  O_9
REMARK    8  A    between atoms: O_9  and  N_10
REMARK    9  A    between atoms: N_13  and  C_14
REMARK                            x       y       z     vdW  Elec       q    Type
REMARK                         _______ _______ _______ _____ _____    ______ ____
ROOT
ATOM      1  N   UNL     1       4.064   4.895  19.887  0.00  0.00    +0.000 N 
ATOM      2  C   UNL     1       5.060   4.707  18.964  0.00  0.00    +0.000 C 
ATOM      3  O   UNL     1       6.109   4.166  19.296  0.00  0.00    +0.000 OA
ATOM      4  N   UNL     1       4.731   5.173  17.713  0.00  0.00    +0.000 N 
ATOM      5  H   UNL     1       4.340   4.913  20.862  0.00  0.00    +0.000 HD
ATOM      6  H   UNL     1       3.980   5.847  17.733  0.00  0.00    +0.000 HD
ENDROOT
BRANCH   4   7
ATOM      7  C   UNL     1       5.441   4.988  16.519  0.00  0.00    +0.000 A 
ATOM      8  C   UNL     1       4.948   4.228  15.460  0.00  0.00    +0.000 A 
ATOM      9  C   UNL     1       5.702   4.068  14.296  0.00  0.00    +0.000 A 
ATOM     10  C   UNL     1       6.953   4.671  14.186  0.00  0.00    +0.000 A 
ATOM     11  C   UNL     1       7.442   5.452  15.231  0.00  0.00    +0.000 A 
ATOM     12  C   UNL     1       6.682   5.623  16.390  0.00  0.00    +0.000 A 
ENDBRANCH   4   7
BRANCH   1  13
ATOM     13  O   UNL     1       2.925   5.642  19.516  0.00  0.00    +0.000 OA
BRANCH  13  14
ATOM     14  C   UNL     1       1.927   5.448  20.528  0.00  0.00    +0.000 C 
BRANCH  14  15
ATOM     15  C   UNL     1       2.325   4.258  21.393  0.00  0.00    +0.000 C 
BRANCH  15  16
ATOM     16  C   UNL     1       1.452   3.029  21.117  0.00  0.00    +0.000 C 
BRANCH  16  17
ATOM     17  C   UNL     1       0.543   3.250  19.908  0.00  0.00    +0.000 C 
BRANCH  17  18
ATOM     18  C   UNL     1       0.781   2.188  18.836  0.00  0.00    +0.000 C 
BRANCH  18  20
ATOM     19  O   UNL     1       2.129   3.409  17.218  0.00  0.00    +0.000 OA
ATOM     20  C   UNL     1       2.012   2.486  18.011  0.00  0.00    +0.000 C 
BRANCH  20  21
ATOM     21  O   UNL     1       3.012   1.602  18.243  0.00  0.00    +0.000 OA
ATOM     22  H   UNL     1       2.731   0.811  18.739  0.00  0.00    +0.000 HD
ENDBRANCH  20  21
ENDBRANCH  18  20
ENDBRANCH  17  18
ENDBRANCH  16  17
ENDBRANCH  15  16
ENDBRANCH  14  15
ENDBRANCH  13  14
ENDBRANCH   1  13
TORSDOF 9
ENDMDL
MODEL 3
REMARK VINA RESULT:      -6.1      2.323      4.241
REMARK  Name = 
REMARK  9 active torsions:
REMARK  status: ('A' for Active; 'I' for Inactive)
REMARK    1  A    between atoms: C_2  and  O_3
REMARK    2  A    between atoms: C_2  and  C_4
REMARK    3  A    between atoms: C_4  and  C_5
REMARK    4  A    between atoms: C_5  and  C_6
REMARK    5  A    between atoms: C_6  and  C_7
REMARK    6  A    between atoms: C_7  and  C_8
REMARK    7  A    between atoms: C_8  and  O_9
REMARK    8  A    between atoms: O_9  and  N_10
REMARK    9  A    between atoms: N_13  and  C_14
REMARK                            x       y       z     vdW  Elec       q    Type
REMARK                         _______ _______ _______ _____ _____    ______ ____
ROOT
ATOM      1  N   UNL     1       3.027   6.341  19.652  0.00  0.00    +0.000 N 
ATOM      2  C   UNL     1       3.588   6.370  18.401  0.00  0.00    +0.000 C 
ATOM      3  O   UNL     1       3.330   7.291  17.634  0.00  0.00    +0.000 OA
ATOM      4  N   UNL     1       4.420   5.302  18.159  0.00  0.00    +0.000 N 
ATOM      5  H   UNL     1       2.167   6.862  19.780  0.00  0.00    +0.000 HD
ATOM      6  H   UNL     1       4.245   4.524  18.778  0.00  0.00    +0.000 HD
ENDROOT
BRANCH   4   7
ATOM      7  C   UNL     1       5.273   5.117  17.064  0.00  0.00    +0.000 A 
ATOM      8  C   UNL     1       6.588   5.582  17.045  0.00  0.00    +0.000 A 
ATOM      9  C   UNL     1       7.393   5.378  15.923  0.00  0.00    +0.000 A 
ATOM     10  C   UNL     1       6.886   4.705  14.814  0.00  0.00    +0.000 A 
ATOM     11  C   UNL     1       5.581   4.217  14.833  0.00  0.00    +0.000 A 
ATOM     12  C   UNL     1       4.780   4.408  15.961  0.00  0.00    +0.000 A 
ENDBRANCH   4   7
BRANCH   1  13
ATOM     13  O   UNL     1       3.230   5.203  20.462  0.00  0.00    +0.000 OA
BRANCH  13  14
ATOM     14  C   UNL     1       1.969   4.860  21.056  0.00  0.00    +0.000 C 
BRANCH  14  15
ATOM     15  C   UNL     1       1.077   4.231  19.992  0.00  0.00    +0.000 C 
BRANCH  15  16
ATOM     16  C   UNL     1       0.977   2.711  20.151  0.00  0.00    +0.000 C 
BRANCH  16  17
ATOM     17  C   UNL     1       1.177   1.995  18.815  0.00  0.00    +0.000 C 
BRANCH  17  18
ATOM     18  C   UNL     1       2.446   2.478  18.113  0.00  0.00    +0.000 C 
BRANCH  18  20
ATOM     19  O   UNL     1       4.416   2.468  19.541  0.00  0.00    +0.000 OA
ATOM     20  C   UNL     1       3.692   1.896  18.739  0.00  0.00    +0.000 C 
BRANCH  20  21
ATOM     21  O   UNL     1       3.941   0.636  18.312  0.00  0.00    +0.000 OA
ATOM     22  H   UNL     1       4.149   0.010  19.031  0.00  0.00    +0.000 HD
ENDBRANCH  20  21
ENDBRANCH  18  20
ENDBRANCH  17  18
ENDBRANCH  16  17
ENDBRANCH  15  16
ENDBRANCH  14  15
ENDBRANCH  13  14
ENDBRANCH   1  13
TORSDOF 9
ENDMDL
MODEL 4
REMARK VINA RESULT:      -6.1      2.733      4.548
REMARK  Name = 
REMARK  9 active torsions:
REMARK  status: ('A' for Active; 'I' for Inactive)
REMARK    1  A    between atoms: C_2  and  O_3
REMARK    2  A    between atoms: C_2  and  C_4
REMARK    3  A    between atoms: C_4  and  C_5
REMARK    4  A    between atoms: C_5  and  C_6
REMARK    5  A    between atoms: C_6  and  C_7
REMARK    6  A    between atoms: C_7  and  C_8
REMARK    7  A    between atoms: C_8  and  O_9
REMARK    8  A    between atoms: O_9  and  N_10
REMARK    9  A    between atoms: N_13  and  C_14
REMARK                            x       y       z     vdW  Elec       q    Type
REMARK                         _______ _______ _______ _____ _____    ______ ____
ROOT
ATOM      1  N   UNL     1       4.217   5.161  19.669  0.00  0.00    +0.000 N 
ATOM      2  C   UNL     1       5.158   4.794  18.741  0.00  0.00    +0.000 C 
ATOM      3  O   UNL     1       6.067   4.034  19.057  0.00  0.00    +0.000 OA
ATOM      4  N   UNL     1       4.941   5.354  17.504  0.00  0.00    +0.000 N 
ATOM      5  H   UNL     1       4.485   5.093  20.644  0.00  0.00    +0.000 HD
ATOM      6  H   UNL     1       4.349   6.170  17.544  0.00  0.00    +0.000 HD
ENDROOT
BRANCH   4   7
ATOM      7  C   UNL     1       5.604   5.058  16.306  0.00  0.00    +0.000 A 
ATOM      8  C   UNL     1       6.936   5.404  16.076  0.00  0.00    +0.000 A 
ATOM      9  C   UNL     1       7.546   5.094  14.860  0.00  0.00    +0.000 A 
ATOM     10  C   UNL     1       6.826   4.433  13.867  0.00  0.00    +0.000 A 
ATOM     11  C   UNL     1       5.503   4.063  14.097  0.00  0.00    +0.000 A 
ATOM     12  C   UNL     1       4.897   4.360  15.319  0.00  0.00    +0.000 A 
ENDBRANCH   4   7
BRANCH   1  13
ATOM     13  O   UNL     1       3.264   6.141  19.319  0.00  0.00    +0.000 OA
BRANCH  13  14
ATOM     14  C   UNL     1       2.084   5.901  20.100  0.00  0.00    +0.000 C 
BRANCH  14  15
ATOM     15  C   UNL     1       2.299   4.651  20.946  0.00  0.00    +0.000 C 
BRANCH  15  16
ATOM     16  C   UNL     1       1.096   3.704  20.889  0.00  0.00    +0.000 C 
BRANCH  16  17
ATOM     17  C   UNL     1       1.469   2.365  20.254  0.00  0.00    +0.000 C 
BRANCH  17  18
ATOM     18  C   UNL     1       1.019   2.301  18.795  0.00  0.00    +0.000 C 
BRANCH  18  20
ATOM     19  O   UNL     1       2.222   3.589  17.117  0.00  0.00    +0.000 OA
ATOM     20  C   UNL     1       2.151   2.606  17.842  0.00  0.00    +0.000 C 
BRANCH  20  21
ATOM     21  O   UNL     1       3.114   1.656  17.866  0.00  0.00    +0.000 OA
ATOM     22  H   UNL     1       3.963   1.945  17.481  0.00  0.00    +0.000 HD
ENDBRANCH  20  21
ENDBRANCH  18  20
ENDBRANCH  17  18
ENDBRANCH  16  17
ENDBRANCH  15  16
ENDBRANCH  14  15
ENDBRANCH  13  14
ENDBRANCH   1  13
TORSDOF 9
ENDMDL
MODEL 5
REMARK VINA RESULT:      -6.1      4.074      6.447
REMARK  Name = 
REMARK  9 active torsions:
REMARK  status: ('A' for Active; 'I' for Inactive)
REMARK    1  A    between atoms: C_2  and  O_3
REMARK    2  A    between atoms: C_2  and  C_4
REMARK    3  A    between atoms: C_4  and  C_5
REMARK    4  A    between atoms: C_5  and  C_6
REMARK    5  A    between atoms: C_6  and  C_7
REMARK    6  A    between atoms: C_7  and  C_8
REMARK    7  A    between atoms: C_8  and  O_9
REMARK    8  A    between atoms: O_9  and  N_10
REMARK    9  A    between atoms: N_13  and  C_14
REMARK                            x       y       z     vdW  Elec       q    Type
REMARK                         _______ _______ _______ _____ _____    ______ ____
ROOT
ATOM      1  N   UNL     1       6.980   4.804  18.014  0.00  0.00    +0.000 N 
ATOM      2  C   UNL     1       5.847   4.437  18.696  0.00  0.00    +0.000 C 
ATOM      3  O   UNL     1       5.715   4.745  19.875  0.00  0.00    +0.000 OA
ATOM      4  N   UNL     1       4.954   3.738  17.919  0.00  0.00    +0.000 N 
ATOM      5  H   UNL     1       7.806   4.995  18.569  0.00  0.00    +0.000 HD
ATOM      6  H   UNL     1       5.384   3.330  17.102  0.00  0.00    +0.000 HD
ENDROOT
BRANCH   4   7
ATOM      7  C   UNL     1       3.644   3.367  18.250  0.00  0.00    +0.000 A 
ATOM      8  C   UNL     1       3.349   2.224  18.992  0.00  0.00    +0.000 A 
ATOM      9  C   UNL     1       2.024   1.896  19.285  0.00  0.00    +0.000 A 
ATOM     10  C   UNL     1       0.987   2.712  18.838  0.00  0.00    +0.000 A 
ATOM     11  C   UNL     1       1.275   3.868  18.116  0.00  0.00    +0.000 A 
ATOM     12  C   UNL     1       2.601   4.205  17.834  0.00  0.00    +0.000 A 
ENDBRANCH   4   7
BRANCH   1  13
ATOM     13  O   UNL     1       7.169   4.321  16.702  0.00  0.00    +0.000 OA
BRANCH  13  14
ATOM     14  C   UNL     1       7.111   5.445  15.811  0.00  0.00    +0.000 C 
BRANCH  14  15
ATOM     15  C   UNL     1       5.758   5.450  15.110  0.00  0.00    +0.000 C 
BRANCH  15  16
ATOM     16  C   UNL     1       5.557   4.208  14.237  0.00  0.00    +0.000 C 
BRANCH  16  17
ATOM     17  C   UNL     1       6.783   3.931  13.369  0.00  0.00    +0.000 C 
BRANCH  17  18
ATOM     18  C   UNL     1       6.404   3.838  11.891  0.00  0.00    +0.000 C 
BRANCH  18  20
ATOM     19  O   UNL     1       4.165   3.009  11.424  0.00  0.00    +0.000 OA
ATOM     20  C   UNL     1       5.347   2.788  11.645  0.00  0.00    +0.000 C 
BRANCH  20  21
ATOM     21  O   UNL     1       5.849   1.531  11.693  0.00  0.00    +0.000 OA
ATOM     22  H   UNL     1       6.345   1.336  12.510  0.00  0.00    +0.000 HD
ENDBRANCH  20  21
ENDBRANCH  18  20
ENDBRANCH  17  18
ENDBRANCH  16  17
ENDBRANCH  15  16
ENDBRANCH  14  15
ENDBRANCH  13  14
ENDBRANCH   1  13
TORSDOF 9
ENDMDL
MODEL 6
REMARK VINA RESULT:      -6.0      2.361      4.716
REMARK  Name = 
REMARK  9 active torsions:
REMARK  status: ('A' for Active; 'I' for Inactive)
REMARK    1  A    between atoms: C_2  and  O_3
REMARK    2  A    between atoms: C_2  and  C_4
REMARK    3  A    between atoms: C_4  and  C_5
REMARK    4  A    between atoms: C_5  and  C_6
REMARK    5  A    between atoms: C_6  and  C_7
REMARK    6  A    between atoms: C_7  and  C_8
REMARK    7  A    between atoms: C_8  and  O_9
REMARK    8  A    between atoms: O_9  and  N_10
REMARK    9  A    between atoms: N_13  and  C_14
REMARK                            x       y       z     vdW  Elec       q    Type
REMARK                         _______ _______ _______ _____ _____    ______ ____
ROOT
ATOM      1  N   UNL     1       5.496   3.532  17.248  0.00  0.00    +0.000 N 
ATOM      2  C   UNL     1       4.770   3.879  18.359  0.00  0.00    +0.000 C 
ATOM      3  O   UNL     1       5.079   3.430  19.458  0.00  0.00    +0.000 OA
ATOM      4  N   UNL     1       3.735   4.740  18.080  0.00  0.00    +0.000 N 
ATOM      5  H   UNL     1       6.021   2.667  17.297  0.00  0.00    +0.000 HD
ATOM      6  H   UNL     1       3.471   4.728  17.106  0.00  0.00    +0.000 HD
ENDROOT
BRANCH   4   7
ATOM      7  C   UNL     1       2.917   5.415  18.995  0.00  0.00    +0.000 A 
ATOM      8  C   UNL     1       2.147   4.751  19.949  0.00  0.00    +0.000 A 
ATOM      9  C   UNL     1       1.340   5.472  20.831  0.00  0.00    +0.000 A 
ATOM     10  C   UNL     1       1.301   6.863  20.763  0.00  0.00    +0.000 A 
ATOM     11  C   UNL     1       2.085   7.535  19.828  0.00  0.00    +0.000 A 
ATOM     12  C   UNL     1       2.903   6.814  18.955  0.00  0.00    +0.000 A 
ENDBRANCH   4   7
BRANCH   1  13
ATOM     13  O   UNL     1       5.039   3.951  15.981  0.00  0.00    +0.000 OA
BRANCH  13  14
ATOM     14  C   UNL     1       5.910   4.997  15.526  0.00  0.00    +0.000 C 
BRANCH  14  15
ATOM     15  C   UNL     1       5.217   6.339  15.729  0.00  0.00    +0.000 C 
BRANCH  15  16
ATOM     16  C   UNL     1       5.930   7.202  16.774  0.00  0.00    +0.000 C 
BRANCH  16  17
ATOM     17  C   UNL     1       7.346   6.696  17.045  0.00  0.00    +0.000 C 
BRANCH  17  18
ATOM     18  C   UNL     1       7.689   6.779  18.532  0.00  0.00    +0.000 C 
BRANCH  18  20
ATOM     19  O   UNL     1       8.123   4.386  18.474  0.00  0.00    +0.000 OA
ATOM     20  C   UNL     1       8.013   5.423  19.113  0.00  0.00    +0.000 C 
BRANCH  20  21
ATOM     21  O   UNL     1       8.179   5.464  20.456  0.00  0.00    +0.000 OA
ATOM     22  H   UNL     1       8.142   6.364  20.830  0.00  0.00    +0.000 HD
ENDBRANCH  20  21
ENDBRANCH  18  20
ENDBRANCH  17  18
ENDBRANCH  16  17
ENDBRANCH  15  16
ENDBRANCH  14  15
ENDBRANCH  13  14
ENDBRANCH   1  13
TORSDOF 9
ENDMDL
MODEL 7
REMARK VINA RESULT:      -5.9      2.394      4.167
REMARK  Name = 
REMARK  9 active torsions:
REMARK  status: ('A' for Active; 'I' for Inactive)
REMARK    1  A    between atoms: C_2  and  O_3
REMARK    2  A    between atoms: C_2  and  C_4
REMARK    3  A    between atoms: C_4  and  C_5
REMARK    4  A    between atoms: C_5  and  C_6
REMARK    5  A    between atoms: C_6  and  C_7
REMARK    6  A    between atoms: C_7  and  C_8
REMARK    7  A    between atoms: C_8  and  O_9
REMARK    8  A    between atoms: O_9  and  N_10
REMARK    9  A    between atoms: N_13  and  C_14
REMARK                            x       y       z     vdW  Elec       q    Type
REMARK                         _______ _______ _______ _____ _____    ______ ____
ROOT
ATOM      1  N   UNL     1       2.727   6.362  19.499  0.00  0.00    +0.000 N 
ATOM      2  C   UNL     1       3.378   6.450  18.295  0.00  0.00    +0.000 C 
ATOM      3  O   UNL     1       3.211   7.430  17.578  0.00  0.00    +0.000 OA
ATOM      4  N   UNL     1       4.186   5.367  18.039  0.00  0.00    +0.000 N 
ATOM      5  H   UNL     1       1.879   6.908  19.601  0.00  0.00    +0.000 HD
ATOM      6  H   UNL     1       3.938   4.558  18.588  0.00  0.00    +0.000 HD
ENDROOT
BRANCH   4   7
ATOM      7  C   UNL     1       5.109   5.219  16.996  0.00  0.00    +0.000 A 
ATOM      8  C   UNL     1       6.336   5.882  16.975  0.00  0.00    +0.000 A 
ATOM      9  C   UNL     1       7.215   5.707  15.906  0.00  0.00    +0.000 A 
ATOM     10  C   UNL     1       6.871   4.864  14.851  0.00  0.00    +0.000 A 
ATOM     11  C   UNL     1       5.658   4.180  14.875  0.00  0.00    +0.000 A 
ATOM     12  C   UNL     1       4.784   4.344  15.952  0.00  0.00    +0.000 A 
ENDBRANCH   4   7
BRANCH   1  13
ATOM     13  O   UNL     1       2.828   5.166  20.240  0.00  0.00    +0.000 OA
BRANCH  13  14
ATOM     14  C   UNL     1       1.517   4.839  20.723  0.00  0.00    +0.000 C 
BRANCH  14  15
ATOM     15  C   UNL     1       0.937   3.724  19.859  0.00  0.00    +0.000 C 
BRANCH  15  16
ATOM     16  C   UNL     1       1.745   2.428  19.975  0.00  0.00    +0.000 C 
BRANCH  16  17
ATOM     17  C   UNL     1       2.490   2.116  18.677  0.00  0.00    +0.000 C 
BRANCH  17  18
ATOM     18  C   UNL     1       3.808   1.395  18.955  0.00  0.00    +0.000 C 
BRANCH  18  20
ATOM     19  O   UNL     1       4.772   1.727  21.165  0.00  0.00    +0.000 OA
ATOM     20  C   UNL     1       4.626   2.102  20.010  0.00  0.00    +0.000 C 
BRANCH  20  21
ATOM     21  O   UNL     1       5.204   3.233  19.540  0.00  0.00    +0.000 OA
ATOM     22  H   UNL     1       4.720   4.048  19.770  0.00  0.00    +0.000 HD
ENDBRANCH  20  21
ENDBRANCH  18  20
ENDBRANCH  17  18
ENDBRANCH  16  17
ENDBRANCH  15  16
ENDBRANCH  14  15
ENDBRANCH  13  14
ENDBRANCH   1  13
TORSDOF 9
ENDMDL
MODEL 8
REMARK VINA RESULT:      -5.9      4.490      6.671
REMARK  Name = 
REMARK  9 active torsions:
REMARK  status: ('A' for Active; 'I' for Inactive)
REMARK    1  A    between atoms: C_2  and  O_3
REMARK    2  A    between atoms: C_2  and  C_4
REMARK    3  A    between atoms: C_4  and  C_5
REMARK    4  A    between atoms: C_5  and  C_6
REMARK    5  A    between atoms: C_6  and  C_7
REMARK    6  A    between atoms: C_7  and  C_8
REMARK    7  A    between atoms: C_8  and  O_9
REMARK    8  A    between atoms: O_9  and  N_10
REMARK    9  A    between atoms: N_13  and  C_14
REMARK                            x       y       z     vdW  Elec       q    Type
REMARK                         _______ _______ _______ _____ _____    ______ ____
ROOT
ATOM      1  N   UNL     1       6.427   4.324  17.365  0.00  0.00    +0.000 N 
ATOM      2  C   UNL     1       5.577   4.166  18.430  0.00  0.00    +0.000 C 
ATOM      3  O   UNL     1       6.008   4.242  19.575  0.00  0.00    +0.000 OA
ATOM      4  N   UNL     1       4.276   3.937  18.051  0.00  0.00    +0.000 N 
ATOM      5  H   UNL     1       7.410   4.144  17.534  0.00  0.00    +0.000 HD
ATOM      6  H   UNL     1       4.199   3.604  17.101  0.00  0.00    +0.000 HD
ENDROOT
BRANCH   4   7
ATOM      7  C   UNL     1       3.141   3.902  18.872  0.00  0.00    +0.000 A 
ATOM      8  C   UNL     1       2.636   5.036  19.507  0.00  0.00    +0.000 A 
ATOM      9  C   UNL     1       1.508   4.944  20.323  0.00  0.00    +0.000 A 
ATOM     10  C   UNL     1       0.878   3.715  20.507  0.00  0.00    +0.000 A 
ATOM     11  C   UNL     1       1.362   2.582  19.858  0.00  0.00    +0.000 A 
ATOM     12  C   UNL     1       2.483   2.676  19.030  0.00  0.00    +0.000 A 
ENDBRANCH   4   7
BRANCH   1  13
ATOM     13  O   UNL     1       5.934   4.095  16.063  0.00  0.00    +0.000 OA
BRANCH  13  14
ATOM     14  C   UNL     1       6.425   5.148  15.219  0.00  0.00    +0.000 C 
BRANCH  14  15
ATOM     15  C   UNL     1       6.947   4.539  13.923  0.00  0.00    +0.000 C 
BRANCH  15  16
ATOM     16  C   UNL     1       6.099   3.349  13.464  0.00  0.00    +0.000 C 
BRANCH  16  17
ATOM     17  C   UNL     1       5.476   3.603  12.092  0.00  0.00    +0.000 C 
BRANCH  17  18
ATOM     18  C   UNL     1       5.181   2.289  11.367  0.00  0.00    +0.000 C 
BRANCH  18  20
ATOM     19  O   UNL     1       7.523   1.825  10.897  0.00  0.00    +0.000 OA
ATOM     20  C   UNL     1       6.417   1.430  11.235  0.00  0.00    +0.000 C 
BRANCH  20  21
ATOM     21  O   UNL     1       6.175   0.133  11.537  0.00  0.00    +0.000 OA
ATOM     22  H   UNL     1       5.238  -0.061  11.725  0.00  0.00    +0.000 HD
ENDBRANCH  20  21
ENDBRANCH  18  20
ENDBRANCH  17  18
ENDBRANCH  16  17
ENDBRANCH  15  16
ENDBRANCH  14  15
ENDBRANCH  13  14
ENDBRANCH   1  13
TORSDOF 9
ENDMDL
MODEL 9
REMARK VINA RESULT:      -5.9      3.747      5.294
REMARK  Name = 
REMARK  9 active torsions:
REMARK  status: ('A' for Active; 'I' for Inactive)
REMARK    1  A    between atoms: C_2  and  O_3
REMARK    2  A    between atoms: C_2  and  C_4
REMARK    3  A    between atoms: C_4  and  C_5
REMARK    4  A    between atoms: C_5  and  C_6
REMARK    5  A    between atoms: C_6  and  C_7
REMARK    6  A    between atoms: C_7  and  C_8
REMARK    7  A    between atoms: C_8  and  O_9
REMARK    8  A    between atoms: O_9  and  N_10
REMARK    9  A    between atoms: N_13  and  C_14
REMARK                            x       y       z     vdW  Elec       q    Type
REMARK                         _______ _______ _______ _____ _____    ______ ____
ROOT
ATOM      1  N   UNL     1       5.637   5.202  17.938  0.00  0.00    +0.000 N 
ATOM      2  C   UNL     1       6.423   5.117  16.818  0.00  0.00    +0.000 C 
ATOM      3  O   UNL     1       7.643   5.199  16.918  0.00  0.00    +0.000 OA
ATOM      4  N   UNL     1       5.700   4.935  15.663  0.00  0.00    +0.000 N 
ATOM      5  H   UNL     1       6.034   5.674  18.742  0.00  0.00    +0.000 HD
ATOM      6  H   UNL     1       4.733   5.210  15.762  0.00  0.00    +0.000 HD
ENDROOT
BRANCH   4   7
ATOM      7  C   UNL     1       6.192   4.642  14.385  0.00  0.00    +0.000 A 
ATOM      8  C   UNL     1       7.313   5.274  13.847  0.00  0.00    +0.000 A 
ATOM      9  C   UNL     1       7.756   4.951  12.563  0.00  0.00    +0.000 A 
ATOM     10  C   UNL     1       7.080   3.993  11.812  0.00  0.00    +0.000 A 
ATOM     11  C   UNL     1       5.973   3.341  12.351  0.00  0.00    +0.000 A 
ATOM     12  C   UNL     1       5.538   3.653  13.641  0.00  0.00    +0.000 A 
ENDBRANCH   4   7
BRANCH   1  13
ATOM     13  O   UNL     1       4.235   5.244  17.782  0.00  0.00    +0.000 OA
BRANCH  13  14
ATOM     14  C   UNL     1       3.686   5.894  18.938  0.00  0.00    +0.000 C 
BRANCH  14  15
ATOM     15  C   UNL     1       2.362   5.230  19.296  0.00  0.00    +0.000 C 
BRANCH  15  16
ATOM     16  C   UNL     1       2.435   4.485  20.632  0.00  0.00    +0.000 C 
BRANCH  16  17
ATOM     17  C   UNL     1       2.006   3.026  20.482  0.00  0.00    +0.000 C 
BRANCH  17  18
ATOM     18  C   UNL     1       2.971   2.256  19.580  0.00  0.00    +0.000 C 
BRANCH  18  20
ATOM     19  O   UNL     1       4.699   1.804  21.233  0.00  0.00    +0.000 OA
ATOM     20  C   UNL     1       4.375   2.243  20.138  0.00  0.00    +0.000 C 
BRANCH  20  21
ATOM     21  O   UNL     1       5.273   2.782  19.282  0.00  0.00    +0.000 OA
ATOM     22  H   UNL     1       5.348   2.302  18.435  0.00  0.00    +0.000 HD
ENDBRANCH  20  21
ENDBRANCH  18  20
ENDBRANCH  17  18
ENDBRANCH  16  17
ENDBRANCH  15  16
ENDBRANCH  14  15
ENDBRANCH  13  14
ENDBRANCH   1  13
TORSDOF 9
ENDMDL
