MODEL 1
REMARK VINA RESULT:      -8.1      0.000      0.000
REMARK  Name = 
REMARK  5 active torsions:
REMARK  status: ('A' for Active; 'I' for Inactive)
REMARK    1  A    between atoms: S_2  and  N_4
REMARK    2  A    between atoms: S_2  and  C_17
REMARK    3  A    between atoms: N_4  and  C_5
REMARK    4  A    between atoms: C_5  and  C_6
REMARK    5  A    between atoms: C_6  and  O_7
REMARK                            x       y       z     vdW  Elec       q    Type
REMARK                         _______ _______ _______ _____ _____    ______ ____
ROOT
ATOM      1  C   UNL     1       4.327   3.604  17.240  0.00  0.00    +0.000 C 
ENDROOT
BRANCH   1   2
ATOM      2  C   UNL     1       4.420   3.436  18.782  0.00  0.00    +0.000 C 
ATOM      3  C   UNL     1       4.211   2.000  19.270  0.00  0.00    +0.000 C 
ATOM      4  C   UNL     1       2.757   1.603  19.110  0.00  0.00    +0.000 C 
ATOM      5  O   UNL     1       1.871   2.439  19.853  0.00  0.00    +0.000 OA
ATOM      6  C   UNL     1       2.165   3.775  19.872  0.00  0.00    +0.000 A 
ATOM      7  C   UNL     1       1.174   4.596  20.416  0.00  0.00    +0.000 A 
ATOM      8  C   UNL     1       1.369   5.974  20.499  0.00  0.00    +0.000 A 
ATOM      9  C   UNL     1       2.561   6.534  20.050  0.00  0.00    +0.000 A 
ATOM     10  C   UNL     1       3.558   5.715  19.516  0.00  0.00    +0.000 A 
ATOM     11  C   UNL     1       3.371   4.324  19.418  0.00  0.00    +0.000 A 
BRANCH   2  12
ATOM     12  O   UNL     1       5.732   3.871  19.185  0.00  0.00    +0.000 OA
ATOM     13  H   UNL     1       6.291   3.080  19.264  0.00  0.00    +0.000 HD
ENDBRANCH   2  12
ENDBRANCH   1   2
BRANCH   1  14
ATOM     14  N   UNL     1       5.636   3.335  16.584  0.00  0.00    +0.000 NA
ATOM     15  H   UNL     1       6.190   2.613  17.045  0.00  0.00    +0.000 HD
BRANCH  14  17
ATOM     16  O   UNL     1       5.774   5.847  16.515  0.00  0.00    +0.000 OA
ATOM     17  S   UNL     1       6.601   4.686  16.262  0.00  0.00    +0.000 S 
ATOM     18  O   UNL     1       7.881   4.501  16.906  0.00  0.00    +0.000 OA
BRANCH  17  19
ATOM     19  C   UNL     1       6.837   4.575  14.501  0.00  0.00    +0.000 A 
ATOM     20  C   UNL     1       7.710   5.465  13.867  0.00  0.00    +0.000 A 
ATOM     21  C   UNL     1       7.911   5.372  12.490  0.00  0.00    +0.000 A 
ATOM     22  C   UNL     1       7.244   4.392  11.752  0.00  0.00    +0.000 A 
ATOM     23  C   UNL     1       6.385   3.500  12.397  0.00  0.00    +0.000 A 
ATOM     24 BR   UNL     1       5.481   2.181  11.389  0.00  0.00    +0.000 Br
ATOM     25  C   UNL     1       6.184   3.574  13.774  0.00  0.00    +0.000 A 
ENDBRANCH  17  19
ENDBRANCH  14  17
ENDBRANCH   1  14
TORSDOF 5
ENDMDL
MODEL 2
REMARK VINA RESULT:      -7.9      2.226      2.802
REMARK  Name = 
REMARK  5 active torsions:
REMARK  status: ('A' for Active; 'I' for Inactive)
REMARK    1  A    between atoms: S_2  and  N_4
REMARK    2  A    between atoms: S_2  and  C_17
REMARK    3  A    between atoms: N_4  and  C_5
REMARK    4  A    between atoms: C_5  and  C_6
REMARK    5  A    between atoms: C_6  and  O_7
REMARK                            x       y       z     vdW  Elec       q    Type
REMARK                         _______ _______ _______ _____ _____    ______ ____
ROOT
ATOM      1  C   UNL     1       4.853   5.050  19.082  0.00  0.00    +0.000 C 
ENDROOT
BRANCH   1   2
ATOM      2  C   UNL     1       4.459   3.559  18.890  0.00  0.00    +0.000 C 
ATOM      3  C   UNL     1       4.244   3.151  17.431  0.00  0.00    +0.000 C 
ATOM      4  C   UNL     1       2.965   3.769  16.900  0.00  0.00    +0.000 C 
ATOM      5  O   UNL     1       1.809   3.361  17.633  0.00  0.00    +0.000 OA
ATOM      6  C   UNL     1       1.951   3.261  18.989  0.00  0.00    +0.000 A 
ATOM      7  C   UNL     1       0.763   3.076  19.702  0.00  0.00    +0.000 A 
ATOM      8  C   UNL     1       0.787   2.949  21.089  0.00  0.00    +0.000 A 
ATOM      9  C   UNL     1       2.000   2.993  21.769  0.00  0.00    +0.000 A 
ATOM     10  C   UNL     1       3.189   3.167  21.060  0.00  0.00    +0.000 A 
ATOM     11  C   UNL     1       3.180   3.306  19.660  0.00  0.00    +0.000 A 
BRANCH   2  12
ATOM     12  O   UNL     1       5.522   2.758  19.439  0.00  0.00    +0.000 OA
ATOM     13  H   UNL     1       6.103   2.500  18.703  0.00  0.00    +0.000 HD
ENDBRANCH   2  12
ENDBRANCH   1   2
BRANCH   1  14
ATOM     14  N   UNL     1       6.226   5.181  19.643  0.00  0.00    +0.000 NA
ATOM     15  H   UNL     1       6.298   5.847  20.413  0.00  0.00    +0.000 HD
BRANCH  14  17
ATOM     16  O   UNL     1       8.052   6.730  18.869  0.00  0.00    +0.000 OA
ATOM     17  S   UNL     1       7.466   5.452  18.526  0.00  0.00    +0.000 S 
ATOM     18  O   UNL     1       8.259   4.248  18.418  0.00  0.00    +0.000 OA
BRANCH  17  19
ATOM     19  C   UNL     1       6.568   5.669  17.004  0.00  0.00    +0.000 A 
ATOM     20  C   UNL     1       5.687   6.748  16.875  0.00  0.00    +0.000 A 
ATOM     21  C   UNL     1       4.993   6.932  15.680  0.00  0.00    +0.000 A 
ATOM     22  C   UNL     1       5.180   6.043  14.619  0.00  0.00    +0.000 A 
ATOM     23  C   UNL     1       6.071   4.977  14.755  0.00  0.00    +0.000 A 
ATOM     24 BR   UNL     1       6.312   3.774  13.317  0.00  0.00    +0.000 Br
ATOM     25  C   UNL     1       6.780   4.788  15.939  0.00  0.00    +0.000 A 
ENDBRANCH  17  19
ENDBRANCH  14  17
ENDBRANCH   1  14
TORSDOF 5
ENDMDL
MODEL 3
REMARK VINA RESULT:      -7.9      4.039      7.670
REMARK  Name = 
REMARK  5 active torsions:
REMARK  status: ('A' for Active; 'I' for Inactive)
REMARK    1  A    between atoms: S_2  and  N_4
REMARK    2  A    between atoms: S_2  and  C_17
REMARK    3  A    between atoms: N_4  and  C_5
REMARK    4  A    between atoms: C_5  and  C_6
REMARK    5  A    between atoms: C_6  and  O_7
REMARK                            x       y       z     vdW  Elec       q    Type
REMARK                         _______ _______ _______ _____ _____    ______ ____
ROOT
ATOM      1  C   UNL     1       4.565   5.716  18.286  0.00  0.00    +0.000 C 
ENDROOT
BRANCH   1   2
ATOM      2  C   UNL     1       5.912   4.957  18.134  0.00  0.00    +0.000 C 
ATOM      3  C   UNL     1       7.124   5.712  18.686  0.00  0.00    +0.000 C 
ATOM      4  C   UNL     1       7.454   6.892  17.794  0.00  0.00    +0.000 C 
ATOM      5  O   UNL     1       7.767   6.503  16.457  0.00  0.00    +0.000 OA
ATOM      6  C   UNL     1       7.013   5.494  15.923  0.00  0.00    +0.000 A 
ATOM      7  C   UNL     1       7.188   5.279  14.553  0.00  0.00    +0.000 A 
ATOM      8  C   UNL     1       6.481   4.269  13.903  0.00  0.00    +0.000 A 
ATOM      9  C   UNL     1       5.607   3.461  14.623  0.00  0.00    +0.000 A 
ATOM     10  C   UNL     1       5.438   3.666  15.993  0.00  0.00    +0.000 A 
ATOM     11  C   UNL     1       6.138   4.687  16.661  0.00  0.00    +0.000 A 
BRANCH   2  12
ATOM     12  O   UNL     1       5.787   3.709  18.841  0.00  0.00    +0.000 OA
ATOM     13  H   UNL     1       6.622   3.557  19.314  0.00  0.00    +0.000 HD
ENDBRANCH   2  12
ENDBRANCH   1   2
BRANCH   1  14
ATOM     14  N   UNL     1       4.101   5.719  19.701  0.00  0.00    +0.000 NA
ATOM     15  H   UNL     1       4.630   5.097  20.313  0.00  0.00    +0.000 HD
BRANCH  14  17
ATOM     16  O   UNL     1       1.930   4.902  18.726  0.00  0.00    +0.000 OA
ATOM     17  S   UNL     1       2.442   5.495  19.943  0.00  0.00    +0.000 S 
ATOM     18  O   UNL     1       2.245   4.885  21.237  0.00  0.00    +0.000 OA
BRANCH  17  19
ATOM     19  C   UNL     1       1.838   7.169  20.014  0.00  0.00    +0.000 A 
ATOM     20  C   UNL     1       1.967   7.994  18.892  0.00  0.00    +0.000 A 
ATOM     21  C   UNL     1       1.482   9.300  18.938  0.00  0.00    +0.000 A 
ATOM     22  C   UNL     1       0.869   9.778  20.098  0.00  0.00    +0.000 A 
ATOM     23  C   UNL     1       0.734   8.941  21.207  0.00  0.00    +0.000 A 
ATOM     24 BR   UNL     1      -0.090   9.599  22.777  0.00  0.00    +0.000 Br
ATOM     25  C   UNL     1       1.204   7.630  21.172  0.00  0.00    +0.000 A 
ENDBRANCH  17  19
ENDBRANCH  14  17
ENDBRANCH   1  14
TORSDOF 5
ENDMDL
MODEL 4
REMARK VINA RESULT:      -7.7      1.405      2.287
REMARK  Name = 
REMARK  5 active torsions:
REMARK  status: ('A' for Active; 'I' for Inactive)
REMARK    1  A    between atoms: S_2  and  N_4
REMARK    2  A    between atoms: S_2  and  C_17
REMARK    3  A    between atoms: N_4  and  C_5
REMARK    4  A    between atoms: C_5  and  C_6
REMARK    5  A    between atoms: C_6  and  O_7
REMARK                            x       y       z     vdW  Elec       q    Type
REMARK                         _______ _______ _______ _____ _____    ______ ____
ROOT
ATOM      1  C   UNL     1       4.854   3.830  17.952  0.00  0.00    +0.000 C 
ENDROOT
BRANCH   1   2
ATOM      2  C   UNL     1       3.340   4.173  17.883  0.00  0.00    +0.000 C 
ATOM      3  C   UNL     1       3.043   5.648  17.602  0.00  0.00    +0.000 C 
ATOM      4  C   UNL     1       3.387   6.489  18.816  0.00  0.00    +0.000 C 
ATOM      5  O   UNL     1       2.641   6.117  19.975  0.00  0.00    +0.000 OA
ATOM      6  C   UNL     1       2.440   4.778  20.166  0.00  0.00    +0.000 A 
ATOM      7  C   UNL     1       1.903   4.427  21.408  0.00  0.00    +0.000 A 
ATOM      8  C   UNL     1       1.643   3.091  21.711  0.00  0.00    +0.000 A 
ATOM      9  C   UNL     1       1.908   2.103  20.768  0.00  0.00    +0.000 A 
ATOM     10  C   UNL     1       2.434   2.451  19.523  0.00  0.00    +0.000 A 
ATOM     11  C   UNL     1       2.709   3.794  19.207  0.00  0.00    +0.000 A 
BRANCH   2  12
ATOM     12  O   UNL     1       2.766   3.380  16.828  0.00  0.00    +0.000 OA
ATOM     13  H   UNL     1       2.094   3.925  16.385  0.00  0.00    +0.000 HD
ENDBRANCH   2  12
ENDBRANCH   1   2
BRANCH   1  14
ATOM     14  N   UNL     1       5.452   3.737  16.592  0.00  0.00    +0.000 NA
ATOM     15  H   UNL     1       5.725   2.791  16.323  0.00  0.00    +0.000 HD
BRANCH  14  17
ATOM     16  O   UNL     1       6.184   6.143  16.516  0.00  0.00    +0.000 OA
ATOM     17  S   UNL     1       6.706   4.819  16.253  0.00  0.00    +0.000 S 
ATOM     18  O   UNL     1       7.915   4.333  16.878  0.00  0.00    +0.000 OA
BRANCH  17  19
ATOM     19  C   UNL     1       6.883   4.657  14.488  0.00  0.00    +0.000 A 
ATOM     20  C   UNL     1       7.783   5.485  13.810  0.00  0.00    +0.000 A 
ATOM     21  C   UNL     1       7.936   5.351  12.430  0.00  0.00    +0.000 A 
ATOM     22  C   UNL     1       7.196   4.394  11.735  0.00  0.00    +0.000 A 
ATOM     23  C   UNL     1       6.311   3.563  12.424  0.00  0.00    +0.000 A 
ATOM     24 BR   UNL     1       5.307   2.275  11.473  0.00  0.00    +0.000 Br
ATOM     25  C   UNL     1       6.155   3.678  13.804  0.00  0.00    +0.000 A 
ENDBRANCH  17  19
ENDBRANCH  14  17
ENDBRANCH   1  14
TORSDOF 5
ENDMDL
MODEL 5
REMARK VINA RESULT:      -7.7      3.211      3.941
REMARK  Name = 
REMARK  5 active torsions:
REMARK  status: ('A' for Active; 'I' for Inactive)
REMARK    1  A    between atoms: S_2  and  N_4
REMARK    2  A    between atoms: S_2  and  C_17
REMARK    3  A    between atoms: N_4  and  C_5
REMARK    4  A    between atoms: C_5  and  C_6
REMARK    5  A    between atoms: C_6  and  O_7
REMARK                            x       y       z     vdW  Elec       q    Type
REMARK                         _______ _______ _______ _____ _____    ______ ____
ROOT
ATOM      1  C   UNL     1       4.335   4.091  16.937  0.00  0.00    +0.000 C 
ENDROOT
BRANCH   1   2
ATOM      2  C   UNL     1       4.204   3.282  18.257  0.00  0.00    +0.000 C 
ATOM      3  C   UNL     1       3.766   1.829  18.061  0.00  0.00    +0.000 C 
ATOM      4  C   UNL     1       2.309   1.776  17.644  0.00  0.00    +0.000 C 
ATOM      5  O   UNL     1       1.436   2.357  18.613  0.00  0.00    +0.000 OA
ATOM      6  C   UNL     1       1.880   3.496  19.228  0.00  0.00    +0.000 A 
ATOM      7  C   UNL     1       0.929   4.164  20.003  0.00  0.00    +0.000 A 
ATOM      8  C   UNL     1       1.271   5.330  20.687  0.00  0.00    +0.000 A 
ATOM      9  C   UNL     1       2.569   5.824  20.607  0.00  0.00    +0.000 A 
ATOM     10  C   UNL     1       3.524   5.153  19.843  0.00  0.00    +0.000 A 
ATOM     11  C   UNL     1       3.191   3.980  19.140  0.00  0.00    +0.000 A 
BRANCH   2  12
ATOM     12  O   UNL     1       5.493   3.290  18.898  0.00  0.00    +0.000 OA
ATOM     13  H   UNL     1       6.160   3.112  18.215  0.00  0.00    +0.000 HD
ENDBRANCH   2  12
ENDBRANCH   1   2
BRANCH   1  14
ATOM     14  N   UNL     1       5.635   3.823  16.263  0.00  0.00    +0.000 NA
ATOM     15  H   UNL     1       6.293   3.287  16.829  0.00  0.00    +0.000 HD
BRANCH  14  17
ATOM     16  O   UNL     1       7.474   4.636  14.751  0.00  0.00    +0.000 OA
ATOM     17  S   UNL     1       6.413   5.161  15.582  0.00  0.00    +0.000 S 
ATOM     18  O   UNL     1       5.409   6.064  15.067  0.00  0.00    +0.000 OA
BRANCH  17  19
ATOM     19  C   UNL     1       7.175   5.922  17.001  0.00  0.00    +0.000 A 
ATOM     20  C   UNL     1       7.511   5.131  18.106  0.00  0.00    +0.000 A 
ATOM     21  C   UNL     1       8.121   5.719  19.213  0.00  0.00    +0.000 A 
ATOM     22  C   UNL     1       8.397   7.088  19.214  0.00  0.00    +0.000 A 
ATOM     23  C   UNL     1       8.070   7.864  18.101  0.00  0.00    +0.000 A 
ATOM     24 BR   UNL     1       8.440   9.718  18.115  0.00  0.00    +0.000 Br
ATOM     25  C   UNL     1       7.470   7.289  16.983  0.00  0.00    +0.000 A 
ENDBRANCH  17  19
ENDBRANCH  14  17
ENDBRANCH   1  14
TORSDOF 5
ENDMDL
MODEL 6
REMARK VINA RESULT:      -7.6      1.459      1.910
REMARK  Name = 
REMARK  5 active torsions:
REMARK  status: ('A' for Active; 'I' for Inactive)
REMARK    1  A    between atoms: S_2  and  N_4
REMARK    2  A    between atoms: S_2  and  C_17
REMARK    3  A    between atoms: N_4  and  C_5
REMARK    4  A    between atoms: C_5  and  C_6
REMARK    5  A    between atoms: C_6  and  O_7
REMARK                            x       y       z     vdW  Elec       q    Type
REMARK                         _______ _______ _______ _____ _____    ______ ____
ROOT
ATOM      1  C   UNL     1       4.957   3.482  18.135  0.00  0.00    +0.000 C 
ENDROOT
BRANCH   1   2
ATOM      2  C   UNL     1       3.741   2.514  18.114  0.00  0.00    +0.000 C 
ATOM      3  C   UNL     1       2.831   2.677  16.894  0.00  0.00    +0.000 C 
ATOM      4  C   UNL     1       2.055   3.976  16.993  0.00  0.00    +0.000 C 
ATOM      5  O   UNL     1       1.228   4.038  18.155  0.00  0.00    +0.000 OA
ATOM      6  C   UNL     1       1.755   3.524  19.307  0.00  0.00    +0.000 A 
ATOM      7  C   UNL     1       1.024   3.790  20.468  0.00  0.00    +0.000 A 
ATOM      8  C   UNL     1       1.459   3.305  21.701  0.00  0.00    +0.000 A 
ATOM      9  C   UNL     1       2.620   2.542  21.774  0.00  0.00    +0.000 A 
ATOM     10  C   UNL     1       3.347   2.266  20.615  0.00  0.00    +0.000 A 
ATOM     11  C   UNL     1       2.925   2.755  19.366  0.00  0.00    +0.000 A 
BRANCH   2  12
ATOM     12  O   UNL     1       4.259   1.171  18.124  0.00  0.00    +0.000 OA
ATOM     13  H   UNL     1       4.361   0.905  19.053  0.00  0.00    +0.000 HD
ENDBRANCH   2  12
ENDBRANCH   1   2
BRANCH   1  14
ATOM     14  N   UNL     1       5.665   3.491  16.825  0.00  0.00    +0.000 NA
ATOM     15  H   UNL     1       6.292   2.698  16.687  0.00  0.00    +0.000 HD
BRANCH  14  17
ATOM     16  O   UNL     1       5.482   5.989  16.579  0.00  0.00    +0.000 OA
ATOM     17  S   UNL     1       6.455   4.930  16.415  0.00  0.00    +0.000 S 
ATOM     18  O   UNL     1       7.738   4.956  17.078  0.00  0.00    +0.000 OA
BRANCH  17  19
ATOM     19  C   UNL     1       6.731   4.727  14.667  0.00  0.00    +0.000 A 
ATOM     20  C   UNL     1       7.777   5.424  14.052  0.00  0.00    +0.000 A 
ATOM     21  C   UNL     1       8.007   5.257  12.687  0.00  0.00    +0.000 A 
ATOM     22  C   UNL     1       7.198   4.396  11.942  0.00  0.00    +0.000 A 
ATOM     23  C   UNL     1       6.166   3.696  12.569  0.00  0.00    +0.000 A 
ATOM     24 BR   UNL     1       5.070   2.539  11.551  0.00  0.00    +0.000 Br
ATOM     25  C   UNL     1       5.931   3.844  13.934  0.00  0.00    +0.000 A 
ENDBRANCH  17  19
ENDBRANCH  14  17
ENDBRANCH   1  14
TORSDOF 5
ENDMDL
MODEL 7
REMARK VINA RESULT:      -7.4      1.855      3.115
REMARK  Name = 
REMARK  5 active torsions:
REMARK  status: ('A' for Active; 'I' for Inactive)
REMARK    1  A    between atoms: S_2  and  N_4
REMARK    2  A    between atoms: S_2  and  C_17
REMARK    3  A    between atoms: N_4  and  C_5
REMARK    4  A    between atoms: C_5  and  C_6
REMARK    5  A    between atoms: C_6  and  O_7
REMARK                            x       y       z     vdW  Elec       q    Type
REMARK                         _______ _______ _______ _____ _____    ______ ____
ROOT
ATOM      1  C   UNL     1       4.736   5.466  19.439  0.00  0.00    +0.000 C 
ENDROOT
BRANCH   1   2
ATOM      2  C   UNL     1       3.374   5.742  18.744  0.00  0.00    +0.000 C 
ATOM      3  C   UNL     1       2.539   6.837  19.414  0.00  0.00    +0.000 C 
ATOM      4  C   UNL     1       1.995   6.339  20.739  0.00  0.00    +0.000 C 
ATOM      5  O   UNL     1       1.158   5.191  20.595  0.00  0.00    +0.000 OA
ATOM      6  C   UNL     1       1.557   4.256  19.681  0.00  0.00    +0.000 A 
ATOM      7  C   UNL     1       0.850   3.051  19.713  0.00  0.00    +0.000 A 
ATOM      8  C   UNL     1       1.162   2.027  18.819  0.00  0.00    +0.000 A 
ATOM      9  C   UNL     1       2.173   2.211  17.881  0.00  0.00    +0.000 A 
ATOM     10  C   UNL     1       2.873   3.417  17.839  0.00  0.00    +0.000 A 
ATOM     11  C   UNL     1       2.576   4.455  18.741  0.00  0.00    +0.000 A 
BRANCH   2  12
ATOM     12  O   UNL     1       3.654   6.142  17.390  0.00  0.00    +0.000 OA
ATOM     13  H   UNL     1       2.899   6.670  17.079  0.00  0.00    +0.000 HD
ENDBRANCH   2  12
ENDBRANCH   1   2
BRANCH   1  14
ATOM     14  N   UNL     1       5.557   4.499  18.659  0.00  0.00    +0.000 NA
ATOM     15  H   UNL     1       5.802   3.652  19.173  0.00  0.00    +0.000 HD
BRANCH  14  17
ATOM     16  O   UNL     1       6.819   6.570  17.986  0.00  0.00    +0.000 OA
ATOM     17  S   UNL     1       6.929   5.130  17.897  0.00  0.00    +0.000 S 
ATOM     18  O   UNL     1       8.090   4.417  18.379  0.00  0.00    +0.000 OA
BRANCH  17  19
ATOM     19  C   UNL     1       6.661   4.680  16.195  0.00  0.00    +0.000 A 
ATOM     20  C   UNL     1       5.676   3.738  15.881  0.00  0.00    +0.000 A 
ATOM     21  C   UNL     1       5.452   3.394  14.548  0.00  0.00    +0.000 A 
ATOM     22  C   UNL     1       6.206   3.990  13.536  0.00  0.00    +0.000 A 
ATOM     23  C   UNL     1       7.178   4.939  13.860  0.00  0.00    +0.000 A 
ATOM     24 BR   UNL     1       8.201   5.734  12.484  0.00  0.00    +0.000 Br
ATOM     25  C   UNL     1       7.405   5.301  15.187  0.00  0.00    +0.000 A 
ENDBRANCH  17  19
ENDBRANCH  14  17
ENDBRANCH   1  14
TORSDOF 5
ENDMDL
MODEL 8
REMARK VINA RESULT:      -7.4      3.490      7.466
REMARK  Name = 
REMARK  5 active torsions:
REMARK  status: ('A' for Active; 'I' for Inactive)
REMARK    1  A    between atoms: S_2  and  N_4
REMARK    2  A    between atoms: S_2  and  C_17
REMARK    3  A    between atoms: N_4  and  C_5
REMARK    4  A    between atoms: C_5  and  C_6
REMARK    5  A    between atoms: C_6  and  O_7
REMARK                            x       y       z     vdW  Elec       q    Type
REMARK                         _______ _______ _______ _____ _____    ______ ____
ROOT
ATOM      1  C   UNL     1       4.645   5.764  18.385  0.00  0.00    +0.000 C 
ENDROOT
BRANCH   1   2
ATOM      2  C   UNL     1       5.994   5.016  18.200  0.00  0.00    +0.000 C 
ATOM      3  C   UNL     1       7.217   5.799  18.686  0.00  0.00    +0.000 C 
ATOM      4  C   UNL     1       7.498   6.959  17.750  0.00  0.00    +0.000 C 
ATOM      5  O   UNL     1       7.764   6.538  16.413  0.00  0.00    +0.000 OA
ATOM      6  C   UNL     1       7.003   5.506  15.935  0.00  0.00    +0.000 A 
ATOM      7  C   UNL     1       7.128   5.258  14.566  0.00  0.00    +0.000 A 
ATOM      8  C   UNL     1       6.409   4.223  13.970  0.00  0.00    +0.000 A 
ATOM      9  C   UNL     1       5.573   3.425  14.744  0.00  0.00    +0.000 A 
ATOM     10  C   UNL     1       5.454   3.663  16.114  0.00  0.00    +0.000 A 
ATOM     11  C   UNL     1       6.167   4.710  16.727  0.00  0.00    +0.000 A 
BRANCH   2  12
ATOM     12  O   UNL     1       5.911   3.787  18.944  0.00  0.00    +0.000 OA
ATOM     13  H   UNL     1       4.970   3.609  19.110  0.00  0.00    +0.000 HD
ENDBRANCH   2  12
ENDBRANCH   1   2
BRANCH   1  14
ATOM     14  N   UNL     1       4.134   5.626  19.776  0.00  0.00    +0.000 NA
ATOM     15  H   UNL     1       4.657   4.962  20.347  0.00  0.00    +0.000 HD
BRANCH  14  17
ATOM     16  O   UNL     1       2.019   4.847  18.656  0.00  0.00    +0.000 OA
ATOM     17  S   UNL     1       2.474   5.344  19.937  0.00  0.00    +0.000 S 
ATOM     18  O   UNL     1       2.248   4.619  21.166  0.00  0.00    +0.000 OA
BRANCH  17  19
ATOM     19  C   UNL     1       1.824   6.991  20.129  0.00  0.00    +0.000 A 
ATOM     20  C   UNL     1       1.142   7.327  21.303  0.00  0.00    +0.000 A 
ATOM     21  C   UNL     1       0.644   8.620  21.465  0.00  0.00    +0.000 A 
ATOM     22  C   UNL     1       0.831   9.571  20.460  0.00  0.00    +0.000 A 
ATOM     23  C   UNL     1       1.525   9.228  19.298  0.00  0.00    +0.000 A 
ATOM     24 BR   UNL     1       1.766  10.520  17.940  0.00  0.00    +0.000 Br
ATOM     25  C   UNL     1       2.037   7.944  19.128  0.00  0.00    +0.000 A 
ENDBRANCH  17  19
ENDBRANCH  14  17
ENDBRANCH   1  14
TORSDOF 5
ENDMDL
MODEL 9
REMARK VINA RESULT:      -7.3      3.866      7.596
REMARK  Name = 
REMARK  5 active torsions:
REMARK  status: ('A' for Active; 'I' for Inactive)
REMARK    1  A    between atoms: S_2  and  N_4
REMARK    2  A    between atoms: S_2  and  C_17
REMARK    3  A    between atoms: N_4  and  C_5
REMARK    4  A    between atoms: C_5  and  C_6
REMARK    5  A    between atoms: C_6  and  O_7
REMARK                            x       y       z     vdW  Elec       q    Type
REMARK                         _______ _______ _______ _____ _____    ______ ____
ROOT
ATOM      1  C   UNL     1       4.310   5.275  16.530  0.00  0.00    +0.000 C 
ENDROOT
BRANCH   1   2
ATOM      2  C   UNL     1       5.559   4.354  16.465  0.00  0.00    +0.000 C 
ATOM      3  C   UNL     1       6.726   4.817  17.340  0.00  0.00    +0.000 C 
ATOM      4  C   UNL     1       7.360   6.061  16.747  0.00  0.00    +0.000 C 
ATOM      5  O   UNL     1       7.872   5.846  15.432  0.00  0.00    +0.000 OA
ATOM      6  C   UNL     1       7.116   5.061  14.604  0.00  0.00    +0.000 A 
ATOM      7  C   UNL     1       7.520   5.044  13.266  0.00  0.00    +0.000 A 
ATOM      8  C   UNL     1       6.832   4.270  12.333  0.00  0.00    +0.000 A 
ATOM      9  C   UNL     1       5.745   3.501  12.737  0.00  0.00    +0.000 A 
ATOM     10  C   UNL     1       5.346   3.507  14.074  0.00  0.00    +0.000 A 
ATOM     11  C   UNL     1       6.025   4.291  15.026  0.00  0.00    +0.000 A 
BRANCH   2  12
ATOM     12  O   UNL     1       5.151   3.043  16.900  0.00  0.00    +0.000 OA
ATOM     13  H   UNL     1       4.205   2.950  16.699  0.00  0.00    +0.000 HD
ENDBRANCH   2  12
ENDBRANCH   1   2
BRANCH   1  14
ATOM     14  N   UNL     1       4.245   6.012  17.821  0.00  0.00    +0.000 NA
ATOM     15  H   UNL     1       5.108   5.972  18.366  0.00  0.00    +0.000 HD
BRANCH  14  17
ATOM     16  O   UNL     1       1.992   4.907  18.002  0.00  0.00    +0.000 OA
ATOM     17  S   UNL     1       2.919   5.666  18.813  0.00  0.00    +0.000 S 
ATOM     18  O   UNL     1       3.409   5.177  20.081  0.00  0.00    +0.000 OA
BRANCH  17  19
ATOM     19  C   UNL     1       2.206   7.277  19.071  0.00  0.00    +0.000 A 
ATOM     20  C   UNL     1       2.116   8.169  17.997  0.00  0.00    +0.000 A 
ATOM     21  C   UNL     1       1.545   9.426  18.190  0.00  0.00    +0.000 A 
ATOM     22  C   UNL     1       1.062   9.787  19.449  0.00  0.00    +0.000 A 
ATOM     23  C   UNL     1       1.144   8.885  20.511  0.00  0.00    +0.000 A 
ATOM     24 BR   UNL     1       0.496   9.386  22.215  0.00  0.00    +0.000 Br
ATOM     25  C   UNL     1       1.703   7.621  20.330  0.00  0.00    +0.000 A 
ENDBRANCH  17  19
ENDBRANCH  14  17
ENDBRANCH   1  14
TORSDOF 5
ENDMDL
