MODEL 1
REMARK VINA RESULT:      -8.9      0.000      0.000
REMARK  Name = 
REMARK  6 active torsions:
REMARK  status: ('A' for Active; 'I' for Inactive)
REMARK    1  A    between atoms: C_1  and  C_2
REMARK    2  A    between atoms: C_4  and  C_5
REMARK    3  A    between atoms: N_11  and  N_12
REMARK    4  A    between atoms: N_12  and  C_13
REMARK    5  A    between atoms: N_25  and  C_26
REMARK    6  A    between atoms: C_33  and  C_34
REMARK                            x       y       z     vdW  Elec       q    Type
REMARK                         _______ _______ _______ _____ _____    ______ ____
ROOT
ATOM      1  C   UNL     1      -3.322  11.217  18.532  0.00  0.00    +0.000 A 
ATOM      2  C   UNL     1      -2.855  10.081  17.862  0.00  0.00    +0.000 A 
ATOM      3  F   UNL     1      -3.704   9.283  17.198  0.00  0.00    +0.000 F 
ATOM      4  C   UNL     1      -1.511   9.733  17.852  0.00  0.00    +0.000 A 
ATOM      5  C   UNL     1      -0.581  10.516  18.553  0.00  0.00    +0.000 A 
ATOM      6  C   UNL     1       0.862  10.110  18.523  0.00  0.00    +0.000 A 
ATOM      7  N   UNL     1       1.227   9.079  17.823  0.00  0.00    +0.000 NA
ATOM      8  C   UNL     1       1.784  10.975  19.315  0.00  0.00    +0.000 A 
ATOM      9  C   UNL     1       1.295  12.006  19.984  0.00  0.00    +0.000 A 
ATOM     10  N   UNL     1      -0.024  12.412  20.019  0.00  0.00    +0.000 N 
ATOM     11  C   UNL     1      -0.993  11.661  19.275  0.00  0.00    +0.000 A 
ATOM     12  C   UNL     1      -2.359  11.994  19.216  0.00  0.00    +0.000 A 
ATOM     13  F   UNL     1      -2.779  13.116  19.825  0.00  0.00    +0.000 F 
ENDROOT
BRANCH   1  17
ATOM     14  C   UNL     1      -7.915  11.049  20.566  0.00  0.00    +0.000 C 
ATOM     15  C   UNL     1      -6.958  11.523  19.516  0.00  0.00    +0.000 A 
ATOM     16  C   UNL     1      -5.626  11.139  19.533  0.00  0.00    +0.000 A 
ATOM     17  C   UNL     1      -4.752  11.592  18.535  0.00  0.00    +0.000 A 
ATOM     18  C   UNL     1      -5.292  12.422  17.545  0.00  0.00    +0.000 A 
ATOM     19  C   UNL     1      -6.633  12.769  17.590  0.00  0.00    +0.000 A 
ATOM     20  C   UNL     1      -7.233  13.664  16.547  0.00  0.00    +0.000 C 
ATOM     21  N   UNL     1      -7.467  12.333  18.556  0.00  0.00    +0.000 NA
ENDBRANCH   1  17
BRANCH  10  22
ATOM     22  C   UNL     1      -0.387  13.589  20.845  0.00  0.00    +0.000 C 
ATOM     23  C   UNL     1      -0.656  13.577  22.334  0.00  0.00    +0.000 C 
ATOM     24  C   UNL     1       0.621  14.160  21.816  0.00  0.00    +0.000 C 
ENDBRANCH  10  22
BRANCH   7  25
ATOM     25  N   UNL     1       2.547   8.756  17.861  0.00  0.00    +0.000 N 
ATOM     26  H   UNL     1       3.144   9.238  18.528  0.00  0.00    +0.000 HD
BRANCH  25  27
ATOM     27  C   UNL     1       2.935   7.425  17.647  0.00  0.00    +0.000 A 
ATOM     28  C   UNL     1       4.247   7.024  17.428  0.00  0.00    +0.000 A 
ATOM     29  N   UNL     1       4.668   5.733  17.401  0.00  0.00    +0.000 NA
ATOM     30  C   UNL     1       3.755   4.778  17.647  0.00  0.00    +0.000 A 
ATOM     31  C   UNL     1       4.158   3.456  17.769  0.00  0.00    +0.000 A 
ATOM     32  C   UNL     1       3.250   2.436  18.070  0.00  0.00    +0.000 A 
ATOM     33  C   UNL     1       1.895   2.725  18.197  0.00  0.00    +0.000 A 
ATOM     34  C   UNL     1       1.460   4.039  18.060  0.00  0.00    +0.000 A 
ATOM     35  C   UNL     1       2.389   5.067  17.832  0.00  0.00    +0.000 A 
ATOM     36  C   UNL     1       1.995   6.409  17.824  0.00  0.00    +0.000 A 
ENDBRANCH  25  27
ENDBRANCH   7  25
TORSDOF 4
ENDMDL
MODEL 2
REMARK VINA RESULT:      -8.8      0.202      1.419
REMARK  Name = 
REMARK  6 active torsions:
REMARK  status: ('A' for Active; 'I' for Inactive)
REMARK    1  A    between atoms: C_1  and  C_2
REMARK    2  A    between atoms: C_4  and  C_5
REMARK    3  A    between atoms: N_11  and  N_12
REMARK    4  A    between atoms: N_12  and  C_13
REMARK    5  A    between atoms: N_25  and  C_26
REMARK    6  A    between atoms: C_33  and  C_34
REMARK                            x       y       z     vdW  Elec       q    Type
REMARK                         _______ _______ _______ _____ _____    ______ ____
ROOT
ATOM      1  C   UNL     1      -3.340  11.371  18.619  0.00  0.00    +0.000 A 
ATOM      2  C   UNL     1      -2.883  10.219  17.968  0.00  0.00    +0.000 A 
ATOM      3  F   UNL     1      -3.743   9.402  17.342  0.00  0.00    +0.000 F 
ATOM      4  C   UNL     1      -1.539   9.874  17.941  0.00  0.00    +0.000 A 
ATOM      5  C   UNL     1      -0.597  10.677  18.602  0.00  0.00    +0.000 A 
ATOM      6  C   UNL     1       0.846  10.274  18.554  0.00  0.00    +0.000 A 
ATOM      7  N   UNL     1       1.200   9.227  17.874  0.00  0.00    +0.000 NA
ATOM      8  C   UNL     1       1.781  11.162  19.306  0.00  0.00    +0.000 A 
ATOM      9  C   UNL     1       1.302  12.208  19.957  0.00  0.00    +0.000 A 
ATOM     10  N   UNL     1      -0.017  12.612  20.008  0.00  0.00    +0.000 N 
ATOM     11  C   UNL     1      -0.999  11.840  19.303  0.00  0.00    +0.000 A 
ATOM     12  C   UNL     1      -2.366  12.168  19.263  0.00  0.00    +0.000 A 
ATOM     13  F   UNL     1      -2.778  13.305  19.850  0.00  0.00    +0.000 F 
ENDROOT
BRANCH   1  17
ATOM     14  C   UNL     1      -7.300  13.765  16.655  0.00  0.00    +0.000 C 
ATOM     15  C   UNL     1      -6.678  12.881  17.692  0.00  0.00    +0.000 A 
ATOM     16  C   UNL     1      -5.329  12.567  17.653  0.00  0.00    +0.000 A 
ATOM     17  C   UNL     1      -4.771  11.742  18.640  0.00  0.00    +0.000 A 
ATOM     18  C   UNL     1      -5.631  11.278  19.643  0.00  0.00    +0.000 A 
ATOM     19  C   UNL     1      -6.972  11.629  19.620  0.00  0.00    +0.000 A 
ATOM     20  C   UNL     1      -7.916  11.138  20.676  0.00  0.00    +0.000 C 
ATOM     21  N   UNL     1      -7.502  12.420  18.664  0.00  0.00    +0.000 NA
ENDBRANCH   1  17
BRANCH  10  22
ATOM     22  C   UNL     1      -0.367  13.809  20.811  0.00  0.00    +0.000 C 
ATOM     23  C   UNL     1      -0.587  13.839  22.307  0.00  0.00    +0.000 C 
ATOM     24  C   UNL     1       0.665  14.420  21.731  0.00  0.00    +0.000 C 
ENDBRANCH  10  22
BRANCH   7  25
ATOM     25  N   UNL     1       2.522   8.908  17.894  0.00  0.00    +0.000 N 
ATOM     26  H   UNL     1       3.122   9.378  18.566  0.00  0.00    +0.000 HD
BRANCH  25  27
ATOM     27  C   UNL     1       2.912   7.583  17.648  0.00  0.00    +0.000 A 
ATOM     28  C   UNL     1       4.196   7.210  17.269  0.00  0.00    +0.000 A 
ATOM     29  N   UNL     1       4.643   5.929  17.204  0.00  0.00    +0.000 NA
ATOM     30  C   UNL     1       3.793   4.956  17.574  0.00  0.00    +0.000 A 
ATOM     31  C   UNL     1       4.241   3.646  17.660  0.00  0.00    +0.000 A 
ATOM     32  C   UNL     1       3.404   2.610  18.085  0.00  0.00    +0.000 A 
ATOM     33  C   UNL     1       2.069   2.869  18.380  0.00  0.00    +0.000 A 
ATOM     34  C   UNL     1       1.588   4.170  18.285  0.00  0.00    +0.000 A 
ATOM     35  C   UNL     1       2.453   5.217  17.928  0.00  0.00    +0.000 A 
ATOM     36  C   UNL     1       2.029   6.548  17.955  0.00  0.00    +0.000 A 
ENDBRANCH  25  27
ENDBRANCH   7  25
TORSDOF 4
ENDMDL
MODEL 3
REMARK VINA RESULT:      -8.8      3.701      4.520
REMARK  Name = 
REMARK  6 active torsions:
REMARK  status: ('A' for Active; 'I' for Inactive)
REMARK    1  A    between atoms: C_1  and  C_2
REMARK    2  A    between atoms: C_4  and  C_5
REMARK    3  A    between atoms: N_11  and  N_12
REMARK    4  A    between atoms: N_12  and  C_13
REMARK    5  A    between atoms: N_25  and  C_26
REMARK    6  A    between atoms: C_33  and  C_34
REMARK                            x       y       z     vdW  Elec       q    Type
REMARK                         _______ _______ _______ _____ _____    ______ ____
ROOT
ATOM      1  C   UNL     1      -1.134  12.850  22.282  0.00  0.00    +0.000 A 
ATOM      2  C   UNL     1      -1.051  11.465  22.459  0.00  0.00    +0.000 A 
ATOM      3  F   UNL     1      -1.697  10.865  23.469  0.00  0.00    +0.000 F 
ATOM      4  C   UNL     1      -0.307  10.658  21.608  0.00  0.00    +0.000 A 
ATOM      5  C   UNL     1       0.412  11.234  20.550  0.00  0.00    +0.000 A 
ATOM      6  C   UNL     1       1.207  10.334  19.652  0.00  0.00    +0.000 A 
ATOM      7  N   UNL     1       1.182   9.051  19.840  0.00  0.00    +0.000 NA
ATOM      8  C   UNL     1       1.967  11.025  18.568  0.00  0.00    +0.000 A 
ATOM      9  C   UNL     1       1.909  12.342  18.471  0.00  0.00    +0.000 A 
ATOM     10  N   UNL     1       1.176  13.194  19.273  0.00  0.00    +0.000 N 
ATOM     11  C   UNL     1       0.393  12.634  20.334  0.00  0.00    +0.000 A 
ATOM     12  C   UNL     1      -0.411  13.399  21.198  0.00  0.00    +0.000 A 
ATOM     13  F   UNL     1      -0.519  14.722  20.981  0.00  0.00    +0.000 F 
ENDROOT
BRANCH   1  17
ATOM     14  C   UNL     1      -1.496  16.074  26.121  0.00  0.00    +0.000 C 
ATOM     15  C   UNL     1      -2.110  15.266  25.020  0.00  0.00    +0.000 A 
ATOM     16  C   UNL     1      -1.333  14.458  24.203  0.00  0.00    +0.000 A 
ATOM     17  C   UNL     1      -1.934  13.707  23.183  0.00  0.00    +0.000 A 
ATOM     18  C   UNL     1      -3.324  13.810  23.051  0.00  0.00    +0.000 A 
ATOM     19  C   UNL     1      -4.040  14.640  23.901  0.00  0.00    +0.000 A 
ATOM     20  C   UNL     1      -5.527  14.775  23.773  0.00  0.00    +0.000 C 
ATOM     21  N   UNL     1      -3.453  15.363  24.877  0.00  0.00    +0.000 NA
ENDBRANCH   1  17
BRANCH  10  22
ATOM     22  C   UNL     1       1.252  14.654  19.021  0.00  0.00    +0.000 C 
ATOM     23  C   UNL     1       2.227  15.615  19.663  0.00  0.00    +0.000 C 
ATOM     24  C   UNL     1       2.414  15.217  18.234  0.00  0.00    +0.000 C 
ENDBRANCH  10  22
BRANCH   7  25
ATOM     25  N   UNL     1       1.944   8.298  19.002  0.00  0.00    +0.000 N 
ATOM     26  H   UNL     1       2.750   8.733  18.560  0.00  0.00    +0.000 HD
BRANCH  25  27
ATOM     27  C   UNL     1       2.150   6.941  19.294  0.00  0.00    +0.000 A 
ATOM     28  C   UNL     1       1.944   6.377  20.547  0.00  0.00    +0.000 A 
ATOM     29  N   UNL     1       1.959   5.044  20.808  0.00  0.00    +0.000 NA
ATOM     30  C   UNL     1       2.143   4.211  19.769  0.00  0.00    +0.000 A 
ATOM     31  C   UNL     1       2.029   2.841  19.956  0.00  0.00    +0.000 A 
ATOM     32  C   UNL     1       2.167   1.940  18.896  0.00  0.00    +0.000 A 
ATOM     33  C   UNL     1       2.485   2.406  17.623  0.00  0.00    +0.000 A 
ATOM     34  C   UNL     1       2.625   3.773  17.411  0.00  0.00    +0.000 A 
ATOM     35  C   UNL     1       2.412   4.675  18.466  0.00  0.00    +0.000 A 
ATOM     36  C   UNL     1       2.414   6.057  18.248  0.00  0.00    +0.000 A 
ENDBRANCH  25  27
ENDBRANCH   7  25
TORSDOF 4
ENDMDL
MODEL 4
REMARK VINA RESULT:      -8.8      3.703      4.558
REMARK  Name = 
REMARK  6 active torsions:
REMARK  status: ('A' for Active; 'I' for Inactive)
REMARK    1  A    between atoms: C_1  and  C_2
REMARK    2  A    between atoms: C_4  and  C_5
REMARK    3  A    between atoms: N_11  and  N_12
REMARK    4  A    between atoms: N_12  and  C_13
REMARK    5  A    between atoms: N_25  and  C_26
REMARK    6  A    between atoms: C_33  and  C_34
REMARK                            x       y       z     vdW  Elec       q    Type
REMARK                         _______ _______ _______ _____ _____    ______ ____
ROOT
ATOM      1  C   UNL     1      -1.129  12.858  22.271  0.00  0.00    +0.000 A 
ATOM      2  C   UNL     1      -1.058  11.472  22.449  0.00  0.00    +0.000 A 
ATOM      3  F   UNL     1      -1.714  10.878  23.457  0.00  0.00    +0.000 F 
ATOM      4  C   UNL     1      -0.316  10.659  21.602  0.00  0.00    +0.000 A 
ATOM      5  C   UNL     1       0.413  11.228  20.548  0.00  0.00    +0.000 A 
ATOM      6  C   UNL     1       1.204  10.321  19.654  0.00  0.00    +0.000 A 
ATOM      7  N   UNL     1       1.167   9.038  19.843  0.00  0.00    +0.000 NA
ATOM      8  C   UNL     1       1.975  11.005  18.574  0.00  0.00    +0.000 A 
ATOM      9  C   UNL     1       1.929  12.323  18.476  0.00  0.00    +0.000 A 
ATOM     10  N   UNL     1       1.200  13.181  19.274  0.00  0.00    +0.000 N 
ATOM     11  C   UNL     1       0.406  12.628  20.332  0.00  0.00    +0.000 A 
ATOM     12  C   UNL     1      -0.396  13.401  21.191  0.00  0.00    +0.000 A 
ATOM     13  F   UNL     1      -0.491  14.724  20.974  0.00  0.00    +0.000 F 
ENDROOT
BRANCH   1  17
ATOM     14  C   UNL     1      -5.522  14.778  23.780  0.00  0.00    +0.000 C 
ATOM     15  C   UNL     1      -4.036  14.637  23.904  0.00  0.00    +0.000 A 
ATOM     16  C   UNL     1      -3.316  13.832  23.035  0.00  0.00    +0.000 A 
ATOM     17  C   UNL     1      -1.925  13.722  23.169  0.00  0.00    +0.000 A 
ATOM     18  C   UNL     1      -1.324  14.461  24.196  0.00  0.00    +0.000 A 
ATOM     19  C   UNL     1      -2.105  15.244  25.032  0.00  0.00    +0.000 A 
ATOM     20  C   UNL     1      -1.488  16.036  26.144  0.00  0.00    +0.000 C 
ATOM     21  N   UNL     1      -3.444  15.341  24.898  0.00  0.00    +0.000 NA
ENDBRANCH   1  17
BRANCH  10  22
ATOM     22  C   UNL     1       1.290  14.640  19.022  0.00  0.00    +0.000 C 
ATOM     23  C   UNL     1       2.279  15.591  19.658  0.00  0.00    +0.000 C 
ATOM     24  C   UNL     1       2.452  15.191  18.227  0.00  0.00    +0.000 C 
ENDBRANCH  10  22
BRANCH   7  25
ATOM     25  N   UNL     1       1.928   8.279  19.009  0.00  0.00    +0.000 N 
ATOM     26  H   UNL     1       2.736   8.708  18.566  0.00  0.00    +0.000 HD
BRANCH  25  27
ATOM     27  C   UNL     1       2.126   6.922  19.305  0.00  0.00    +0.000 A 
ATOM     28  C   UNL     1       1.907   6.361  20.557  0.00  0.00    +0.000 A 
ATOM     29  N   UNL     1       1.915   5.029  20.821  0.00  0.00    +0.000 NA
ATOM     30  C   UNL     1       2.105   4.193  19.786  0.00  0.00    +0.000 A 
ATOM     31  C   UNL     1       1.984   2.824  19.976  0.00  0.00    +0.000 A 
ATOM     32  C   UNL     1       2.128   1.920  18.919  0.00  0.00    +0.000 A 
ATOM     33  C   UNL     1       2.458   2.382  17.648  0.00  0.00    +0.000 A 
ATOM     34  C   UNL     1       2.605   3.748  17.433  0.00  0.00    +0.000 A 
ATOM     35  C   UNL     1       2.386   4.653  18.484  0.00  0.00    +0.000 A 
ATOM     36  C   UNL     1       2.396   6.034  18.264  0.00  0.00    +0.000 A 
ENDBRANCH  25  27
ENDBRANCH   7  25
TORSDOF 4
ENDMDL
MODEL 5
REMARK VINA RESULT:      -8.7      0.971      1.250
REMARK  Name = 
REMARK  6 active torsions:
REMARK  status: ('A' for Active; 'I' for Inactive)
REMARK    1  A    between atoms: C_1  and  C_2
REMARK    2  A    between atoms: C_4  and  C_5
REMARK    3  A    between atoms: N_11  and  N_12
REMARK    4  A    between atoms: N_12  and  C_13
REMARK    5  A    between atoms: N_25  and  C_26
REMARK    6  A    between atoms: C_33  and  C_34
REMARK                            x       y       z     vdW  Elec       q    Type
REMARK                         _______ _______ _______ _____ _____    ______ ____
ROOT
ATOM      1  C   UNL     1      -3.490  11.565  18.755  0.00  0.00    +0.000 A 
ATOM      2  C   UNL     1      -3.050  10.448  18.038  0.00  0.00    +0.000 A 
ATOM      3  F   UNL     1      -3.924   9.665  17.388  0.00  0.00    +0.000 F 
ATOM      4  C   UNL     1      -1.707  10.102  17.966  0.00  0.00    +0.000 A 
ATOM      5  C   UNL     1      -0.751  10.868  18.649  0.00  0.00    +0.000 A 
ATOM      6  C   UNL     1       0.690  10.464  18.552  0.00  0.00    +0.000 A 
ATOM      7  N   UNL     1       1.028   9.453  17.813  0.00  0.00    +0.000 NA
ATOM      8  C   UNL     1       1.643  11.311  19.330  0.00  0.00    +0.000 A 
ATOM      9  C   UNL     1       1.180  12.323  20.043  0.00  0.00    +0.000 A 
ATOM     10  N   UNL     1      -0.137  12.727  20.140  0.00  0.00    +0.000 N 
ATOM     11  C   UNL     1      -1.134  11.994  19.417  0.00  0.00    +0.000 A 
ATOM     12  C   UNL     1      -2.501  12.326  19.420  0.00  0.00    +0.000 A 
ATOM     13  F   UNL     1      -2.898  13.432  20.073  0.00  0.00    +0.000 F 
ENDROOT
BRANCH   1  17
ATOM     14  C   UNL     1      -7.916  11.630  21.137  0.00  0.00    +0.000 C 
ATOM     15  C   UNL     1      -7.044  11.981  19.971  0.00  0.00    +0.000 A 
ATOM     16  C   UNL     1      -5.712  11.601  19.930  0.00  0.00    +0.000 A 
ATOM     17  C   UNL     1      -4.919  11.938  18.824  0.00  0.00    +0.000 A 
ATOM     18  C   UNL     1      -5.540  12.649  17.789  0.00  0.00    +0.000 A 
ATOM     19  C   UNL     1      -6.877  13.000  17.896  0.00  0.00    +0.000 A 
ATOM     20  C   UNL     1      -7.561  13.770  16.808  0.00  0.00    +0.000 C 
ATOM     21  N   UNL     1      -7.631  12.676  18.967  0.00  0.00    +0.000 NA
ENDBRANCH   1  17
BRANCH  10  22
ATOM     22  C   UNL     1      -0.468  13.881  21.010  0.00  0.00    +0.000 C 
ATOM     23  C   UNL     1      -0.727  13.824  22.499  0.00  0.00    +0.000 C 
ATOM     24  C   UNL     1       0.559  14.395  21.993  0.00  0.00    +0.000 C 
ENDBRANCH  10  22
BRANCH   7  25
ATOM     25  N   UNL     1       2.349   9.131  17.790  0.00  0.00    +0.000 N 
ATOM     26  H   UNL     1       3.027   9.859  17.995  0.00  0.00    +0.000 HD
BRANCH  25  27
ATOM     27  C   UNL     1       2.755   7.866  18.241  0.00  0.00    +0.000 A 
ATOM     28  C   UNL     1       2.327   7.293  19.433  0.00  0.00    +0.000 A 
ATOM     29  N   UNL     1       2.558   6.006  19.800  0.00  0.00    +0.000 NA
ATOM     30  C   UNL     1       3.212   5.220  18.928  0.00  0.00    +0.000 A 
ATOM     31  C   UNL     1       3.352   3.865  19.192  0.00  0.00    +0.000 A 
ATOM     32  C   UNL     1       3.984   3.002  18.291  0.00  0.00    +0.000 A 
ATOM     33  C   UNL     1       4.544   3.505  17.121  0.00  0.00    +0.000 A 
ATOM     34  C   UNL     1       4.435   4.863  16.839  0.00  0.00    +0.000 A 
ATOM     35  C   UNL     1       3.735   5.709  17.714  0.00  0.00    +0.000 A 
ATOM     36  C   UNL     1       3.496   7.048  17.389  0.00  0.00    +0.000 A 
ENDBRANCH  25  27
ENDBRANCH   7  25
TORSDOF 4
ENDMDL
MODEL 6
REMARK VINA RESULT:      -8.7      2.671      4.385
REMARK  Name = 
REMARK  6 active torsions:
REMARK  status: ('A' for Active; 'I' for Inactive)
REMARK    1  A    between atoms: C_1  and  C_2
REMARK    2  A    between atoms: C_4  and  C_5
REMARK    3  A    between atoms: N_11  and  N_12
REMARK    4  A    between atoms: N_12  and  C_13
REMARK    5  A    between atoms: N_25  and  C_26
REMARK    6  A    between atoms: C_33  and  C_34
REMARK                            x       y       z     vdW  Elec       q    Type
REMARK                         _______ _______ _______ _____ _____    ______ ____
ROOT
ATOM      1  C   UNL     1      -2.364  12.430  21.499  0.00  0.00    +0.000 A 
ATOM      2  C   UNL     1      -1.197  11.886  22.046  0.00  0.00    +0.000 A 
ATOM      3  F   UNL     1      -0.838  12.165  23.308  0.00  0.00    +0.000 F 
ATOM      4  C   UNL     1      -0.367  11.043  21.319  0.00  0.00    +0.000 A 
ATOM      5  C   UNL     1      -0.677  10.737  19.985  0.00  0.00    +0.000 A 
ATOM      6  C   UNL     1       0.242   9.826  19.228  0.00  0.00    +0.000 A 
ATOM      7  N   UNL     1       1.271   9.307  19.825  0.00  0.00    +0.000 NA
ATOM      8  C   UNL     1      -0.140   9.572  17.807  0.00  0.00    +0.000 A 
ATOM      9  C   UNL     1      -1.219  10.153  17.311  0.00  0.00    +0.000 A 
ATOM     10  N   UNL     1      -2.090  10.984  17.986  0.00  0.00    +0.000 N 
ATOM     11  C   UNL     1      -1.828  11.279  19.364  0.00  0.00    +0.000 A 
ATOM     12  C   UNL     1      -2.658  12.091  20.158  0.00  0.00    +0.000 A 
ATOM     13  F   UNL     1      -3.800  12.564  19.631  0.00  0.00    +0.000 F 
ENDROOT
BRANCH   1  17
ATOM     14  C   UNL     1      -3.427  16.898  23.541  0.00  0.00    +0.000 C 
ATOM     15  C   UNL     1      -3.771  15.470  23.249  0.00  0.00    +0.000 A 
ATOM     16  C   UNL     1      -2.908  14.656  22.531  0.00  0.00    +0.000 A 
ATOM     17  C   UNL     1      -3.251  13.320  22.277  0.00  0.00    +0.000 A 
ATOM     18  C   UNL     1      -4.475  12.870  22.787  0.00  0.00    +0.000 A 
ATOM     19  C   UNL     1      -5.291  13.738  23.495  0.00  0.00    +0.000 A 
ATOM     20  C   UNL     1      -6.610  13.283  24.042  0.00  0.00    +0.000 C 
ATOM     21  N   UNL     1      -4.956  15.024  23.731  0.00  0.00    +0.000 NA
ENDBRANCH   1  17
BRANCH  10  22
ATOM     22  C   UNL     1      -3.243  11.559  17.250  0.00  0.00    +0.000 C 
ATOM     23  C   UNL     1      -3.784  11.068  15.926  0.00  0.00    +0.000 C 
ATOM     24  C   UNL     1      -4.545  10.793  17.184  0.00  0.00    +0.000 C 
ENDBRANCH  10  22
BRANCH   7  25
ATOM     25  N   UNL     1       2.072   8.508  19.071  0.00  0.00    +0.000 N 
ATOM     26  H   UNL     1       2.953   8.888  18.733  0.00  0.00    +0.000 HD
BRANCH  25  27
ATOM     27  C   UNL     1       2.146   7.138  19.363  0.00  0.00    +0.000 A 
ATOM     28  C   UNL     1       1.752   6.580  20.573  0.00  0.00    +0.000 A 
ATOM     29  N   UNL     1       1.642   5.248  20.812  0.00  0.00    +0.000 NA
ATOM     30  C   UNL     1       1.892   4.412  19.790  0.00  0.00    +0.000 A 
ATOM     31  C   UNL     1       1.661   3.052  19.940  0.00  0.00    +0.000 A 
ATOM     32  C   UNL     1       1.863   2.152  18.889  0.00  0.00    +0.000 A 
ATOM     33  C   UNL     1       2.364   2.603  17.672  0.00  0.00    +0.000 A 
ATOM     34  C   UNL     1       2.623   3.959  17.499  0.00  0.00    +0.000 A 
ATOM     35  C   UNL     1       2.347   4.866  18.535  0.00  0.00    +0.000 A 
ATOM     36  C   UNL     1       2.473   6.245  18.343  0.00  0.00    +0.000 A 
ENDBRANCH  25  27
ENDBRANCH   7  25
TORSDOF 4
ENDMDL
MODEL 7
REMARK VINA RESULT:      -8.7      2.689      4.226
REMARK  Name = 
REMARK  6 active torsions:
REMARK  status: ('A' for Active; 'I' for Inactive)
REMARK    1  A    between atoms: C_1  and  C_2
REMARK    2  A    between atoms: C_4  and  C_5
REMARK    3  A    between atoms: N_11  and  N_12
REMARK    4  A    between atoms: N_12  and  C_13
REMARK    5  A    between atoms: N_25  and  C_26
REMARK    6  A    between atoms: C_33  and  C_34
REMARK                            x       y       z     vdW  Elec       q    Type
REMARK                         _______ _______ _______ _____ _____    ______ ____
ROOT
ATOM      1  C   UNL     1      -2.440  12.411  21.480  0.00  0.00    +0.000 A 
ATOM      2  C   UNL     1      -1.283  11.875  22.056  0.00  0.00    +0.000 A 
ATOM      3  F   UNL     1      -0.958  12.157  23.326  0.00  0.00    +0.000 F 
ATOM      4  C   UNL     1      -0.429  11.038  21.349  0.00  0.00    +0.000 A 
ATOM      5  C   UNL     1      -0.703  10.731  20.008  0.00  0.00    +0.000 A 
ATOM      6  C   UNL     1       0.240   9.826  19.274  0.00  0.00    +0.000 A 
ATOM      7  N   UNL     1       1.258   9.315  19.897  0.00  0.00    +0.000 NA
ATOM      8  C   UNL     1      -0.104   9.571  17.844  0.00  0.00    +0.000 A 
ATOM      9  C   UNL     1      -1.174  10.144  17.321  0.00  0.00    +0.000 A 
ATOM     10  N   UNL     1      -2.068  10.968  17.974  0.00  0.00    +0.000 N 
ATOM     11  C   UNL     1      -1.843  11.265  19.358  0.00  0.00    +0.000 A 
ATOM     12  C   UNL     1      -2.698  12.071  20.132  0.00  0.00    +0.000 A 
ATOM     13  F   UNL     1      -3.830  12.535  19.576  0.00  0.00    +0.000 F 
ENDROOT
BRANCH   1  17
ATOM     14  C   UNL     1      -6.643  13.173  24.128  0.00  0.00    +0.000 C 
ATOM     15  C   UNL     1      -5.366  13.662  23.519  0.00  0.00    +0.000 A 
ATOM     16  C   UNL     1      -4.540  12.810  22.801  0.00  0.00    +0.000 A 
ATOM     17  C   UNL     1      -3.352  13.295  22.236  0.00  0.00    +0.000 A 
ATOM     18  C   UNL     1      -3.064  14.652  22.426  0.00  0.00    +0.000 A 
ATOM     19  C   UNL     1      -3.933  15.447  23.159  0.00  0.00    +0.000 A 
ATOM     20  C   UNL     1      -3.642  16.900  23.385  0.00  0.00    +0.000 C 
ATOM     21  N   UNL     1      -5.072  14.972  23.703  0.00  0.00    +0.000 NA
ENDBRANCH   1  17
BRANCH  10  22
ATOM     22  C   UNL     1      -3.206  11.535  17.210  0.00  0.00    +0.000 C 
ATOM     23  C   UNL     1      -3.725  11.026  15.884  0.00  0.00    +0.000 C 
ATOM     24  C   UNL     1      -4.509  10.772  17.132  0.00  0.00    +0.000 C 
ENDBRANCH  10  22
BRANCH   7  25
ATOM     25  N   UNL     1       2.084   8.522  19.162  0.00  0.00    +0.000 N 
ATOM     26  H   UNL     1       2.981   8.900  18.869  0.00  0.00    +0.000 HD
BRANCH  25  27
ATOM     27  C   UNL     1       2.134   7.147  19.432  0.00  0.00    +0.000 A 
ATOM     28  C   UNL     1       1.726   6.576  20.632  0.00  0.00    +0.000 A 
ATOM     29  N   UNL     1       1.593   5.242  20.849  0.00  0.00    +0.000 NA
ATOM     30  C   UNL     1       1.832   4.418  19.815  0.00  0.00    +0.000 A 
ATOM     31  C   UNL     1       1.578   3.061  19.942  0.00  0.00    +0.000 A 
ATOM     32  C   UNL     1       1.768   2.174  18.878  0.00  0.00    +0.000 A 
ATOM     33  C   UNL     1       2.281   2.636  17.669  0.00  0.00    +0.000 A 
ATOM     34  C   UNL     1       2.564   3.990  17.520  0.00  0.00    +0.000 A 
ATOM     35  C   UNL     1       2.300   4.885  18.569  0.00  0.00    +0.000 A 
ATOM     36  C   UNL     1       2.448   6.264  18.399  0.00  0.00    +0.000 A 
ENDBRANCH  25  27
ENDBRANCH   7  25
TORSDOF 4
ENDMDL
MODEL 8
REMARK VINA RESULT:      -8.6      1.169      2.009
REMARK  Name = 
REMARK  6 active torsions:
REMARK  status: ('A' for Active; 'I' for Inactive)
REMARK    1  A    between atoms: C_1  and  C_2
REMARK    2  A    between atoms: C_4  and  C_5
REMARK    3  A    between atoms: N_11  and  N_12
REMARK    4  A    between atoms: N_12  and  C_13
REMARK    5  A    between atoms: N_25  and  C_26
REMARK    6  A    between atoms: C_33  and  C_34
REMARK                            x       y       z     vdW  Elec       q    Type
REMARK                         _______ _______ _______ _____ _____    ______ ____
ROOT
ATOM      1  C   UNL     1      -3.624  11.801  19.062  0.00  0.00    +0.000 A 
ATOM      2  C   UNL     1      -3.219  10.685  18.323  0.00  0.00    +0.000 A 
ATOM      3  F   UNL     1      -4.123   9.901  17.718  0.00  0.00    +0.000 F 
ATOM      4  C   UNL     1      -1.881  10.342  18.182  0.00  0.00    +0.000 A 
ATOM      5  C   UNL     1      -0.892  11.110  18.815  0.00  0.00    +0.000 A 
ATOM      6  C   UNL     1       0.543  10.711  18.644  0.00  0.00    +0.000 A 
ATOM      7  N   UNL     1       0.844   9.701  17.887  0.00  0.00    +0.000 NA
ATOM      8  C   UNL     1       1.532  11.559  19.371  0.00  0.00    +0.000 A 
ATOM      9  C   UNL     1       1.104  12.570  20.108  0.00  0.00    +0.000 A 
ATOM     10  N   UNL     1      -0.207  12.970  20.273  0.00  0.00    +0.000 N 
ATOM     11  C   UNL     1      -1.239  12.235  19.602  0.00  0.00    +0.000 A 
ATOM     12  C   UNL     1      -2.604  12.564  19.676  0.00  0.00    +0.000 A 
ATOM     13  F   UNL     1      -2.970  13.669  20.349  0.00  0.00    +0.000 F 
ENDROOT
BRANCH   1  17
ATOM     14  C   UNL     1      -7.833  13.891  17.278  0.00  0.00    +0.000 C 
ATOM     15  C   UNL     1      -7.076  13.163  18.345  0.00  0.00    +0.000 A 
ATOM     16  C   UNL     1      -5.735  12.848  18.187  0.00  0.00    +0.000 A 
ATOM     17  C   UNL     1      -5.049  12.170  19.205  0.00  0.00    +0.000 A 
ATOM     18  C   UNL     1      -5.775  11.851  20.359  0.00  0.00    +0.000 A 
ATOM     19  C   UNL     1      -7.115  12.194  20.450  0.00  0.00    +0.000 A 
ATOM     20  C   UNL     1      -7.917  11.855  21.670  0.00  0.00    +0.000 C 
ATOM     21  N   UNL     1      -7.769  12.842  19.464  0.00  0.00    +0.000 NA
ENDBRANCH   1  17
BRANCH  10  22
ATOM     22  C   UNL     1      -0.495  14.124  21.160  0.00  0.00    +0.000 C 
ATOM     23  C   UNL     1      -0.621  14.074  22.666  0.00  0.00    +0.000 C 
ATOM     24  C   UNL     1       0.598  14.678  22.045  0.00  0.00    +0.000 C 
ENDBRANCH  10  22
BRANCH   7  25
ATOM     25  N   UNL     1       2.163   9.381  17.796  0.00  0.00    +0.000 N 
ATOM     26  H   UNL     1       2.849  10.118  17.938  0.00  0.00    +0.000 HD
BRANCH  25  27
ATOM     27  C   UNL     1       2.601   8.132  18.261  0.00  0.00    +0.000 A 
ATOM     28  C   UNL     1       2.141   7.534  19.428  0.00  0.00    +0.000 A 
ATOM     29  N   UNL     1       2.410   6.256  19.801  0.00  0.00    +0.000 NA
ATOM     30  C   UNL     1       3.138   5.504  18.958  0.00  0.00    +0.000 A 
ATOM     31  C   UNL     1       3.324   4.156  19.223  0.00  0.00    +0.000 A 
ATOM     32  C   UNL     1       4.035   3.326  18.351  0.00  0.00    +0.000 A 
ATOM     33  C   UNL     1       4.628   3.859  17.211  0.00  0.00    +0.000 A 
ATOM     34  C   UNL     1       4.475   5.213  16.930  0.00  0.00    +0.000 A 
ATOM     35  C   UNL     1       3.697   6.023  17.773  0.00  0.00    +0.000 A 
ATOM     36  C   UNL     1       3.417   7.353  17.442  0.00  0.00    +0.000 A 
ENDBRANCH  25  27
ENDBRANCH   7  25
TORSDOF 4
ENDMDL
MODEL 9
REMARK VINA RESULT:      -8.5      4.004     11.052
REMARK  Name = 
REMARK  6 active torsions:
REMARK  status: ('A' for Active; 'I' for Inactive)
REMARK    1  A    between atoms: C_1  and  C_2
REMARK    2  A    between atoms: C_4  and  C_5
REMARK    3  A    between atoms: N_11  and  N_12
REMARK    4  A    between atoms: N_12  and  C_13
REMARK    5  A    between atoms: N_25  and  C_26
REMARK    6  A    between atoms: C_33  and  C_34
REMARK                            x       y       z     vdW  Elec       q    Type
REMARK                         _______ _______ _______ _____ _____    ______ ____
ROOT
ATOM      1  C   UNL     1       4.893   5.283  15.944  0.00  0.00    +0.000 A 
ATOM      2  C   UNL     1       4.837   6.601  16.408  0.00  0.00    +0.000 A 
ATOM      3  F   UNL     1       5.532   7.571  15.796  0.00  0.00    +0.000 F 
ATOM      4  C   UNL     1       4.070   6.962  17.508  0.00  0.00    +0.000 A 
ATOM      5  C   UNL     1       3.344   5.985  18.205  0.00  0.00    +0.000 A 
ATOM      6  C   UNL     1       2.527   6.409  19.388  0.00  0.00    +0.000 A 
ATOM      7  N   UNL     1       2.473   7.662  19.718  0.00  0.00    +0.000 NA
ATOM      8  C   UNL     1       1.807   5.308  20.093  0.00  0.00    +0.000 A 
ATOM      9  C   UNL     1       1.933   4.065  19.659  0.00  0.00    +0.000 A 
ATOM     10  N   UNL     1       2.665   3.647  18.565  0.00  0.00    +0.000 N 
ATOM     11  C   UNL     1       3.381   4.627  17.803  0.00  0.00    +0.000 A 
ATOM     12  C   UNL     1       4.139   4.323  16.657  0.00  0.00    +0.000 A 
ATOM     13  F   UNL     1       4.140   3.060  16.197  0.00  0.00    +0.000 F 
ENDROOT
BRANCH   1  17
ATOM     14  C   UNL     1       5.591   2.578  11.765  0.00  0.00    +0.000 C 
ATOM     15  C   UNL     1       6.037   3.612  12.753  0.00  0.00    +0.000 A 
ATOM     16  C   UNL     1       5.261   3.934  13.855  0.00  0.00    +0.000 A 
ATOM     17  C   UNL     1       5.704   4.901  14.768  0.00  0.00    +0.000 A 
ATOM     18  C   UNL     1       6.946   5.496  14.512  0.00  0.00    +0.000 A 
ATOM     19  C   UNL     1       7.669   5.129  13.388  0.00  0.00    +0.000 A 
ATOM     20  C   UNL     1       8.996   5.758  13.086  0.00  0.00    +0.000 C 
ATOM     21  N   UNL     1       7.233   4.200  12.512  0.00  0.00    +0.000 NA
ENDBRANCH   1  17
BRANCH  10  22
ATOM     22  C   UNL     1       2.702   2.200  18.242  0.00  0.00    +0.000 C 
ATOM     23  C   UNL     1       3.652   1.183  18.835  0.00  0.00    +0.000 C 
ATOM     24  C   UNL     1       2.218   1.194  19.261  0.00  0.00    +0.000 C 
ENDBRANCH  10  22
BRANCH   7  25
ATOM     25  N   UNL     1       1.733   7.971  20.816  0.00  0.00    +0.000 N 
ATOM     26  H   UNL     1       2.097   7.721  21.731  0.00  0.00    +0.000 HD
BRANCH  25  27
ATOM     27  C   UNL     1       0.993   9.163  20.832  0.00  0.00    +0.000 A 
ATOM     28  C   UNL     1       0.721   9.923  19.701  0.00  0.00    +0.000 A 
ATOM     29  N   UNL     1      -0.140  10.973  19.662  0.00  0.00    +0.000 NA
ATOM     30  C   UNL     1      -0.809  11.268  20.790  0.00  0.00    +0.000 A 
ATOM     31  C   UNL     1      -1.800  12.239  20.768  0.00  0.00    +0.000 A 
ATOM     32  C   UNL     1      -2.553  12.546  21.906  0.00  0.00    +0.000 A 
ATOM     33  C   UNL     1      -2.277  11.915  23.115  0.00  0.00    +0.000 A 
ATOM     34  C   UNL     1      -1.275  10.951  23.170  0.00  0.00    +0.000 A 
ATOM     35  C   UNL     1      -0.575  10.596  22.006  0.00  0.00    +0.000 A 
ATOM     36  C   UNL     1       0.341   9.540  22.007  0.00  0.00    +0.000 A 
ENDBRANCH  25  27
ENDBRANCH   7  25
TORSDOF 4
ENDMDL
