MODEL 1
REMARK VINA RESULT:      -8.8      0.000      0.000
REMARK  Name = 
REMARK  7 active torsions:
REMARK  status: ('A' for Active; 'I' for Inactive)
REMARK    1  A    between atoms: C_4  and  C_5
REMARK    2  A    between atoms: C_4  and  C_29
REMARK    3  A    between atoms: C_5  and  N_6
REMARK    4  A    between atoms: C_8  and  C_9
REMARK    5  A    between atoms: N_12  and  C_13
REMARK    6  A    between atoms: C_13  and  C_14
REMARK    7  A    between atoms: C_14  and  C_15
REMARK                            x       y       z     vdW  Elec       q    Type
REMARK                         _______ _______ _______ _____ _____    ______ ____
ROOT
ATOM      1  N   UNL     1       1.420   9.764  18.903  0.00  0.00    +0.000 N 
ATOM      2  N   UNL     1       1.197   9.706  20.247  0.00  0.00    +0.000 NA
ATOM      3  C   UNL     1       1.438   8.578  20.835  0.00  0.00    +0.000 A 
ATOM      4  C   UNL     1       1.354   8.482  22.332  0.00  0.00    +0.000 C 
ATOM      5  C   UNL     1       1.797   7.329  20.069  0.00  0.00    +0.000 A 
ATOM      6  O   UNL     1       1.743   6.253  20.654  0.00  0.00    +0.000 OA
ATOM      7  N   UNL     1       2.151   7.512  18.742  0.00  0.00    +0.000 N 
ATOM      8  C   UNL     1       2.052   8.763  18.173  0.00  0.00    +0.000 A 
ATOM      9  O   UNL     1       2.517   9.034  17.074  0.00  0.00    +0.000 OA
ENDROOT
BRANCH   1  10
ATOM     10  C   UNL     1       1.236  11.074  18.265  0.00  0.00    +0.000 C 
BRANCH  10  14
ATOM     11  C   UNL     1       1.344  14.146  21.378  0.00  0.00    +0.000 C 
ATOM     12  C   UNL     1       0.833  13.526  20.310  0.00  0.00    +0.000 C 
ATOM     13  C   UNL     1       0.079  12.250  20.262  0.00  0.00    +0.000 C 
ATOM     14  C   UNL     1       0.037  11.941  18.760  0.00  0.00    +0.000 C 
ATOM     15  O   UNL     1       0.237  13.238  18.128  0.00  0.00    +0.000 OA
ATOM     16  C   UNL     1       0.898  14.089  18.949  0.00  0.00    +0.000 C 
ATOM     17  O   UNL     1       1.427  15.132  18.618  0.00  0.00    +0.000 OA
BRANCH  14  18
ATOM     18  C   UNL     1      -1.338  11.394  18.360  0.00  0.00    +0.000 A 
ATOM     19  C   UNL     1      -2.528  11.988  18.816  0.00  0.00    +0.000 A 
ATOM     20  C   UNL     1      -3.778  11.478  18.453  0.00  0.00    +0.000 A 
ATOM     21  C   UNL     1      -3.865  10.372  17.615  0.00  0.00    +0.000 A 
ATOM     22  C   UNL     1      -2.702   9.758  17.160  0.00  0.00    +0.000 A 
ATOM     23  C   UNL     1      -1.452  10.252  17.546  0.00  0.00    +0.000 A 
ENDBRANCH  14  18
ENDBRANCH  10  14
ENDBRANCH   1  10
BRANCH   7  24
ATOM     24  C   UNL     1       2.404   6.285  17.938  0.00  0.00    +0.000 C 
BRANCH  24  25
ATOM     25  C   UNL     1       3.842   5.685  17.761  0.00  0.00    +0.000 C 
ATOM     26  C   UNL     1       4.926   6.465  18.525  0.00  0.00    +0.000 C 
ATOM     27  C   UNL     1       5.965   6.669  17.487  0.00  0.00    +0.000 C 
ATOM     28  C   UNL     1       7.065   7.425  17.555  0.00  0.00    +0.000 C 
ATOM     29  C   UNL     1       5.513   6.065  16.214  0.00  0.00    +0.000 C 
ATOM     30  O   UNL     1       6.176   5.908  15.208  0.00  0.00    +0.000 OA
ATOM     31  O   UNL     1       4.206   5.708  16.367  0.00  0.00    +0.000 OA
BRANCH  25  32
ATOM     32  C   UNL     1       3.882   4.189  18.168  0.00  0.00    +0.000 A 
ATOM     33  C   UNL     1       4.470   3.781  19.387  0.00  0.00    +0.000 A 
ATOM     34  C   UNL     1       4.380   2.468  19.843  0.00  0.00    +0.000 A 
ATOM     35  C   UNL     1       3.717   1.519  19.077  0.00  0.00    +0.000 A 
ATOM     36  C   UNL     1       3.169   1.880  17.848  0.00  0.00    +0.000 A 
ATOM     37  C   UNL     1       3.250   3.202  17.394  0.00  0.00    +0.000 A 
ENDBRANCH  25  32
ENDBRANCH  24  25
ENDBRANCH   7  24
TORSDOF 6
ENDMDL
MODEL 2
REMARK VINA RESULT:      -8.6      0.201      1.134
REMARK  Name = 
REMARK  7 active torsions:
REMARK  status: ('A' for Active; 'I' for Inactive)
REMARK    1  A    between atoms: C_4  and  C_5
REMARK    2  A    between atoms: C_4  and  C_29
REMARK    3  A    between atoms: C_5  and  N_6
REMARK    4  A    between atoms: C_8  and  C_9
REMARK    5  A    between atoms: N_12  and  C_13
REMARK    6  A    between atoms: C_13  and  C_14
REMARK    7  A    between atoms: C_14  and  C_15
REMARK                            x       y       z     vdW  Elec       q    Type
REMARK                         _______ _______ _______ _____ _____    ______ ____
ROOT
ATOM      1  N   UNL     1       1.377   9.911  18.966  0.00  0.00    +0.000 N 
ATOM      2  N   UNL     1       1.178   9.796  20.311  0.00  0.00    +0.000 NA
ATOM      3  C   UNL     1       1.432   8.644  20.846  0.00  0.00    +0.000 A 
ATOM      4  C   UNL     1       1.375   8.485  22.339  0.00  0.00    +0.000 C 
ATOM      5  C   UNL     1       1.781   7.430  20.022  0.00  0.00    +0.000 A 
ATOM      6  O   UNL     1       1.740   6.331  20.562  0.00  0.00    +0.000 OA
ATOM      7  N   UNL     1       2.112   7.670  18.698  0.00  0.00    +0.000 N 
ATOM      8  C   UNL     1       1.999   8.943  18.184  0.00  0.00    +0.000 A 
ATOM      9  O   UNL     1       2.444   9.262  17.090  0.00  0.00    +0.000 OA
ENDROOT
BRANCH   1  10
ATOM     10  C   UNL     1       1.179  11.246  18.388  0.00  0.00    +0.000 C 
BRANCH  10  14
ATOM     11  C   UNL     1       1.015  14.282  21.533  0.00  0.00    +0.000 C 
ATOM     12  C   UNL     1       0.574  13.647  20.442  0.00  0.00    +0.000 C 
ATOM     13  C   UNL     1      -0.105  12.332  20.357  0.00  0.00    +0.000 C 
ATOM     14  C   UNL     1      -0.081  12.039  18.852  0.00  0.00    +0.000 C 
ATOM     15  O   UNL     1       0.066  13.352  18.240  0.00  0.00    +0.000 OA
ATOM     16  C   UNL     1       0.651  14.230  19.091  0.00  0.00    +0.000 C 
ATOM     17  O   UNL     1       1.131  15.304  18.787  0.00  0.00    +0.000 OA
BRANCH  14  18
ATOM     18  C   UNL     1      -1.410  11.422  18.401  0.00  0.00    +0.000 A 
ATOM     19  C   UNL     1      -1.451  10.293  17.563  0.00  0.00    +0.000 A 
ATOM     20  C   UNL     1      -2.668   9.742  17.149  0.00  0.00    +0.000 A 
ATOM     21  C   UNL     1      -3.868  10.299  17.574  0.00  0.00    +0.000 A 
ATOM     22  C   UNL     1      -3.855  11.424  18.393  0.00  0.00    +0.000 A 
ATOM     23  C   UNL     1      -2.639  11.991  18.785  0.00  0.00    +0.000 A 
ENDBRANCH  14  18
ENDBRANCH  10  14
ENDBRANCH   1  10
BRANCH   7  24
ATOM     24  C   UNL     1       2.354   6.478  17.838  0.00  0.00    +0.000 C 
BRANCH  24  25
ATOM     25  C   UNL     1       3.751   5.769  17.769  0.00  0.00    +0.000 C 
ATOM     26  C   UNL     1       4.847   6.506  18.557  0.00  0.00    +0.000 C 
ATOM     27  C   UNL     1       5.952   6.584  17.571  0.00  0.00    +0.000 C 
ATOM     28  C   UNL     1       7.100   7.263  17.668  0.00  0.00    +0.000 C 
ATOM     29  C   UNL     1       5.524   5.953  16.303  0.00  0.00    +0.000 C 
ATOM     30  O   UNL     1       6.226   5.701  15.344  0.00  0.00    +0.000 OA
ATOM     31  O   UNL     1       4.188   5.699  16.399  0.00  0.00    +0.000 OA
BRANCH  25  32
ATOM     32  C   UNL     1       3.657   4.296  18.245  0.00  0.00    +0.000 A 
ATOM     33  C   UNL     1       2.904   3.343  17.521  0.00  0.00    +0.000 A 
ATOM     34  C   UNL     1       2.933   1.989  17.842  0.00  0.00    +0.000 A 
ATOM     35  C   UNL     1       3.699   1.551  18.913  0.00  0.00    +0.000 A 
ATOM     36  C   UNL     1       4.413   2.474  19.676  0.00  0.00    +0.000 A 
ATOM     37  C   UNL     1       4.394   3.834  19.348  0.00  0.00    +0.000 A 
ENDBRANCH  25  32
ENDBRANCH  24  25
ENDBRANCH   7  24
TORSDOF 6
ENDMDL
MODEL 3
REMARK VINA RESULT:      -8.4      1.258      1.298
REMARK  Name = 
REMARK  7 active torsions:
REMARK  status: ('A' for Active; 'I' for Inactive)
REMARK    1  A    between atoms: C_4  and  C_5
REMARK    2  A    between atoms: C_4  and  C_29
REMARK    3  A    between atoms: C_5  and  N_6
REMARK    4  A    between atoms: C_8  and  C_9
REMARK    5  A    between atoms: N_12  and  C_13
REMARK    6  A    between atoms: C_13  and  C_14
REMARK    7  A    between atoms: C_14  and  C_15
REMARK                            x       y       z     vdW  Elec       q    Type
REMARK                         _______ _______ _______ _____ _____    ______ ____
ROOT
ATOM      1  N   UNL     1       1.220  10.234  19.224  0.00  0.00    +0.000 N 
ATOM      2  N   UNL     1       1.062  10.176  20.577  0.00  0.00    +0.000 NA
ATOM      3  C   UNL     1       1.264   9.030  21.143  0.00  0.00    +0.000 A 
ATOM      4  C   UNL     1       1.250   8.923  22.642  0.00  0.00    +0.000 C 
ATOM      5  C   UNL     1       1.509   7.769  20.352  0.00  0.00    +0.000 A 
ATOM      6  O   UNL     1       1.420   6.693  20.930  0.00  0.00    +0.000 OA
ATOM      7  N   UNL     1       1.807   7.944  19.009  0.00  0.00    +0.000 N 
ATOM      8  C   UNL     1       1.754   9.205  18.455  0.00  0.00    +0.000 A 
ATOM      9  O   UNL     1       2.179   9.459  17.337  0.00  0.00    +0.000 OA
ENDROOT
BRANCH   1  10
ATOM     10  C   UNL     1       1.084  11.560  18.606  0.00  0.00    +0.000 C 
BRANCH  10  14
ATOM     11  C   UNL     1       0.532  14.850  21.435  0.00  0.00    +0.000 C 
ATOM     12  C   UNL     1       0.214  14.105  20.372  0.00  0.00    +0.000 C 
ATOM     13  C   UNL     1      -0.411  12.760  20.347  0.00  0.00    +0.000 C 
ATOM     14  C   UNL     1      -0.240  12.337  18.883  0.00  0.00    +0.000 C 
ATOM     15  O   UNL     1      -0.081  13.597  18.169  0.00  0.00    +0.000 OA
ATOM     16  C   UNL     1       0.394  14.569  18.985  0.00  0.00    +0.000 C 
ATOM     17  O   UNL     1       0.864  15.631  18.628  0.00  0.00    +0.000 OA
BRANCH  14  18
ATOM     18  C   UNL     1      -1.501  11.628  18.375  0.00  0.00    +0.000 A 
ATOM     19  C   UNL     1      -2.783  11.994  18.823  0.00  0.00    +0.000 A 
ATOM     20  C   UNL     1      -3.927  11.336  18.361  0.00  0.00    +0.000 A 
ATOM     21  C   UNL     1      -3.814  10.309  17.431  0.00  0.00    +0.000 A 
ATOM     22  C   UNL     1      -2.557   9.920  16.981  0.00  0.00    +0.000 A 
ATOM     23  C   UNL     1      -1.412  10.560  17.463  0.00  0.00    +0.000 A 
ENDBRANCH  14  18
ENDBRANCH  10  14
ENDBRANCH   1  10
BRANCH   7  24
ATOM     24  C   UNL     1       1.946   6.713  18.185  0.00  0.00    +0.000 C 
BRANCH  24  25
ATOM     25  C   UNL     1       3.068   5.651  18.453  0.00  0.00    +0.000 C 
ATOM     26  C   UNL     1       4.317   6.242  19.128  0.00  0.00    +0.000 C 
ATOM     27  C   UNL     1       5.416   5.724  18.278  0.00  0.00    +0.000 C 
ATOM     28  C   UNL     1       6.712   6.050  18.311  0.00  0.00    +0.000 C 
ATOM     29  C   UNL     1       4.846   4.905  17.185  0.00  0.00    +0.000 C 
ATOM     30  O   UNL     1       5.461   4.203  16.406  0.00  0.00    +0.000 OA
ATOM     31  O   UNL     1       3.494   5.074  17.204  0.00  0.00    +0.000 OA
BRANCH  25  32
ATOM     32  C   UNL     1       2.528   4.462  19.290  0.00  0.00    +0.000 A 
ATOM     33  C   UNL     1       3.153   4.079  20.499  0.00  0.00    +0.000 A 
ATOM     34  C   UNL     1       2.596   3.119  21.340  0.00  0.00    +0.000 A 
ATOM     35  C   UNL     1       1.409   2.495  20.981  0.00  0.00    +0.000 A 
ATOM     36  C   UNL     1       0.796   2.816  19.771  0.00  0.00    +0.000 A 
ATOM     37  C   UNL     1       1.348   3.789  18.930  0.00  0.00    +0.000 A 
ENDBRANCH  25  32
ENDBRANCH  24  25
ENDBRANCH   7  24
TORSDOF 6
ENDMDL
MODEL 4
REMARK VINA RESULT:      -8.4      0.706      1.120
REMARK  Name = 
REMARK  7 active torsions:
REMARK  status: ('A' for Active; 'I' for Inactive)
REMARK    1  A    between atoms: C_4  and  C_5
REMARK    2  A    between atoms: C_4  and  C_29
REMARK    3  A    between atoms: C_5  and  N_6
REMARK    4  A    between atoms: C_8  and  C_9
REMARK    5  A    between atoms: N_12  and  C_13
REMARK    6  A    between atoms: C_13  and  C_14
REMARK    7  A    between atoms: C_14  and  C_15
REMARK                            x       y       z     vdW  Elec       q    Type
REMARK                         _______ _______ _______ _____ _____    ______ ____
ROOT
ATOM      1  N   UNL     1       1.526   9.746  18.844  0.00  0.00    +0.000 N 
ATOM      2  N   UNL     1       1.249   9.755  20.180  0.00  0.00    +0.000 NA
ATOM      3  C   UNL     1       1.417   8.643  20.821  0.00  0.00    +0.000 A 
ATOM      4  C   UNL     1       1.272   8.613  22.317  0.00  0.00    +0.000 C 
ATOM      5  C   UNL     1       1.752   7.348  20.122  0.00  0.00    +0.000 A 
ATOM      6  O   UNL     1       1.628   6.302  20.747  0.00  0.00    +0.000 OA
ATOM      7  N   UNL     1       2.165   7.460  18.804  0.00  0.00    +0.000 N 
ATOM      8  C   UNL     1       2.142   8.690  18.181  0.00  0.00    +0.000 A 
ATOM      9  O   UNL     1       2.660   8.894  17.093  0.00  0.00    +0.000 OA
ENDROOT
BRANCH   1  10
ATOM     10  C   UNL     1       1.425  11.035  18.147  0.00  0.00    +0.000 C 
BRANCH  10  14
ATOM     11  C   UNL     1       3.160  13.887  20.973  0.00  0.00    +0.000 C 
ATOM     12  C   UNL     1       2.242  13.455  20.104  0.00  0.00    +0.000 C 
ATOM     13  C   UNL     1       1.187  12.435  20.313  0.00  0.00    +0.000 C 
ATOM     14  C   UNL     1       0.675  12.184  18.890  0.00  0.00    +0.000 C 
ATOM     15  O   UNL     1       1.045  13.392  18.164  0.00  0.00    +0.000 OA
ATOM     16  C   UNL     1       2.101  14.011  18.746  0.00  0.00    +0.000 C 
ATOM     17  O   UNL     1       2.786  14.878  18.239  0.00  0.00    +0.000 OA
BRANCH  14  18
ATOM     18  C   UNL     1      -0.852  12.043  18.882  0.00  0.00    +0.000 A 
ATOM     19  C   UNL     1      -1.520  11.325  17.874  0.00  0.00    +0.000 A 
ATOM     20  C   UNL     1      -2.914  11.209  17.869  0.00  0.00    +0.000 A 
ATOM     21  C   UNL     1      -3.667  11.796  18.879  0.00  0.00    +0.000 A 
ATOM     22  C   UNL     1      -3.031  12.523  19.880  0.00  0.00    +0.000 A 
ATOM     23  C   UNL     1      -1.640  12.662  19.870  0.00  0.00    +0.000 A 
ENDBRANCH  14  18
ENDBRANCH  10  14
ENDBRANCH   1  10
BRANCH   7  24
ATOM     24  C   UNL     1       2.395   6.191  18.061  0.00  0.00    +0.000 C 
BRANCH  24  25
ATOM     25  C   UNL     1       3.832   5.605  17.835  0.00  0.00    +0.000 C 
ATOM     26  C   UNL     1       4.929   6.377  18.587  0.00  0.00    +0.000 C 
ATOM     27  C   UNL     1       5.940   6.610  17.528  0.00  0.00    +0.000 C 
ATOM     28  C   UNL     1       7.037   7.373  17.585  0.00  0.00    +0.000 C 
ATOM     29  C   UNL     1       5.460   6.030  16.255  0.00  0.00    +0.000 C 
ATOM     30  O   UNL     1       6.098   5.899  15.229  0.00  0.00    +0.000 OA
ATOM     31  O   UNL     1       4.160   5.660  16.434  0.00  0.00    +0.000 OA
BRANCH  25  32
ATOM     32  C   UNL     1       3.892   4.102  18.210  0.00  0.00    +0.000 A 
ATOM     33  C   UNL     1       4.531   3.671  19.395  0.00  0.00    +0.000 A 
ATOM     34  C   UNL     1       4.462   2.349  19.826  0.00  0.00    +0.000 A 
ATOM     35  C   UNL     1       3.771   1.413  19.070  0.00  0.00    +0.000 A 
ATOM     36  C   UNL     1       3.171   1.798  17.872  0.00  0.00    +0.000 A 
ATOM     37  C   UNL     1       3.230   3.129  17.442  0.00  0.00    +0.000 A 
ENDBRANCH  25  32
ENDBRANCH  24  25
ENDBRANCH   7  24
TORSDOF 6
ENDMDL
MODEL 5
REMARK VINA RESULT:      -8.3      1.145      2.961
REMARK  Name = 
REMARK  7 active torsions:
REMARK  status: ('A' for Active; 'I' for Inactive)
REMARK    1  A    between atoms: C_4  and  C_5
REMARK    2  A    between atoms: C_4  and  C_29
REMARK    3  A    between atoms: C_5  and  N_6
REMARK    4  A    between atoms: C_8  and  C_9
REMARK    5  A    between atoms: N_12  and  C_13
REMARK    6  A    between atoms: C_13  and  C_14
REMARK    7  A    between atoms: C_14  and  C_15
REMARK                            x       y       z     vdW  Elec       q    Type
REMARK                         _______ _______ _______ _____ _____    ______ ____
ROOT
ATOM      1  N   UNL     1       1.622   9.450  18.888  0.00  0.00    +0.000 N 
ATOM      2  N   UNL     1       1.310   9.439  20.216  0.00  0.00    +0.000 NA
ATOM      3  C   UNL     1       1.424   8.308  20.836  0.00  0.00    +0.000 A 
ATOM      4  C   UNL     1       1.238   8.251  22.327  0.00  0.00    +0.000 C 
ATOM      5  C   UNL     1       1.734   7.019  20.117  0.00  0.00    +0.000 A 
ATOM      6  O   UNL     1       1.559   5.964  20.714  0.00  0.00    +0.000 OA
ATOM      7  N   UNL     1       2.186   7.146  18.813  0.00  0.00    +0.000 N 
ATOM      8  C   UNL     1       2.220   8.388  18.218  0.00  0.00    +0.000 A 
ATOM      9  O   UNL     1       2.774   8.599  17.148  0.00  0.00    +0.000 OA
ENDROOT
BRANCH   1  10
ATOM     10  C   UNL     1       1.582  10.757  18.218  0.00  0.00    +0.000 C 
BRANCH  10  14
ATOM     11  C   UNL     1       2.142  13.979  21.124  0.00  0.00    +0.000 C 
ATOM     12  C   UNL     1       1.522  13.353  20.119  0.00  0.00    +0.000 C 
ATOM     13  C   UNL     1       0.643  12.160  20.182  0.00  0.00    +0.000 C 
ATOM     14  C   UNL     1       0.500  11.769  18.706  0.00  0.00    +0.000 C 
ATOM     15  O   UNL     1       0.799  13.000  17.986  0.00  0.00    +0.000 OA
ATOM     16  C   UNL     1       1.579  13.826  18.724  0.00  0.00    +0.000 C 
ATOM     17  O   UNL     1       2.193  14.787  18.306  0.00  0.00    +0.000 OA
BRANCH  14  18
ATOM     18  C   UNL     1      -0.940  11.344  18.396  0.00  0.00    +0.000 A 
ATOM     19  C   UNL     1      -1.221  10.234  17.580  0.00  0.00    +0.000 A 
ATOM     20  C   UNL     1      -2.538   9.859  17.295  0.00  0.00    +0.000 A 
ATOM     21  C   UNL     1      -3.600  10.577  17.832  0.00  0.00    +0.000 A 
ATOM     22  C   UNL     1      -3.349  11.687  18.633  0.00  0.00    +0.000 A 
ATOM     23  C   UNL     1      -2.033  12.078  18.895  0.00  0.00    +0.000 A 
ENDBRANCH  14  18
ENDBRANCH  10  14
ENDBRANCH   1  10
BRANCH   7  24
ATOM     24  C   UNL     1       2.393   5.886  18.047  0.00  0.00    +0.000 C 
BRANCH  24  25
ATOM     25  C   UNL     1       3.572   4.902  18.365  0.00  0.00    +0.000 C 
ATOM     26  C   UNL     1       3.592   3.662  17.455  0.00  0.00    +0.000 C 
ATOM     27  C   UNL     1       3.723   2.552  18.430  0.00  0.00    +0.000 C 
ATOM     28  C   UNL     1       3.633   1.237  18.204  0.00  0.00    +0.000 C 
ATOM     29  C   UNL     1       3.763   3.106  19.802  0.00  0.00    +0.000 C 
ATOM     30  O   UNL     1       4.022   2.500  20.823  0.00  0.00    +0.000 OA
ATOM     31  O   UNL     1       3.456   4.431  19.721  0.00  0.00    +0.000 OA
BRANCH  25  32
ATOM     32  C   UNL     1       4.942   5.626  18.300  0.00  0.00    +0.000 A 
ATOM     33  C   UNL     1       5.952   5.360  19.253  0.00  0.00    +0.000 A 
ATOM     34  C   UNL     1       7.238   5.880  19.124  0.00  0.00    +0.000 A 
ATOM     35  C   UNL     1       7.542   6.704  18.049  0.00  0.00    +0.000 A 
ATOM     36  C   UNL     1       6.553   7.024  17.120  0.00  0.00    +0.000 A 
ATOM     37  C   UNL     1       5.264   6.493  17.242  0.00  0.00    +0.000 A 
ENDBRANCH  25  32
ENDBRANCH  24  25
ENDBRANCH   7  24
TORSDOF 6
ENDMDL
MODEL 6
REMARK VINA RESULT:      -8.2      1.666      8.533
REMARK  Name = 
REMARK  7 active torsions:
REMARK  status: ('A' for Active; 'I' for Inactive)
REMARK    1  A    between atoms: C_4  and  C_5
REMARK    2  A    between atoms: C_4  and  C_29
REMARK    3  A    between atoms: C_5  and  N_6
REMARK    4  A    between atoms: C_8  and  C_9
REMARK    5  A    between atoms: N_12  and  C_13
REMARK    6  A    between atoms: C_13  and  C_14
REMARK    7  A    between atoms: C_14  and  C_15
REMARK                            x       y       z     vdW  Elec       q    Type
REMARK                         _______ _______ _______ _____ _____    ______ ____
ROOT
ATOM      1  N   UNL     1       3.050   6.944  18.232  0.00  0.00    +0.000 N 
ATOM      2  N   UNL     1       2.801   5.987  19.170  0.00  0.00    +0.000 NA
ATOM      3  C   UNL     1       2.091   6.339  20.194  0.00  0.00    +0.000 A 
ATOM      4  C   UNL     1       1.655   5.305  21.193  0.00  0.00    +0.000 C 
ATOM      5  C   UNL     1       1.679   7.770  20.438  0.00  0.00    +0.000 A 
ATOM      6  O   UNL     1       1.251   8.070  21.547  0.00  0.00    +0.000 OA
ATOM      7  N   UNL     1       1.837   8.638  19.369  0.00  0.00    +0.000 N 
ATOM      8  C   UNL     1       2.446   8.197  18.214  0.00  0.00    +0.000 A 
ATOM      9  O   UNL     1       2.453   8.844  17.176  0.00  0.00    +0.000 OA
ENDROOT
BRANCH   1  10
ATOM     10  C   UNL     1       3.774   6.508  17.030  0.00  0.00    +0.000 C 
BRANCH  10  14
ATOM     11  C   UNL     1       7.169   5.222  14.590  0.00  0.00    +0.000 C 
ATOM     12  C   UNL     1       6.360   5.179  15.653  0.00  0.00    +0.000 C 
ATOM     13  C   UNL     1       4.990   4.619  15.743  0.00  0.00    +0.000 C 
ATOM     14  C   UNL     1       4.506   5.133  17.104  0.00  0.00    +0.000 C 
ATOM     15  O   UNL     1       5.735   5.412  17.833  0.00  0.00    +0.000 OA
ATOM     16  C   UNL     1       6.765   5.657  16.987  0.00  0.00    +0.000 C 
ATOM     17  O   UNL     1       7.828   6.163  17.287  0.00  0.00    +0.000 OA
BRANCH  14  18
ATOM     18  C   UNL     1       3.720   4.044  17.844  0.00  0.00    +0.000 A 
ATOM     19  C   UNL     1       4.244   3.401  18.980  0.00  0.00    +0.000 A 
ATOM     20  C   UNL     1       3.524   2.403  19.643  0.00  0.00    +0.000 A 
ATOM     21  C   UNL     1       2.260   2.037  19.195  0.00  0.00    +0.000 A 
ATOM     22  C   UNL     1       1.725   2.650  18.067  0.00  0.00    +0.000 A 
ATOM     23  C   UNL     1       2.456   3.628  17.387  0.00  0.00    +0.000 A 
ENDBRANCH  14  18
ENDBRANCH  10  14
ENDBRANCH   1  10
BRANCH   7  24
ATOM     24  C   UNL     1       1.540  10.075  19.620  0.00  0.00    +0.000 C 
BRANCH  24  25
ATOM     25  C   UNL     1       0.080  10.644  19.583  0.00  0.00    +0.000 C 
ATOM     26  C   UNL     1      -0.986   9.568  19.318  0.00  0.00    +0.000 C 
ATOM     27  C   UNL     1      -1.788  10.173  18.227  0.00  0.00    +0.000 C 
ATOM     28  C   UNL     1      -2.755   9.606  17.498  0.00  0.00    +0.000 C 
ATOM     29  C   UNL     1      -1.222  11.494  17.876  0.00  0.00    +0.000 C 
ATOM     30  O   UNL     1      -1.718  12.326  17.143  0.00  0.00    +0.000 OA
ATOM     31  O   UNL     1      -0.031  11.619  18.528  0.00  0.00    +0.000 OA
BRANCH  25  32
ATOM     32  C   UNL     1      -0.257  11.413  20.887  0.00  0.00    +0.000 A 
ATOM     33  C   UNL     1      -0.020  12.802  20.995  0.00  0.00    +0.000 A 
ATOM     34  C   UNL     1      -0.456  13.537  22.095  0.00  0.00    +0.000 A 
ATOM     35  C   UNL     1      -1.122  12.896  23.130  0.00  0.00    +0.000 A 
ATOM     36  C   UNL     1      -1.327  11.519  23.074  0.00  0.00    +0.000 A 
ATOM     37  C   UNL     1      -0.899  10.780  21.965  0.00  0.00    +0.000 A 
ENDBRANCH  25  32
ENDBRANCH  24  25
ENDBRANCH   7  24
TORSDOF 6
ENDMDL
MODEL 7
REMARK VINA RESULT:      -8.2      0.796      1.272
REMARK  Name = 
REMARK  7 active torsions:
REMARK  status: ('A' for Active; 'I' for Inactive)
REMARK    1  A    between atoms: C_4  and  C_5
REMARK    2  A    between atoms: C_4  and  C_29
REMARK    3  A    between atoms: C_5  and  N_6
REMARK    4  A    between atoms: C_8  and  C_9
REMARK    5  A    between atoms: N_12  and  C_13
REMARK    6  A    between atoms: C_13  and  C_14
REMARK    7  A    between atoms: C_14  and  C_15
REMARK                            x       y       z     vdW  Elec       q    Type
REMARK                         _______ _______ _______ _____ _____    ______ ____
ROOT
ATOM      1  N   UNL     1       1.558   9.893  18.865  0.00  0.00    +0.000 N 
ATOM      2  N   UNL     1       1.291   9.894  20.203  0.00  0.00    +0.000 NA
ATOM      3  C   UNL     1       1.430   8.770  20.830  0.00  0.00    +0.000 A 
ATOM      4  C   UNL     1       1.294   8.727  22.326  0.00  0.00    +0.000 C 
ATOM      5  C   UNL     1       1.720   7.475  20.113  0.00  0.00    +0.000 A 
ATOM      6  O   UNL     1       1.570   6.425  20.726  0.00  0.00    +0.000 OA
ATOM      7  N   UNL     1       2.128   7.590  18.793  0.00  0.00    +0.000 N 
ATOM      8  C   UNL     1       2.138   8.827  18.186  0.00  0.00    +0.000 A 
ATOM      9  O   UNL     1       2.654   9.029  17.096  0.00  0.00    +0.000 OA
ENDROOT
BRANCH   1  10
ATOM     10  C   UNL     1       1.491  11.193  18.184  0.00  0.00    +0.000 C 
BRANCH  10  14
ATOM     11  C   UNL     1       3.391  14.066  20.881  0.00  0.00    +0.000 C 
ATOM     12  C   UNL     1       2.426  13.631  20.065  0.00  0.00    +0.000 C 
ATOM     13  C   UNL     1       1.375  12.621  20.342  0.00  0.00    +0.000 C 
ATOM     14  C   UNL     1       0.789  12.357  18.950  0.00  0.00    +0.000 C 
ATOM     15  O   UNL     1       1.131  13.553  18.191  0.00  0.00    +0.000 OA
ATOM     16  C   UNL     1       2.219  14.171  18.710  0.00  0.00    +0.000 C 
ATOM     17  O   UNL     1       2.884  15.025  18.157  0.00  0.00    +0.000 OA
BRANCH  14  18
ATOM     18  C   UNL     1      -0.737  12.229  19.022  0.00  0.00    +0.000 A 
ATOM     19  C   UNL     1      -1.460  12.661  20.149  0.00  0.00    +0.000 A 
ATOM     20  C   UNL     1      -2.851  12.531  20.210  0.00  0.00    +0.000 A 
ATOM     21  C   UNL     1      -3.549  11.981  19.141  0.00  0.00    +0.000 A 
ATOM     22  C   UNL     1      -2.857  11.535  18.021  0.00  0.00    +0.000 A 
ATOM     23  C   UNL     1      -1.464  11.639  17.971  0.00  0.00    +0.000 A 
ENDBRANCH  14  18
ENDBRANCH  10  14
ENDBRANCH   1  10
BRANCH   7  24
ATOM     24  C   UNL     1       2.315   6.324  18.034  0.00  0.00    +0.000 C 
BRANCH  24  25
ATOM     25  C   UNL     1       3.718   5.640  17.884  0.00  0.00    +0.000 C 
ATOM     26  C   UNL     1       4.836   6.372  18.645  0.00  0.00    +0.000 C 
ATOM     27  C   UNL     1       5.896   6.498  17.616  0.00  0.00    +0.000 C 
ATOM     28  C   UNL     1       7.036   7.192  17.683  0.00  0.00    +0.000 C 
ATOM     29  C   UNL     1       5.423   5.897  16.349  0.00  0.00    +0.000 C 
ATOM     30  O   UNL     1       6.087   5.684  15.353  0.00  0.00    +0.000 OA
ATOM     31  O   UNL     1       4.097   5.617  16.494  0.00  0.00    +0.000 OA
BRANCH  25  32
ATOM     32  C   UNL     1       3.669   4.152  18.319  0.00  0.00    +0.000 A 
ATOM     33  C   UNL     1       2.996   3.187  17.535  0.00  0.00    +0.000 A 
ATOM     34  C   UNL     1       3.070   1.827  17.825  0.00  0.00    +0.000 A 
ATOM     35  C   UNL     1       3.801   1.396  18.922  0.00  0.00    +0.000 A 
ATOM     36  C   UNL     1       4.435   2.328  19.742  0.00  0.00    +0.000 A 
ATOM     37  C   UNL     1       4.371   3.695  19.446  0.00  0.00    +0.000 A 
ENDBRANCH  25  32
ENDBRANCH  24  25
ENDBRANCH   7  24
TORSDOF 6
ENDMDL
MODEL 8
REMARK VINA RESULT:      -8.1      1.355      1.797
REMARK  Name = 
REMARK  7 active torsions:
REMARK  status: ('A' for Active; 'I' for Inactive)
REMARK    1  A    between atoms: C_4  and  C_5
REMARK    2  A    between atoms: C_4  and  C_29
REMARK    3  A    between atoms: C_5  and  N_6
REMARK    4  A    between atoms: C_8  and  C_9
REMARK    5  A    between atoms: N_12  and  C_13
REMARK    6  A    between atoms: C_13  and  C_14
REMARK    7  A    between atoms: C_14  and  C_15
REMARK                            x       y       z     vdW  Elec       q    Type
REMARK                         _______ _______ _______ _____ _____    ______ ____
ROOT
ATOM      1  N   UNL     1       1.142  10.399  19.347  0.00  0.00    +0.000 N 
ATOM      2  N   UNL     1       0.999  10.331  20.702  0.00  0.00    +0.000 NA
ATOM      3  C   UNL     1       1.196   9.177  21.255  0.00  0.00    +0.000 A 
ATOM      4  C   UNL     1       1.198   9.057  22.754  0.00  0.00    +0.000 C 
ATOM      5  C   UNL     1       1.420   7.921  20.450  0.00  0.00    +0.000 A 
ATOM      6  O   UNL     1       1.327   6.841  21.020  0.00  0.00    +0.000 OA
ATOM      7  N   UNL     1       1.703   8.106  19.106  0.00  0.00    +0.000 N 
ATOM      8  C   UNL     1       1.657   9.372  18.563  0.00  0.00    +0.000 A 
ATOM      9  O   UNL     1       2.070   9.632  17.442  0.00  0.00    +0.000 OA
ENDROOT
BRANCH   1  10
ATOM     10  C   UNL     1       1.011  11.731  18.743  0.00  0.00    +0.000 C 
BRANCH  10  14
ATOM     11  C   UNL     1       0.178  15.117  21.385  0.00  0.00    +0.000 C 
ATOM     12  C   UNL     1      -0.055  14.310  20.345  0.00  0.00    +0.000 C 
ATOM     13  C   UNL     1      -0.618  12.938  20.354  0.00  0.00    +0.000 C 
ATOM     14  C   UNL     1      -0.357  12.458  18.921  0.00  0.00    +0.000 C 
ATOM     15  O   UNL     1      -0.219  13.691  18.157  0.00  0.00    +0.000 OA
ATOM     16  C   UNL     1       0.172  14.719  18.948  0.00  0.00    +0.000 C 
ATOM     17  O   UNL     1       0.612  15.785  18.563  0.00  0.00    +0.000 OA
BRANCH  14  18
ATOM     18  C   UNL     1      -1.560  11.670  18.388  0.00  0.00    +0.000 A 
ATOM     19  C   UNL     1      -1.406  10.645  17.437  0.00  0.00    +0.000 A 
ATOM     20  C   UNL     1      -2.509   9.938  16.950  0.00  0.00    +0.000 A 
ATOM     21  C   UNL     1      -3.786  10.230  17.413  0.00  0.00    +0.000 A 
ATOM     22  C   UNL     1      -3.967  11.247  18.344  0.00  0.00    +0.000 A 
ATOM     23  C   UNL     1      -2.867  11.973  18.811  0.00  0.00    +0.000 A 
ENDBRANCH  14  18
ENDBRANCH  10  14
ENDBRANCH   1  10
BRANCH   7  24
ATOM     24  C   UNL     1       1.820   6.880  18.268  0.00  0.00    +0.000 C 
BRANCH  24  25
ATOM     25  C   UNL     1       2.907   5.783  18.542  0.00  0.00    +0.000 C 
ATOM     26  C   UNL     1       4.203   6.348  19.147  0.00  0.00    +0.000 C 
ATOM     27  C   UNL     1       5.247   5.748  18.281  0.00  0.00    +0.000 C 
ATOM     28  C   UNL     1       6.556   6.020  18.255  0.00  0.00    +0.000 C 
ATOM     29  C   UNL     1       4.605   4.910  17.245  0.00  0.00    +0.000 C 
ATOM     30  O   UNL     1       5.161   4.151  16.476  0.00  0.00    +0.000 OA
ATOM     31  O   UNL     1       3.262   5.137  17.305  0.00  0.00    +0.000 OA
BRANCH  25  32
ATOM     32  C   UNL     1       2.350   4.653  19.447  0.00  0.00    +0.000 A 
ATOM     33  C   UNL     1       1.279   3.837  19.017  0.00  0.00    +0.000 A 
ATOM     34  C   UNL     1       0.867   2.724  19.745  0.00  0.00    +0.000 A 
ATOM     35  C   UNL     1       1.501   2.409  20.939  0.00  0.00    +0.000 A 
ATOM     36  C   UNL     1       2.528   3.224  21.413  0.00  0.00    +0.000 A 
ATOM     37  C   UNL     1       2.950   4.337  20.677  0.00  0.00    +0.000 A 
ENDBRANCH  25  32
ENDBRANCH  24  25
ENDBRANCH   7  24
TORSDOF 6
ENDMDL
MODEL 9
REMARK VINA RESULT:      -8.1      1.243      3.050
REMARK  Name = 
REMARK  7 active torsions:
REMARK  status: ('A' for Active; 'I' for Inactive)
REMARK    1  A    between atoms: C_4  and  C_5
REMARK    2  A    between atoms: C_4  and  C_29
REMARK    3  A    between atoms: C_5  and  N_6
REMARK    4  A    between atoms: C_8  and  C_9
REMARK    5  A    between atoms: N_12  and  C_13
REMARK    6  A    between atoms: C_13  and  C_14
REMARK    7  A    between atoms: C_14  and  C_15
REMARK                            x       y       z     vdW  Elec       q    Type
REMARK                         _______ _______ _______ _____ _____    ______ ____
ROOT
ATOM      1  N   UNL     1       1.184   9.659  18.970  0.00  0.00    +0.000 N 
ATOM      2  N   UNL     1       1.081   9.622  20.329  0.00  0.00    +0.000 NA
ATOM      3  C   UNL     1       1.456   8.530  20.916  0.00  0.00    +0.000 A 
ATOM      4  C   UNL     1       1.507   8.468  22.417  0.00  0.00    +0.000 C 
ATOM      5  C   UNL     1       1.843   7.291  20.148  0.00  0.00    +0.000 A 
ATOM      6  O   UNL     1       1.920   6.230  20.757  0.00  0.00    +0.000 OA
ATOM      7  N   UNL     1       2.068   7.464  18.791  0.00  0.00    +0.000 N 
ATOM      8  C   UNL     1       1.826   8.689  18.208  0.00  0.00    +0.000 A 
ATOM      9  O   UNL     1       2.174   8.964  17.068  0.00  0.00    +0.000 OA
ENDROOT
BRANCH   1  10
ATOM     10  C   UNL     1       0.848  10.935  18.324  0.00  0.00    +0.000 C 
BRANCH  10  14
ATOM     11  C   UNL     1      -2.834  11.412  16.010  0.00  0.00    +0.000 C 
ATOM     12  C   UNL     1      -2.110  11.368  17.133  0.00  0.00    +0.000 C 
ATOM     13  C   UNL     1      -1.189  12.397  17.672  0.00  0.00    +0.000 C 
ATOM     14  C   UNL     1      -0.461  11.642  18.792  0.00  0.00    +0.000 C 
ATOM     15  O   UNL     1      -1.367  10.552  19.128  0.00  0.00    +0.000 OA
ATOM     16  C   UNL     1      -2.175  10.245  18.084  0.00  0.00    +0.000 C 
ATOM     17  O   UNL     1      -2.841   9.234  17.973  0.00  0.00    +0.000 OA
BRANCH  14  18
ATOM     18  C   UNL     1      -0.282  12.541  20.021  0.00  0.00    +0.000 A 
ATOM     19  C   UNL     1       0.820  13.406  20.147  0.00  0.00    +0.000 A 
ATOM     20  C   UNL     1       0.980  14.215  21.276  0.00  0.00    +0.000 A 
ATOM     21  C   UNL     1       0.036  14.188  22.295  0.00  0.00    +0.000 A 
ATOM     22  C   UNL     1      -1.057  13.333  22.200  0.00  0.00    +0.000 A 
ATOM     23  C   UNL     1      -1.203  12.503  21.085  0.00  0.00    +0.000 A 
ENDBRANCH  14  18
ENDBRANCH  10  14
ENDBRANCH   1  10
BRANCH   7  24
ATOM     24  C   UNL     1       2.344   6.238  17.994  0.00  0.00    +0.000 C 
BRANCH  24  25
ATOM     25  C   UNL     1       3.797   5.680  17.797  0.00  0.00    +0.000 C 
ATOM     26  C   UNL     1       4.868   6.496  18.540  0.00  0.00    +0.000 C 
ATOM     27  C   UNL     1       5.884   6.726  17.485  0.00  0.00    +0.000 C 
ATOM     28  C   UNL     1       6.962   7.515  17.533  0.00  0.00    +0.000 C 
ATOM     29  C   UNL     1       5.431   6.102  16.222  0.00  0.00    +0.000 C 
ATOM     30  O   UNL     1       6.082   5.961  15.206  0.00  0.00    +0.000 OA
ATOM     31  O   UNL     1       4.138   5.708  16.397  0.00  0.00    +0.000 OA
BRANCH  25  32
ATOM     32  C   UNL     1       3.887   4.188  18.210  0.00  0.00    +0.000 A 
ATOM     33  C   UNL     1       4.428   3.810  19.460  0.00  0.00    +0.000 A 
ATOM     34  C   UNL     1       4.377   2.494  19.913  0.00  0.00    +0.000 A 
ATOM     35  C   UNL     1       3.804   1.514  19.116  0.00  0.00    +0.000 A 
ATOM     36  C   UNL     1       3.307   1.847  17.858  0.00  0.00    +0.000 A 
ATOM     37  C   UNL     1       3.347   3.171  17.405  0.00  0.00    +0.000 A 
ENDBRANCH  25  32
ENDBRANCH  24  25
ENDBRANCH   7  24
TORSDOF 6
ENDMDL
