MODEL 1
REMARK VINA RESULT:      -8.3      0.000      0.000
REMARK  Name = 
REMARK  9 active torsions:
REMARK  status: ('A' for Active; 'I' for Inactive)
REMARK    1  A    between atoms: C_1  and  O_2
REMARK    2  A    between atoms: O_2  and  C_3
REMARK    3  A    between atoms: C_6  and  C_7
REMARK    4  A    between atoms: N_9  and  C_10
REMARK    5  A    between atoms: C_17  and  C_18
REMARK    6  A    between atoms: N_26  and  C_27
REMARK    7  A    between atoms: C_27  and  C_28
REMARK    8  A    between atoms: C_30  and  C_31
REMARK    9  A    between atoms: C_33  and  C_34
REMARK                            x       y       z     vdW  Elec       q    Type
REMARK                         _______ _______ _______ _____ _____    ______ ____
ROOT
ATOM      1  C   UNL     1       0.006  10.860  18.865  0.00  0.00    +0.000 A 
ATOM      2  N   UNL     1      -1.299  10.560  18.731  0.00  0.00    +0.000 NA
ATOM      3  N   UNL     1      -1.942  11.730  18.566  0.00  0.00    +0.000 N 
ATOM      4  C   UNL     1      -1.080  12.794  18.640  0.00  0.00    +0.000 A 
ATOM      5  C   UNL     1       0.181  12.276  18.829  0.00  0.00    +0.000 A 
ENDROOT
BRANCH   5   6
ATOM      6  C   UNL     1       1.402  13.102  19.040  0.00  0.00    +0.000 A 
ATOM      7  N   UNL     1       2.253  13.318  18.059  0.00  0.00    +0.000 NA
ATOM      8  C   UNL     1       3.305  13.992  18.605  0.00  0.00    +0.000 A 
ATOM      9  C   UNL     1       4.475  14.447  17.983  0.00  0.00    +0.000 A 
ATOM     10  C   UNL     1       5.421  15.133  18.748  0.00  0.00    +0.000 A 
ATOM     11  C   UNL     1       5.208  15.353  20.110  0.00  0.00    +0.000 A 
ATOM     12  C   UNL     1       4.037  14.912  20.746  0.00  0.00    +0.000 A 
ATOM     13  C   UNL     1       3.096  14.231  19.960  0.00  0.00    +0.000 A 
ATOM     14  N   UNL     1       1.831  13.717  20.209  0.00  0.00    +0.000 N 
BRANCH  14  15
ATOM     15  C   UNL     1       0.952  14.201  21.281  0.00  0.00    +0.000 C 
BRANCH  15  16
ATOM     16  C   UNL     1      -0.119  13.267  21.813  0.00  0.00    +0.000 A 
ATOM     17  C   UNL     1       0.127  11.942  22.192  0.00  0.00    +0.000 A 
ATOM     18  C   UNL     1      -0.877  11.168  22.794  0.00  0.00    +0.000 A 
ATOM     19  C   UNL     1      -0.638   9.735  23.173  0.00  0.00    +0.000 C 
ATOM     20  C   UNL     1      -2.137  11.731  23.039  0.00  0.00    +0.000 A 
ATOM     21  C   UNL     1      -2.420  13.041  22.662  0.00  0.00    +0.000 A 
ATOM     22  C   UNL     1      -3.757  13.643  22.989  0.00  0.00    +0.000 C 
ATOM     23  C   UNL     1      -1.406  13.799  22.055  0.00  0.00    +0.000 A 
ENDBRANCH  15  16
ENDBRANCH  14  15
ENDBRANCH   5   6
BRANCH   1  27
ATOM     24  C   UNL     1       2.489   7.364  19.065  0.00  0.00    +0.000 A 
ATOM     25  C   UNL     1       2.413   8.103  17.882  0.00  0.00    +0.000 A 
ATOM     26  C   UNL     1       1.659   9.285  17.817  0.00  0.00    +0.000 A 
ATOM     27  C   UNL     1       0.956   9.740  18.936  0.00  0.00    +0.000 A 
ATOM     28  C   UNL     1       1.056   8.996  20.126  0.00  0.00    +0.000 A 
ATOM     29  C   UNL     1       1.811   7.819  20.192  0.00  0.00    +0.000 A 
BRANCH  24  31
ATOM     30  C   UNL     1       2.641   5.193  18.128  0.00  0.00    +0.000 C 
ATOM     31  O   UNL     1       3.189   6.192  18.981  0.00  0.00    +0.000 OA
ENDBRANCH  24  31
ENDBRANCH   1  27
BRANCH   3  32
ATOM     32  C   UNL     1      -3.343  11.750  18.322  0.00  0.00    +0.000 A 
ATOM     33  C   UNL     1      -3.818  11.381  17.053  0.00  0.00    +0.000 A 
ATOM     34  C   UNL     1      -5.184  11.432  16.775  0.00  0.00    +0.000 A 
ATOM     35  C   UNL     1      -6.078  11.850  17.758  0.00  0.00    +0.000 A 
ATOM     36  C   UNL     1      -5.611  12.207  19.023  0.00  0.00    +0.000 A 
ATOM     37  C   UNL     1      -4.246  12.157  19.312  0.00  0.00    +0.000 A 
ENDBRANCH   3  32
TORSDOF 6
ENDMDL
MODEL 2
REMARK VINA RESULT:      -8.3      2.662      5.574
REMARK  Name = 
REMARK  9 active torsions:
REMARK  status: ('A' for Active; 'I' for Inactive)
REMARK    1  A    between atoms: C_1  and  O_2
REMARK    2  A    between atoms: O_2  and  C_3
REMARK    3  A    between atoms: C_6  and  C_7
REMARK    4  A    between atoms: N_9  and  C_10
REMARK    5  A    between atoms: C_17  and  C_18
REMARK    6  A    between atoms: N_26  and  C_27
REMARK    7  A    between atoms: C_27  and  C_28
REMARK    8  A    between atoms: C_30  and  C_31
REMARK    9  A    between atoms: C_33  and  C_34
REMARK                            x       y       z     vdW  Elec       q    Type
REMARK                         _______ _______ _______ _____ _____    ______ ____
ROOT
ATOM      1  C   UNL     1      -1.033  11.577  18.675  0.00  0.00    +0.000 A 
ATOM      2  N   UNL     1      -0.578  10.318  18.544  0.00  0.00    +0.000 NA
ATOM      3  N   UNL     1       0.732  10.355  18.848  0.00  0.00    +0.000 N 
ATOM      4  C   UNL     1       1.149  11.631  19.129  0.00  0.00    +0.000 A 
ATOM      5  C   UNL     1       0.044  12.444  19.030  0.00  0.00    +0.000 A 
ENDROOT
BRANCH   5   6
ATOM      6  C   UNL     1       0.078  13.925  19.184  0.00  0.00    +0.000 A 
ATOM      7  N   UNL     1      -0.410  14.716  18.251  0.00  0.00    +0.000 NA
ATOM      8  C   UNL     1      -0.115  15.990  18.635  0.00  0.00    +0.000 A 
ATOM      9  C   UNL     1      -0.408  17.195  17.982  0.00  0.00    +0.000 A 
ATOM     10  C   UNL     1      -0.013  18.396  18.577  0.00  0.00    +0.000 A 
ATOM     11  C   UNL     1       0.668  18.394  19.795  0.00  0.00    +0.000 A 
ATOM     12  C   UNL     1       0.961  17.197  20.465  0.00  0.00    +0.000 A 
ATOM     13  C   UNL     1       0.551  16.002  19.857  0.00  0.00    +0.000 A 
ATOM     14  N   UNL     1       0.602  14.668  20.234  0.00  0.00    +0.000 N 
BRANCH  14  15
ATOM     15  C   UNL     1       0.680  14.218  21.631  0.00  0.00    +0.000 C 
BRANCH  15  16
ATOM     16  C   UNL     1      -0.356  13.227  22.128  0.00  0.00    +0.000 A 
ATOM     17  C   UNL     1      -0.099  11.864  22.311  0.00  0.00    +0.000 A 
ATOM     18  C   UNL     1      -1.061  11.022  22.892  0.00  0.00    +0.000 A 
ATOM     19  C   UNL     1      -0.813   9.552  23.063  0.00  0.00    +0.000 C 
ATOM     20  C   UNL     1      -2.287  11.555  23.315  0.00  0.00    +0.000 A 
ATOM     21  C   UNL     1      -2.581  12.904  23.135  0.00  0.00    +0.000 A 
ATOM     22  C   UNL     1      -3.876  13.465  23.651  0.00  0.00    +0.000 C 
ATOM     23  C   UNL     1      -1.611  13.730  22.546  0.00  0.00    +0.000 A 
ENDBRANCH  15  16
ENDBRANCH  14  15
ENDBRANCH   5   6
BRANCH   1  27
ATOM     24  C   UNL     1      -5.296  11.852  18.259  0.00  0.00    +0.000 A 
ATOM     25  C   UNL     1      -4.678  12.283  19.435  0.00  0.00    +0.000 A 
ATOM     26  C   UNL     1      -3.281  12.263  19.564  0.00  0.00    +0.000 A 
ATOM     27  C   UNL     1      -2.479  11.796  18.519  0.00  0.00    +0.000 A 
ATOM     28  C   UNL     1      -3.114  11.382  17.334  0.00  0.00    +0.000 A 
ATOM     29  C   UNL     1      -4.508  11.406  17.203  0.00  0.00    +0.000 A 
BRANCH  24  31
ATOM     30  C   UNL     1      -7.270  12.053  19.555  0.00  0.00    +0.000 C 
ATOM     31  O   UNL     1      -6.664  11.846  18.284  0.00  0.00    +0.000 OA
ENDBRANCH  24  31
ENDBRANCH   1  27
BRANCH   3  32
ATOM     32  C   UNL     1       1.496   9.156  18.875  0.00  0.00    +0.000 A 
ATOM     33  C   UNL     1       2.232   8.792  17.735  0.00  0.00    +0.000 A 
ATOM     34  C   UNL     1       2.956   7.600  17.720  0.00  0.00    +0.000 A 
ATOM     35  C   UNL     1       2.949   6.769  18.838  0.00  0.00    +0.000 A 
ATOM     36  C   UNL     1       2.228   7.132  19.976  0.00  0.00    +0.000 A 
ATOM     37  C   UNL     1       1.502   8.324  20.002  0.00  0.00    +0.000 A 
ENDBRANCH   3  32
TORSDOF 6
ENDMDL
MODEL 3
REMARK VINA RESULT:      -8.1      2.635      5.832
REMARK  Name = 
REMARK  9 active torsions:
REMARK  status: ('A' for Active; 'I' for Inactive)
REMARK    1  A    between atoms: C_1  and  O_2
REMARK    2  A    between atoms: O_2  and  C_3
REMARK    3  A    between atoms: C_6  and  C_7
REMARK    4  A    between atoms: N_9  and  C_10
REMARK    5  A    between atoms: C_17  and  C_18
REMARK    6  A    between atoms: N_26  and  C_27
REMARK    7  A    between atoms: C_27  and  C_28
REMARK    8  A    between atoms: C_30  and  C_31
REMARK    9  A    between atoms: C_33  and  C_34
REMARK                            x       y       z     vdW  Elec       q    Type
REMARK                         _______ _______ _______ _____ _____    ______ ____
ROOT
ATOM      1  C   UNL     1      -1.034  11.548  18.631  0.00  0.00    +0.000 A 
ATOM      2  N   UNL     1      -0.587  10.286  18.499  0.00  0.00    +0.000 NA
ATOM      3  N   UNL     1       0.727  10.318  18.788  0.00  0.00    +0.000 N 
ATOM      4  C   UNL     1       1.153  11.592  19.059  0.00  0.00    +0.000 A 
ATOM      5  C   UNL     1       0.050  12.411  18.971  0.00  0.00    +0.000 A 
ENDROOT
BRANCH   5   6
ATOM      6  C   UNL     1       0.093  13.892  19.119  0.00  0.00    +0.000 A 
ATOM      7  N   UNL     1      -0.460  14.680  18.222  0.00  0.00    +0.000 NA
ATOM      8  C   UNL     1      -0.141  15.956  18.582  0.00  0.00    +0.000 A 
ATOM      9  C   UNL     1      -0.481  17.159  17.950  0.00  0.00    +0.000 A 
ATOM     10  C   UNL     1      -0.047  18.362  18.513  0.00  0.00    +0.000 A 
ATOM     11  C   UNL     1       0.719  18.363  19.680  0.00  0.00    +0.000 A 
ATOM     12  C   UNL     1       1.060  17.167  20.330  0.00  0.00    +0.000 A 
ATOM     13  C   UNL     1       0.609  15.971  19.754  0.00  0.00    +0.000 A 
ATOM     14  N   UNL     1       0.688  14.637  20.129  0.00  0.00    +0.000 N 
BRANCH  14  15
ATOM     15  C   UNL     1       0.865  14.190  21.517  0.00  0.00    +0.000 C 
BRANCH  15  16
ATOM     16  C   UNL     1      -0.265  13.420  22.176  0.00  0.00    +0.000 A 
ATOM     17  C   UNL     1      -1.513  13.979  22.473  0.00  0.00    +0.000 A 
ATOM     18  C   UNL     1      -2.559  13.183  22.966  0.00  0.00    +0.000 A 
ATOM     19  C   UNL     1      -3.892  13.774  23.322  0.00  0.00    +0.000 C 
ATOM     20  C   UNL     1      -2.360  11.806  23.146  0.00  0.00    +0.000 A 
ATOM     21  C   UNL     1      -1.126  11.220  22.875  0.00  0.00    +0.000 A 
ATOM     22  C   UNL     1      -0.954   9.735  23.017  0.00  0.00    +0.000 C 
ATOM     23  C   UNL     1      -0.090  12.033  22.388  0.00  0.00    +0.000 A 
ENDBRANCH  15  16
ENDBRANCH  14  15
ENDBRANCH   5   6
BRANCH   1  27
ATOM     24  C   UNL     1      -5.302  11.842  18.275  0.00  0.00    +0.000 A 
ATOM     25  C   UNL     1      -4.662  12.302  19.427  0.00  0.00    +0.000 A 
ATOM     26  C   UNL     1      -3.263  12.275  19.535  0.00  0.00    +0.000 A 
ATOM     27  C   UNL     1      -2.481  11.773  18.492  0.00  0.00    +0.000 A 
ATOM     28  C   UNL     1      -3.138  11.329  17.329  0.00  0.00    +0.000 A 
ATOM     29  C   UNL     1      -4.534  11.360  17.220  0.00  0.00    +0.000 A 
BRANCH  24  31
ATOM     30  C   UNL     1      -7.298  13.115  18.170  0.00  0.00    +0.000 C 
ATOM     31  O   UNL     1      -6.669  11.847  18.321  0.00  0.00    +0.000 OA
ENDBRANCH  24  31
ENDBRANCH   1  27
BRANCH   3  32
ATOM     32  C   UNL     1       1.485   9.115  18.809  0.00  0.00    +0.000 A 
ATOM     33  C   UNL     1       1.456   8.313  19.962  0.00  0.00    +0.000 A 
ATOM     34  C   UNL     1       2.224   7.149  20.024  0.00  0.00    +0.000 A 
ATOM     35  C   UNL     1       3.020   6.783  18.942  0.00  0.00    +0.000 A 
ATOM     36  C   UNL     1       3.043   7.572  17.791  0.00  0.00    +0.000 A 
ATOM     37  C   UNL     1       2.277   8.737  17.717  0.00  0.00    +0.000 A 
ENDBRANCH   3  32
TORSDOF 6
ENDMDL
MODEL 4
REMARK VINA RESULT:      -8.1      0.423      1.668
REMARK  Name = 
REMARK  9 active torsions:
REMARK  status: ('A' for Active; 'I' for Inactive)
REMARK    1  A    between atoms: C_1  and  O_2
REMARK    2  A    between atoms: O_2  and  C_3
REMARK    3  A    between atoms: C_6  and  C_7
REMARK    4  A    between atoms: N_9  and  C_10
REMARK    5  A    between atoms: C_17  and  C_18
REMARK    6  A    between atoms: N_26  and  C_27
REMARK    7  A    between atoms: C_27  and  C_28
REMARK    8  A    between atoms: C_30  and  C_31
REMARK    9  A    between atoms: C_33  and  C_34
REMARK                            x       y       z     vdW  Elec       q    Type
REMARK                         _______ _______ _______ _____ _____    ______ ____
ROOT
ATOM      1  C   UNL     1      -0.199  10.939  18.943  0.00  0.00    +0.000 A 
ATOM      2  N   UNL     1      -1.497  10.620  18.796  0.00  0.00    +0.000 NA
ATOM      3  N   UNL     1      -2.155  11.782  18.631  0.00  0.00    +0.000 N 
ATOM      4  C   UNL     1      -1.310  12.858  18.718  0.00  0.00    +0.000 A 
ATOM      5  C   UNL     1      -0.044  12.357  18.916  0.00  0.00    +0.000 A 
ENDROOT
BRANCH   5   6
ATOM      6  C   UNL     1       1.164  13.199  19.142  0.00  0.00    +0.000 A 
ATOM      7  N   UNL     1       2.120  13.270  18.241  0.00  0.00    +0.000 NA
ATOM      8  C   UNL     1       3.120  14.010  18.800  0.00  0.00    +0.000 A 
ATOM      9  C   UNL     1       4.360  14.368  18.253  0.00  0.00    +0.000 A 
ATOM     10  C   UNL     1       5.230  15.152  19.014  0.00  0.00    +0.000 A 
ATOM     11  C   UNL     1       4.874  15.564  20.299  0.00  0.00    +0.000 A 
ATOM     12  C   UNL     1       3.633  15.222  20.857  0.00  0.00    +0.000 A 
ATOM     13  C   UNL     1       2.770  14.441  20.075  0.00  0.00    +0.000 A 
ATOM     14  N   UNL     1       1.475  13.973  20.253  0.00  0.00    +0.000 N 
BRANCH  14  15
ATOM     15  C   UNL     1       0.494  14.608  21.143  0.00  0.00    +0.000 C 
BRANCH  15  16
ATOM     16  C   UNL     1      -0.506  13.723  21.862  0.00  0.00    +0.000 A 
ATOM     17  C   UNL     1      -1.847  14.071  22.062  0.00  0.00    +0.000 A 
ATOM     18  C   UNL     1      -2.752  13.157  22.623  0.00  0.00    +0.000 A 
ATOM     19  C   UNL     1      -4.184  13.529  22.875  0.00  0.00    +0.000 C 
ATOM     20  C   UNL     1      -2.316  11.870  22.970  0.00  0.00    +0.000 A 
ATOM     21  C   UNL     1      -0.986  11.495  22.798  0.00  0.00    +0.000 A 
ATOM     22  C   UNL     1      -0.555  10.092  23.120  0.00  0.00    +0.000 C 
ATOM     23  C   UNL     1      -0.093  12.424  22.242  0.00  0.00    +0.000 A 
ENDBRANCH  15  16
ENDBRANCH  14  15
ENDBRANCH   5   6
BRANCH   1  27
ATOM     24  C   UNL     1       2.332   7.479  19.167  0.00  0.00    +0.000 A 
ATOM     25  C   UNL     1       2.209   8.180  17.965  0.00  0.00    +0.000 A 
ATOM     26  C   UNL     1       1.440   9.351  17.889  0.00  0.00    +0.000 A 
ATOM     27  C   UNL     1       0.768   9.832  19.016  0.00  0.00    +0.000 A 
ATOM     28  C   UNL     1       0.915   9.126  20.224  0.00  0.00    +0.000 A 
ATOM     29  C   UNL     1       1.686   7.960  20.301  0.00  0.00    +0.000 A 
BRANCH  24  31
ATOM     30  C   UNL     1       3.836   6.131  17.926  0.00  0.00    +0.000 C 
ATOM     31  O   UNL     1       3.044   6.313  19.095  0.00  0.00    +0.000 OA
ENDBRANCH  24  31
ENDBRANCH   1  27
BRANCH   3  32
ATOM     32  C   UNL     1      -3.554  11.783  18.375  0.00  0.00    +0.000 A 
ATOM     33  C   UNL     1      -4.436  12.127  19.413  0.00  0.00    +0.000 A 
ATOM     34  C   UNL     1      -5.814  12.095  19.200  0.00  0.00    +0.000 A 
ATOM     35  C   UNL     1      -6.317  11.722  17.955  0.00  0.00    +0.000 A 
ATOM     36  C   UNL     1      -5.443  11.391  16.918  0.00  0.00    +0.000 A 
ATOM     37  C   UNL     1      -4.063  11.423  17.121  0.00  0.00    +0.000 A 
ENDBRANCH   3  32
TORSDOF 6
ENDMDL
MODEL 5
REMARK VINA RESULT:      -8.1      2.706      5.643
REMARK  Name = 
REMARK  9 active torsions:
REMARK  status: ('A' for Active; 'I' for Inactive)
REMARK    1  A    between atoms: C_1  and  O_2
REMARK    2  A    between atoms: O_2  and  C_3
REMARK    3  A    between atoms: C_6  and  C_7
REMARK    4  A    between atoms: N_9  and  C_10
REMARK    5  A    between atoms: C_17  and  C_18
REMARK    6  A    between atoms: N_26  and  C_27
REMARK    7  A    between atoms: C_27  and  C_28
REMARK    8  A    between atoms: C_30  and  C_31
REMARK    9  A    between atoms: C_33  and  C_34
REMARK                            x       y       z     vdW  Elec       q    Type
REMARK                         _______ _______ _______ _____ _____    ______ ____
ROOT
ATOM      1  C   UNL     1      -1.026  11.448  18.770  0.00  0.00    +0.000 A 
ATOM      2  N   UNL     1      -0.569  10.193  18.612  0.00  0.00    +0.000 NA
ATOM      3  N   UNL     1       0.762  10.249  18.802  0.00  0.00    +0.000 N 
ATOM      4  C   UNL     1       1.186  11.532  19.033  0.00  0.00    +0.000 A 
ATOM      5  C   UNL     1       0.066  12.331  19.023  0.00  0.00    +0.000 A 
ENDROOT
BRANCH   5   6
ATOM      6  C   UNL     1       0.095  13.814  19.159  0.00  0.00    +0.000 A 
ATOM      7  N   UNL     1      -0.424  14.591  18.231  0.00  0.00    +0.000 NA
ATOM      8  C   UNL     1      -0.127  15.872  18.593  0.00  0.00    +0.000 A 
ATOM      9  C   UNL     1      -0.446  17.067  17.935  0.00  0.00    +0.000 A 
ATOM     10  C   UNL     1      -0.043  18.277  18.505  0.00  0.00    +0.000 A 
ATOM     11  C   UNL     1       0.672  18.293  19.704  0.00  0.00    +0.000 A 
ATOM     12  C   UNL     1       0.991  17.105  20.380  0.00  0.00    +0.000 A 
ATOM     13  C   UNL     1       0.572  15.901  19.796  0.00  0.00    +0.000 A 
ATOM     14  N   UNL     1       0.642  14.571  20.186  0.00  0.00    +0.000 N 
BRANCH  14  15
ATOM     15  C   UNL     1       0.761  14.138  21.585  0.00  0.00    +0.000 C 
BRANCH  15  16
ATOM     16  C   UNL     1      -0.274  13.172  22.131  0.00  0.00    +0.000 A 
ATOM     17  C   UNL     1      -0.059  11.794  22.251  0.00  0.00    +0.000 A 
ATOM     18  C   UNL     1      -1.007  10.971  22.880  0.00  0.00    +0.000 A 
ATOM     19  C   UNL     1      -0.807   9.487  22.986  0.00  0.00    +0.000 C 
ATOM     20  C   UNL     1      -2.175  11.536  23.413  0.00  0.00    +0.000 A 
ATOM     21  C   UNL     1      -2.426  12.900  23.297  0.00  0.00    +0.000 A 
ATOM     22  C   UNL     1      -3.654  13.493  23.928  0.00  0.00    +0.000 C 
ATOM     23  C   UNL     1      -1.471  13.707  22.660  0.00  0.00    +0.000 A 
ENDBRANCH  15  16
ENDBRANCH  14  15
ENDBRANCH   5   6
BRANCH   1  27
ATOM     24  C   UNL     1      -5.211  12.395  18.632  0.00  0.00    +0.000 A 
ATOM     25  C   UNL     1      -4.597  11.771  17.543  0.00  0.00    +0.000 A 
ATOM     26  C   UNL     1      -3.247  11.394  17.595  0.00  0.00    +0.000 A 
ATOM     27  C   UNL     1      -2.483  11.649  18.737  0.00  0.00    +0.000 A 
ATOM     28  C   UNL     1      -3.118  12.261  19.833  0.00  0.00    +0.000 A 
ATOM     29  C   UNL     1      -4.467  12.634  19.783  0.00  0.00    +0.000 A 
BRANCH  24  31
ATOM     30  C   UNL     1      -6.899  12.988  17.079  0.00  0.00    +0.000 C 
ATOM     31  O   UNL     1      -6.506  12.784  18.432  0.00  0.00    +0.000 OA
ENDBRANCH  24  31
ENDBRANCH   1  27
BRANCH   3  32
ATOM     32  C   UNL     1       1.541   9.059  18.773  0.00  0.00    +0.000 A 
ATOM     33  C   UNL     1       1.506   8.196  19.882  0.00  0.00    +0.000 A 
ATOM     34  C   UNL     1       2.292   7.044  19.897  0.00  0.00    +0.000 A 
ATOM     35  C   UNL     1       3.112   6.748  18.811  0.00  0.00    +0.000 A 
ATOM     36  C   UNL     1       3.141   7.597  17.704  0.00  0.00    +0.000 A 
ATOM     37  C   UNL     1       2.356   8.751  17.678  0.00  0.00    +0.000 A 
ENDBRANCH   3  32
TORSDOF 6
ENDMDL
MODEL 6
REMARK VINA RESULT:      -8.0      2.839      5.783
REMARK  Name = 
REMARK  9 active torsions:
REMARK  status: ('A' for Active; 'I' for Inactive)
REMARK    1  A    between atoms: C_1  and  O_2
REMARK    2  A    between atoms: O_2  and  C_3
REMARK    3  A    between atoms: C_6  and  C_7
REMARK    4  A    between atoms: N_9  and  C_10
REMARK    5  A    between atoms: C_17  and  C_18
REMARK    6  A    between atoms: N_26  and  C_27
REMARK    7  A    between atoms: C_27  and  C_28
REMARK    8  A    between atoms: C_30  and  C_31
REMARK    9  A    between atoms: C_33  and  C_34
REMARK                            x       y       z     vdW  Elec       q    Type
REMARK                         _______ _______ _______ _____ _____    ______ ____
ROOT
ATOM      1  C   UNL     1      -0.963  11.272  18.532  0.00  0.00    +0.000 A 
ATOM      2  N   UNL     1      -0.459  10.035  18.369  0.00  0.00    +0.000 NA
ATOM      3  N   UNL     1       0.814  10.086  18.800  0.00  0.00    +0.000 N 
ATOM      4  C   UNL     1       1.163  11.351  19.196  0.00  0.00    +0.000 A 
ATOM      5  C   UNL     1       0.048  12.141  19.040  0.00  0.00    +0.000 A 
ENDROOT
BRANCH   5   6
ATOM      6  C   UNL     1       0.022  13.610  19.284  0.00  0.00    +0.000 A 
ATOM      7  N   UNL     1      -0.395  14.446  18.357  0.00  0.00    +0.000 NA
ATOM      8  C   UNL     1      -0.178  15.700  18.844  0.00  0.00    +0.000 A 
ATOM      9  C   UNL     1      -0.442  16.936  18.239  0.00  0.00    +0.000 A 
ATOM     10  C   UNL     1      -0.144  18.107  18.941  0.00  0.00    +0.000 A 
ATOM     11  C   UNL     1       0.414  18.045  20.219  0.00  0.00    +0.000 A 
ATOM     12  C   UNL     1       0.675  16.816  20.842  0.00  0.00    +0.000 A 
ATOM     13  C   UNL     1       0.363  15.652  20.125  0.00  0.00    +0.000 A 
ATOM     14  N   UNL     1       0.417  14.298  20.425  0.00  0.00    +0.000 N 
BRANCH  14  15
ATOM     15  C   UNL     1       0.371  13.764  21.793  0.00  0.00    +0.000 C 
BRANCH  15  16
ATOM     16  C   UNL     1      -0.890  13.980  22.608  0.00  0.00    +0.000 A 
ATOM     17  C   UNL     1      -2.103  13.331  22.348  0.00  0.00    +0.000 A 
ATOM     18  C   UNL     1      -3.197  13.477  23.214  0.00  0.00    +0.000 A 
ATOM     19  C   UNL     1      -4.514  12.815  22.929  0.00  0.00    +0.000 C 
ATOM     20  C   UNL     1      -3.073  14.266  24.367  0.00  0.00    +0.000 A 
ATOM     21  C   UNL     1      -1.885  14.938  24.648  0.00  0.00    +0.000 A 
ATOM     22  C   UNL     1      -1.754  15.728  25.919  0.00  0.00    +0.000 C 
ATOM     23  C   UNL     1      -0.803  14.785  23.767  0.00  0.00    +0.000 A 
ENDBRANCH  15  16
ENDBRANCH  14  15
ENDBRANCH   5   6
BRANCH   1  27
ATOM     24  C   UNL     1      -5.186  11.476  17.790  0.00  0.00    +0.000 A 
ATOM     25  C   UNL     1      -4.650  12.041  18.949  0.00  0.00    +0.000 A 
ATOM     26  C   UNL     1      -3.266  12.043  19.177  0.00  0.00    +0.000 A 
ATOM     27  C   UNL     1      -2.394  11.464  18.251  0.00  0.00    +0.000 A 
ATOM     28  C   UNL     1      -2.946  10.914  17.080  0.00  0.00    +0.000 A 
ATOM     29  C   UNL     1      -4.327  10.916  16.850  0.00  0.00    +0.000 A 
BRANCH  24  31
ATOM     30  C   UNL     1      -7.211  12.660  18.125  0.00  0.00    +0.000 C 
ATOM     31  O   UNL     1      -6.552  11.466  17.720  0.00  0.00    +0.000 OA
ENDBRANCH  24  31
ENDBRANCH   1  27
BRANCH   3  32
ATOM     32  C   UNL     1       1.609   8.906  18.828  0.00  0.00    +0.000 A 
ATOM     33  C   UNL     1       2.441   8.620  17.733  0.00  0.00    +0.000 A 
ATOM     34  C   UNL     1       3.199   7.450  17.717  0.00  0.00    +0.000 A 
ATOM     35  C   UNL     1       3.130   6.562  18.788  0.00  0.00    +0.000 A 
ATOM     36  C   UNL     1       2.312   6.848  19.882  0.00  0.00    +0.000 A 
ATOM     37  C   UNL     1       1.552   8.018  19.909  0.00  0.00    +0.000 A 
ENDBRANCH   3  32
TORSDOF 6
ENDMDL
MODEL 7
REMARK VINA RESULT:      -8.0      2.849      5.802
REMARK  Name = 
REMARK  9 active torsions:
REMARK  status: ('A' for Active; 'I' for Inactive)
REMARK    1  A    between atoms: C_1  and  O_2
REMARK    2  A    between atoms: O_2  and  C_3
REMARK    3  A    between atoms: C_6  and  C_7
REMARK    4  A    between atoms: N_9  and  C_10
REMARK    5  A    between atoms: C_17  and  C_18
REMARK    6  A    between atoms: N_26  and  C_27
REMARK    7  A    between atoms: C_27  and  C_28
REMARK    8  A    between atoms: C_30  and  C_31
REMARK    9  A    between atoms: C_33  and  C_34
REMARK                            x       y       z     vdW  Elec       q    Type
REMARK                         _______ _______ _______ _____ _____    ______ ____
ROOT
ATOM      1  C   UNL     1      -1.075  11.666  19.064  0.00  0.00    +0.000 A 
ATOM      2  N   UNL     1      -0.670  10.391  18.929  0.00  0.00    +0.000 NA
ATOM      3  N   UNL     1       0.665  10.398  19.096  0.00  0.00    +0.000 N 
ATOM      4  C   UNL     1       1.143  11.668  19.289  0.00  0.00    +0.000 A 
ATOM      5  C   UNL     1       0.055  12.511  19.277  0.00  0.00    +0.000 A 
ENDROOT
BRANCH   5   6
ATOM      6  C   UNL     1       0.144  13.994  19.376  0.00  0.00    +0.000 A 
ATOM      7  N   UNL     1      -0.368  14.770  18.443  0.00  0.00    +0.000 NA
ATOM      8  C   UNL     1      -0.012  16.046  18.767  0.00  0.00    +0.000 A 
ATOM      9  C   UNL     1      -0.302  17.237  18.088  0.00  0.00    +0.000 A 
ATOM     10  C   UNL     1       0.162  18.444  18.618  0.00  0.00    +0.000 A 
ATOM     11  C   UNL     1       0.908  18.460  19.798  0.00  0.00    +0.000 A 
ATOM     12  C   UNL     1       1.198  17.276  20.494  0.00  0.00    +0.000 A 
ATOM     13  C   UNL     1       0.718  16.076  19.950  0.00  0.00    +0.000 A 
ATOM     14  N   UNL     1       0.747  14.754  20.372  0.00  0.00    +0.000 N 
BRANCH  14  15
ATOM     15  C   UNL     1       0.885  14.349  21.777  0.00  0.00    +0.000 C 
BRANCH  15  16
ATOM     16  C   UNL     1      -0.327  14.464  22.683  0.00  0.00    +0.000 A 
ATOM     17  C   UNL     1      -0.759  15.668  23.250  0.00  0.00    +0.000 A 
ATOM     18  C   UNL     1      -1.958  15.732  23.976  0.00  0.00    +0.000 A 
ATOM     19  C   UNL     1      -2.416  17.008  24.621  0.00  0.00    +0.000 C 
ATOM     20  C   UNL     1      -2.747  14.581  24.120  0.00  0.00    +0.000 A 
ATOM     21  C   UNL     1      -2.340  13.364  23.580  0.00  0.00    +0.000 A 
ATOM     22  C   UNL     1      -3.230  12.159  23.693  0.00  0.00    +0.000 C 
ATOM     23  C   UNL     1      -1.134  13.317  22.862  0.00  0.00    +0.000 A 
ENDBRANCH  15  16
ENDBRANCH  14  15
ENDBRANCH   5   6
BRANCH   1  27
ATOM     24  C   UNL     1      -5.347  12.075  19.155  0.00  0.00    +0.000 A 
ATOM     25  C   UNL     1      -4.560  12.732  20.103  0.00  0.00    +0.000 A 
ATOM     26  C   UNL     1      -3.160  12.664  20.050  0.00  0.00    +0.000 A 
ATOM     27  C   UNL     1      -2.523  11.924  19.051  0.00  0.00    +0.000 A 
ATOM     28  C   UNL     1      -3.328  11.282  18.091  0.00  0.00    +0.000 A 
ATOM     29  C   UNL     1      -4.725  11.353  18.141  0.00  0.00    +0.000 A 
BRANCH  24  31
ATOM     30  C   UNL     1      -7.303  11.026  19.986  0.00  0.00    +0.000 C 
ATOM     31  O   UNL     1      -6.698  12.151  19.359  0.00  0.00    +0.000 OA
ENDBRANCH  24  31
ENDBRANCH   1  27
BRANCH   3  32
ATOM     32  C   UNL     1       1.396   9.178  19.084  0.00  0.00    +0.000 A 
ATOM     33  C   UNL     1       2.073   8.801  17.912  0.00  0.00    +0.000 A 
ATOM     34  C   UNL     1       2.762   7.590  17.861  0.00  0.00    +0.000 A 
ATOM     35  C   UNL     1       2.778   6.752  18.973  0.00  0.00    +0.000 A 
ATOM     36  C   UNL     1       2.115   7.127  20.142  0.00  0.00    +0.000 A 
ATOM     37  C   UNL     1       1.425   8.339  20.205  0.00  0.00    +0.000 A 
ENDBRANCH   3  32
TORSDOF 6
ENDMDL
MODEL 8
REMARK VINA RESULT:      -8.0      2.703      5.801
REMARK  Name = 
REMARK  9 active torsions:
REMARK  status: ('A' for Active; 'I' for Inactive)
REMARK    1  A    between atoms: C_1  and  O_2
REMARK    2  A    between atoms: O_2  and  C_3
REMARK    3  A    between atoms: C_6  and  C_7
REMARK    4  A    between atoms: N_9  and  C_10
REMARK    5  A    between atoms: C_17  and  C_18
REMARK    6  A    between atoms: N_26  and  C_27
REMARK    7  A    between atoms: C_27  and  C_28
REMARK    8  A    between atoms: C_30  and  C_31
REMARK    9  A    between atoms: C_33  and  C_34
REMARK                            x       y       z     vdW  Elec       q    Type
REMARK                         _______ _______ _______ _____ _____    ______ ____
ROOT
ATOM      1  C   UNL     1      -1.056  11.437  18.751  0.00  0.00    +0.000 A 
ATOM      2  N   UNL     1      -0.579  10.187  18.613  0.00  0.00    +0.000 NA
ATOM      3  N   UNL     1       0.744  10.259  18.848  0.00  0.00    +0.000 N 
ATOM      4  C   UNL     1       1.145  11.547  19.090  0.00  0.00    +0.000 A 
ATOM      5  C   UNL     1       0.017  12.334  19.038  0.00  0.00    +0.000 A 
ENDROOT
BRANCH   5   6
ATOM      6  C   UNL     1       0.023  13.817  19.169  0.00  0.00    +0.000 A 
ATOM      7  N   UNL     1      -0.562  14.581  18.271  0.00  0.00    +0.000 NA
ATOM      8  C   UNL     1      -0.271  15.868  18.613  0.00  0.00    +0.000 A 
ATOM      9  C   UNL     1      -0.650  17.055  17.972  0.00  0.00    +0.000 A 
ATOM     10  C   UNL     1      -0.240  18.275  18.516  0.00  0.00    +0.000 A 
ATOM     11  C   UNL     1       0.541  18.309  19.673  0.00  0.00    +0.000 A 
ATOM     12  C   UNL     1       0.921  17.129  20.331  0.00  0.00    +0.000 A 
ATOM     13  C   UNL     1       0.494  15.915  19.774  0.00  0.00    +0.000 A 
ATOM     14  N   UNL     1       0.612  14.588  20.163  0.00  0.00    +0.000 N 
BRANCH  14  15
ATOM     15  C   UNL     1       0.819  14.162  21.553  0.00  0.00    +0.000 C 
BRANCH  15  16
ATOM     16  C   UNL     1      -0.284  13.374  22.237  0.00  0.00    +0.000 A 
ATOM     17  C   UNL     1      -1.519  13.924  22.598  0.00  0.00    +0.000 A 
ATOM     18  C   UNL     1      -2.544  13.114  23.112  0.00  0.00    +0.000 A 
ATOM     19  C   UNL     1      -3.862  13.695  23.536  0.00  0.00    +0.000 C 
ATOM     20  C   UNL     1      -2.338  11.734  23.249  0.00  0.00    +0.000 A 
ATOM     21  C   UNL     1      -1.116  11.157  22.913  0.00  0.00    +0.000 A 
ATOM     22  C   UNL     1      -0.938   9.668  23.010  0.00  0.00    +0.000 C 
ATOM     23  C   UNL     1      -0.100  11.982  22.406  0.00  0.00    +0.000 A 
ENDBRANCH  15  16
ENDBRANCH  14  15
ENDBRANCH   5   6
BRANCH   1  27
ATOM     24  C   UNL     1      -5.244  12.334  18.468  0.00  0.00    +0.000 A 
ATOM     25  C   UNL     1      -4.586  11.716  17.402  0.00  0.00    +0.000 A 
ATOM     26  C   UNL     1      -3.234  11.355  17.501  0.00  0.00    +0.000 A 
ATOM     27  C   UNL     1      -2.513  11.620  18.668  0.00  0.00    +0.000 A 
ATOM     28  C   UNL     1      -3.193  12.226  19.741  0.00  0.00    +0.000 A 
ATOM     29  C   UNL     1      -4.543  12.583  19.644  0.00  0.00    +0.000 A 
BRANCH  24  31
ATOM     30  C   UNL     1      -7.356  12.925  19.366  0.00  0.00    +0.000 C 
ATOM     31  O   UNL     1      -6.537  12.707  18.223  0.00  0.00    +0.000 OA
ENDBRANCH  24  31
ENDBRANCH   1  27
BRANCH   3  32
ATOM     32  C   UNL     1       1.537   9.078  18.851  0.00  0.00    +0.000 A 
ATOM     33  C   UNL     1       2.322   8.782  17.724  0.00  0.00    +0.000 A 
ATOM     34  C   UNL     1       3.076   7.610  17.685  0.00  0.00    +0.000 A 
ATOM     35  C   UNL     1       3.051   6.730  18.764  0.00  0.00    +0.000 A 
ATOM     36  C   UNL     1       2.281   7.026  19.890  0.00  0.00    +0.000 A 
ATOM     37  C   UNL     1       1.525   8.198  19.940  0.00  0.00    +0.000 A 
ENDBRANCH   3  32
TORSDOF 6
ENDMDL
MODEL 9
REMARK VINA RESULT:      -7.9      2.876      5.862
REMARK  Name = 
REMARK  9 active torsions:
REMARK  status: ('A' for Active; 'I' for Inactive)
REMARK    1  A    between atoms: C_1  and  O_2
REMARK    2  A    between atoms: O_2  and  C_3
REMARK    3  A    between atoms: C_6  and  C_7
REMARK    4  A    between atoms: N_9  and  C_10
REMARK    5  A    between atoms: C_17  and  C_18
REMARK    6  A    between atoms: N_26  and  C_27
REMARK    7  A    between atoms: C_27  and  C_28
REMARK    8  A    between atoms: C_30  and  C_31
REMARK    9  A    between atoms: C_33  and  C_34
REMARK                            x       y       z     vdW  Elec       q    Type
REMARK                         _______ _______ _______ _____ _____    ______ ____
ROOT
ATOM      1  C   UNL     1      -0.845  10.947  18.340  0.00  0.00    +0.000 A 
ATOM      2  N   UNL     1      -0.293   9.739  18.129  0.00  0.00    +0.000 NA
ATOM      3  N   UNL     1       0.953   9.799  18.634  0.00  0.00    +0.000 N 
ATOM      4  C   UNL     1       1.238  11.045  19.129  0.00  0.00    +0.000 A 
ATOM      5  C   UNL     1       0.107  11.811  18.959  0.00  0.00    +0.000 A 
ENDROOT
BRANCH   5   6
ATOM      6  C   UNL     1       0.019  13.259  19.295  0.00  0.00    +0.000 A 
ATOM      7  N   UNL     1      -0.346  14.144  18.391  0.00  0.00    +0.000 NA
ATOM      8  C   UNL     1      -0.205  15.369  18.975  0.00  0.00    +0.000 A 
ATOM      9  C   UNL     1      -0.455  16.635  18.430  0.00  0.00    +0.000 A 
ATOM     10  C   UNL     1      -0.248  17.764  19.228  0.00  0.00    +0.000 A 
ATOM     11  C   UNL     1       0.207  17.631  20.540  0.00  0.00    +0.000 A 
ATOM     12  C   UNL     1       0.453  16.369  21.103  0.00  0.00    +0.000 A 
ATOM     13  C   UNL     1       0.233  15.248  20.289  0.00  0.00    +0.000 A 
ATOM     14  N   UNL     1       0.302  13.879  20.506  0.00  0.00    +0.000 N 
BRANCH  14  15
ATOM     15  C   UNL     1       0.161  13.255  21.828  0.00  0.00    +0.000 C 
BRANCH  15  16
ATOM     16  C   UNL     1      -1.104  13.524  22.621  0.00  0.00    +0.000 A 
ATOM     17  C   UNL     1      -1.151  14.353  23.747  0.00  0.00    +0.000 A 
ATOM     18  C   UNL     1      -2.374  14.663  24.363  0.00  0.00    +0.000 A 
ATOM     19  C   UNL     1      -2.436  15.522  25.592  0.00  0.00    +0.000 C 
ATOM     20  C   UNL     1      -3.568  14.153  23.833  0.00  0.00    +0.000 A 
ATOM     21  C   UNL     1      -3.557  13.314  22.722  0.00  0.00    +0.000 A 
ATOM     22  C   UNL     1      -4.852  12.829  22.135  0.00  0.00    +0.000 C 
ATOM     23  C   UNL     1      -2.324  13.009  22.123  0.00  0.00    +0.000 A 
ENDBRANCH  15  16
ENDBRANCH  14  15
ENDBRANCH   5   6
BRANCH   1  27
ATOM     24  C   UNL     1      -4.925  11.804  17.317  0.00  0.00    +0.000 A 
ATOM     25  C   UNL     1      -4.057  11.277  16.357  0.00  0.00    +0.000 A 
ATOM     26  C   UNL     1      -2.740  10.929  16.689  0.00  0.00    +0.000 A 
ATOM     27  C   UNL     1      -2.263  11.116  17.990  0.00  0.00    +0.000 A 
ATOM     28  C   UNL     1      -3.153  11.630  18.951  0.00  0.00    +0.000 A 
ATOM     29  C   UNL     1      -4.470  11.974  18.620  0.00  0.00    +0.000 A 
BRANCH  24  31
ATOM     30  C   UNL     1      -6.578  13.497  17.178  0.00  0.00    +0.000 C 
ATOM     31  O   UNL     1      -6.156  12.176  16.853  0.00  0.00    +0.000 OA
ENDBRANCH  24  31
ENDBRANCH   1  27
BRANCH   3  32
ATOM     32  C   UNL     1       1.783   8.644  18.633  0.00  0.00    +0.000 A 
ATOM     33  C   UNL     1       1.727   7.764  19.727  0.00  0.00    +0.000 A 
ATOM     34  C   UNL     1       2.560   6.646  19.769  0.00  0.00    +0.000 A 
ATOM     35  C   UNL     1       3.450   6.402  18.726  0.00  0.00    +0.000 A 
ATOM     36  C   UNL     1       3.501   7.268  17.632  0.00  0.00    +0.000 A 
ATOM     37  C   UNL     1       2.669   8.388  17.579  0.00  0.00    +0.000 A 
ENDBRANCH   3  32
TORSDOF 6
ENDMDL
