MODEL 1
REMARK VINA RESULT:      -8.3      0.000      0.000
REMARK  Name = 
REMARK  13 active torsions:
REMARK  status: ('A' for Active; 'I' for Inactive)
REMARK    1  A    between atoms: C_1  and  O_2
REMARK    2  A    between atoms: O_2  and  C_3
REMARK    3  A    between atoms: C_6  and  C_7
REMARK    4  A    between atoms: C_12  and  C_13
REMARK    5  A    between atoms: N_17  and  C_29
REMARK    6  A    between atoms: C_18  and  C_20
REMARK    7  A    between atoms: C_20  and  C_21
REMARK    8  A    between atoms: C_20  and  C_25
REMARK    9  A    between atoms: C_21  and  C_22
REMARK   10  A    between atoms: C_22  and  O_24
REMARK   11  A    between atoms: C_25  and  C_26
REMARK   12  A    between atoms: C_26  and  C_27
REMARK   13  A    between atoms: C_26  and  C_28
REMARK                            x       y       z     vdW  Elec       q    Type
REMARK                         _______ _______ _______ _____ _____    ______ ____
ROOT
ATOM      1  C   UNL     1       2.367   6.552  19.302  0.00  0.00    +0.000 A 
ATOM      2  C   UNL     1       2.647   6.905  17.997  0.00  0.00    +0.000 A 
ATOM      3  S   UNL     1       2.233   8.550  17.724  0.00  0.00    +0.000 S 
ATOM      4  C   UNL     1       1.637   8.668  19.329  0.00  0.00    +0.000 A 
ATOM      5  N   UNL     1       0.931   9.800  19.770  0.00  0.00    +0.000 N 
ATOM      6  C   UNL     1       1.239  11.085  19.287  0.00  0.00    +0.000 C 
ATOM      7  O   UNL     1       2.196  11.349  18.546  0.00  0.00    +0.000 OA
ATOM      8  N   UNL     1       1.759   7.557  20.027  0.00  0.00    +0.000 NA
ENDROOT
BRANCH   1  14
ATOM      9  C   UNL     1       3.684   4.364  19.403  0.00  0.00    +0.000 A 
ATOM     10  C   UNL     1       3.825   3.109  20.054  0.00  0.00    +0.000 A 
ATOM     11  C   UNL     1       3.042   2.731  21.145  0.00  0.00    +0.000 A 
ATOM     12  C   UNL     1       2.075   3.598  21.622  0.00  0.00    +0.000 A 
ATOM     13  C   UNL     1       1.888   4.832  20.998  0.00  0.00    +0.000 A 
ATOM     14  C   UNL     1       2.663   5.235  19.883  0.00  0.00    +0.000 A 
BRANCH   9  18
ATOM     15  C   UNL     1       6.466   5.313  16.310  0.00  0.00    +0.000 A 
ATOM     16  C   UNL     1       5.298   4.670  15.947  0.00  0.00    +0.000 A 
ATOM     17  C   UNL     1       4.395   4.311  16.951  0.00  0.00    +0.000 A 
ATOM     18  C   UNL     1       4.625   4.663  18.285  0.00  0.00    +0.000 A 
ATOM     19  C   UNL     1       5.840   5.322  18.518  0.00  0.00    +0.000 A 
ATOM     20  N   UNL     1       6.769   5.636  17.580  0.00  0.00    +0.000 NA
BRANCH  15  22
ATOM     21  C   UNL     1       7.087   4.864  14.106  0.00  0.00    +0.000 C 
ATOM     22  O   UNL     1       7.358   5.595  15.297  0.00  0.00    +0.000 OA
ENDBRANCH  15  22
ENDBRANCH   9  18
ENDBRANCH   1  14
BRANCH   5  23
ATOM     23  C   UNL     1       0.012   9.578  20.877  0.00  0.00    +0.000 C 
ATOM     24  C   UNL     1       0.547   9.064  22.196  0.00  0.00    +0.000 C 
ATOM     25  C   UNL     1      -0.064  10.417  22.136  0.00  0.00    +0.000 C 
ENDBRANCH   5  23
BRANCH   6  26
ATOM     26  C   UNL     1       0.416  12.278  19.829  0.00  0.00    +0.000 C 
BRANCH  26  27
ATOM     27  C   UNL     1       1.322  13.527  19.897  0.00  0.00    +0.000 C 
BRANCH  27  28
ATOM     28  C   UNL     1       1.881  13.771  21.270  0.00  0.00    +0.000 C 
ATOM     29  O   UNL     1       3.071  13.779  21.520  0.00  0.00    +0.000 OA
BRANCH  28  30
ATOM     30  O   UNL     1       0.930  14.038  22.195  0.00  0.00    +0.000 OA
ATOM     31  H   UNL     1       0.019  14.069  21.846  0.00  0.00    +0.000 HD
ENDBRANCH  28  30
ENDBRANCH  27  28
ENDBRANCH  26  27
BRANCH  26  32
ATOM     32  C   UNL     1      -0.756  12.643  18.880  0.00  0.00    +0.000 C 
BRANCH  32  33
ATOM     33  C   UNL     1      -2.007  11.750  18.954  0.00  0.00    +0.000 C 
ATOM     34  C   UNL     1      -3.133  12.390  19.758  0.00  0.00    +0.000 C 
ATOM     35  C   UNL     1      -2.515  11.460  17.536  0.00  0.00    +0.000 C 
ENDBRANCH  32  33
ENDBRANCH  26  32
ENDBRANCH   6  26
TORSDOF 10
ENDMDL
MODEL 2
REMARK VINA RESULT:      -8.2      0.609      1.201
REMARK  Name = 
REMARK  13 active torsions:
REMARK  status: ('A' for Active; 'I' for Inactive)
REMARK    1  A    between atoms: C_1  and  O_2
REMARK    2  A    between atoms: O_2  and  C_3
REMARK    3  A    between atoms: C_6  and  C_7
REMARK    4  A    between atoms: C_12  and  C_13
REMARK    5  A    between atoms: N_17  and  C_29
REMARK    6  A    between atoms: C_18  and  C_20
REMARK    7  A    between atoms: C_20  and  C_21
REMARK    8  A    between atoms: C_20  and  C_25
REMARK    9  A    between atoms: C_21  and  C_22
REMARK   10  A    between atoms: C_22  and  O_24
REMARK   11  A    between atoms: C_25  and  C_26
REMARK   12  A    between atoms: C_26  and  C_27
REMARK   13  A    between atoms: C_26  and  C_28
REMARK                            x       y       z     vdW  Elec       q    Type
REMARK                         _______ _______ _______ _____ _____    ______ ____
ROOT
ATOM      1  C   UNL     1       2.411   6.564  19.287  0.00  0.00    +0.000 A 
ATOM      2  C   UNL     1       2.770   6.920  18.001  0.00  0.00    +0.000 A 
ATOM      3  S   UNL     1       2.360   8.561  17.702  0.00  0.00    +0.000 S 
ATOM      4  C   UNL     1       1.663   8.674  19.266  0.00  0.00    +0.000 A 
ATOM      5  N   UNL     1       0.922   9.800  19.662  0.00  0.00    +0.000 N 
ATOM      6  C   UNL     1       1.248  11.087  19.198  0.00  0.00    +0.000 C 
ATOM      7  O   UNL     1       2.248  11.360  18.520  0.00  0.00    +0.000 OA
ATOM      8  N   UNL     1       1.751   7.564  19.971  0.00  0.00    +0.000 NA
ENDROOT
BRANCH   1  14
ATOM      9  C   UNL     1       3.739   4.389  19.474  0.00  0.00    +0.000 A 
ATOM     10  C   UNL     1       3.849   3.135  20.133  0.00  0.00    +0.000 A 
ATOM     11  C   UNL     1       3.000   2.748  21.169  0.00  0.00    +0.000 A 
ATOM     12  C   UNL     1       1.995   3.605  21.582  0.00  0.00    +0.000 A 
ATOM     13  C   UNL     1       1.837   4.838  20.946  0.00  0.00    +0.000 A 
ATOM     14  C   UNL     1       2.681   5.250  19.885  0.00  0.00    +0.000 A 
BRANCH   9  18
ATOM     15  C   UNL     1       6.556   5.158  16.361  0.00  0.00    +0.000 A 
ATOM     16  C   UNL     1       6.807   5.709  17.604  0.00  0.00    +0.000 A 
ATOM     17  C   UNL     1       5.873   5.505  18.624  0.00  0.00    +0.000 A 
ATOM     18  C   UNL     1       4.749   4.698  18.421  0.00  0.00    +0.000 A 
ATOM     19  C   UNL     1       4.618   4.191  17.120  0.00  0.00    +0.000 A 
ATOM     20  N   UNL     1       5.469   4.413  16.088  0.00  0.00    +0.000 NA
BRANCH  15  22
ATOM     21  C   UNL     1       7.107   4.863  14.113  0.00  0.00    +0.000 C 
ATOM     22  O   UNL     1       7.470   5.433  15.366  0.00  0.00    +0.000 OA
ENDBRANCH  15  22
ENDBRANCH   9  18
ENDBRANCH   1  14
BRANCH   5  23
ATOM     23  C   UNL     1      -0.063   9.570  20.708  0.00  0.00    +0.000 C 
ATOM     24  C   UNL     1       0.342   8.823  21.961  0.00  0.00    +0.000 C 
ATOM     25  C   UNL     1      -0.077  10.245  22.064  0.00  0.00    +0.000 C 
ENDBRANCH   5  23
BRANCH   6  26
ATOM     26  C   UNL     1       0.383  12.273  19.687  0.00  0.00    +0.000 C 
BRANCH  26  27
ATOM     27  C   UNL     1       1.307  13.457  20.050  0.00  0.00    +0.000 C 
BRANCH  27  28
ATOM     28  C   UNL     1       1.093  13.960  21.449  0.00  0.00    +0.000 C 
ATOM     29  O   UNL     1      -0.001  14.034  21.977  0.00  0.00    +0.000 OA
BRANCH  28  30
ATOM     30  O   UNL     1       2.245  14.270  22.088  0.00  0.00    +0.000 OA
ATOM     31  H   UNL     1       2.797  13.503  22.328  0.00  0.00    +0.000 HD
ENDBRANCH  28  30
ENDBRANCH  27  28
ENDBRANCH  26  27
BRANCH  26  32
ATOM     32  C   UNL     1      -0.564  12.789  18.571  0.00  0.00    +0.000 C 
BRANCH  32  33
ATOM     33  C   UNL     1      -2.031  12.329  18.645  0.00  0.00    +0.000 C 
ATOM     34  C   UNL     1      -2.238  10.942  18.047  0.00  0.00    +0.000 C 
ATOM     35  C   UNL     1      -2.490  12.310  20.109  0.00  0.00    +0.000 C 
ENDBRANCH  32  33
ENDBRANCH  26  32
ENDBRANCH   6  26
TORSDOF 10
ENDMDL
MODEL 3
REMARK VINA RESULT:      -7.7      0.973      1.313
REMARK  Name = 
REMARK  13 active torsions:
REMARK  status: ('A' for Active; 'I' for Inactive)
REMARK    1  A    between atoms: C_1  and  O_2
REMARK    2  A    between atoms: O_2  and  C_3
REMARK    3  A    between atoms: C_6  and  C_7
REMARK    4  A    between atoms: C_12  and  C_13
REMARK    5  A    between atoms: N_17  and  C_29
REMARK    6  A    between atoms: C_18  and  C_20
REMARK    7  A    between atoms: C_20  and  C_21
REMARK    8  A    between atoms: C_20  and  C_25
REMARK    9  A    between atoms: C_21  and  C_22
REMARK   10  A    between atoms: C_22  and  O_24
REMARK   11  A    between atoms: C_25  and  C_26
REMARK   12  A    between atoms: C_26  and  C_27
REMARK   13  A    between atoms: C_26  and  C_28
REMARK                            x       y       z     vdW  Elec       q    Type
REMARK                         _______ _______ _______ _____ _____    ______ ____
ROOT
ATOM      1  C   UNL     1       2.328   6.408  19.240  0.00  0.00    +0.000 A 
ATOM      2  C   UNL     1       2.278   6.608  17.875  0.00  0.00    +0.000 A 
ATOM      3  S   UNL     1       1.978   8.264  17.528  0.00  0.00    +0.000 S 
ATOM      4  C   UNL     1       1.858   8.597  19.207  0.00  0.00    +0.000 A 
ATOM      5  N   UNL     1       1.421   9.845  19.681  0.00  0.00    +0.000 N 
ATOM      6  C   UNL     1       1.717  11.032  18.986  0.00  0.00    +0.000 C 
ATOM      7  O   UNL     1       2.459  11.103  17.996  0.00  0.00    +0.000 OA
ATOM      8  N   UNL     1       2.049   7.543  19.975  0.00  0.00    +0.000 NA
ENDROOT
BRANCH   1  14
ATOM      9  C   UNL     1       3.691   4.258  19.462  0.00  0.00    +0.000 A 
ATOM     10  C   UNL     1       3.836   3.028  20.159  0.00  0.00    +0.000 A 
ATOM     11  C   UNL     1       3.021   2.665  21.231  0.00  0.00    +0.000 A 
ATOM     12  C   UNL     1       2.017   3.523  21.643  0.00  0.00    +0.000 A 
ATOM     13  C   UNL     1       1.824   4.731  20.972  0.00  0.00    +0.000 A 
ATOM     14  C   UNL     1       2.633   5.118  19.875  0.00  0.00    +0.000 A 
BRANCH   9  18
ATOM     15  C   UNL     1       6.548   5.199  16.435  0.00  0.00    +0.000 A 
ATOM     16  C   UNL     1       5.535   4.318  16.109  0.00  0.00    +0.000 A 
ATOM     17  C   UNL     1       4.616   3.962  17.100  0.00  0.00    +0.000 A 
ATOM     18  C   UNL     1       4.667   4.544  18.372  0.00  0.00    +0.000 A 
ATOM     19  C   UNL     1       5.736   5.429  18.570  0.00  0.00    +0.000 A 
ATOM     20  N   UNL     1       6.681   5.755  17.653  0.00  0.00    +0.000 NA
BRANCH  15  22
ATOM     21  C   UNL     1       7.091   4.950  14.180  0.00  0.00    +0.000 C 
ATOM     22  O   UNL     1       7.470   5.477  15.447  0.00  0.00    +0.000 OA
ENDBRANCH  15  22
ENDBRANCH   9  18
ENDBRANCH   1  14
BRANCH   5  23
ATOM     23  C   UNL     1       0.820   9.841  21.006  0.00  0.00    +0.000 C 
ATOM     24  C   UNL     1      -0.657  10.136  21.154  0.00  0.00    +0.000 C 
ATOM     25  C   UNL     1      -0.141   8.794  21.532  0.00  0.00    +0.000 C 
ENDBRANCH   5  23
BRANCH   6  26
ATOM     26  C   UNL     1       1.202  12.365  19.579  0.00  0.00    +0.000 C 
BRANCH  26  27
ATOM     27  C   UNL     1       2.403  13.305  19.826  0.00  0.00    +0.000 C 
BRANCH  27  28
ATOM     28  C   UNL     1       2.539  13.717  21.264  0.00  0.00    +0.000 C 
ATOM     29  O   UNL     1       1.600  14.054  21.959  0.00  0.00    +0.000 OA
BRANCH  28  30
ATOM     30  O   UNL     1       3.806  13.621  21.730  0.00  0.00    +0.000 OA
ATOM     31  H   UNL     1       4.380  13.012  21.229  0.00  0.00    +0.000 HD
ENDBRANCH  28  30
ENDBRANCH  27  28
ENDBRANCH  26  27
BRANCH  26  32
ATOM     32  C   UNL     1       0.265  13.107  18.591  0.00  0.00    +0.000 C 
BRANCH  32  33
ATOM     33  C   UNL     1      -0.881  13.927  19.210  0.00  0.00    +0.000 C 
ATOM     34  C   UNL     1      -1.336  13.369  20.555  0.00  0.00    +0.000 C 
ATOM     35  C   UNL     1      -0.427  15.379  19.405  0.00  0.00    +0.000 C 
ENDBRANCH  32  33
ENDBRANCH  26  32
ENDBRANCH   6  26
TORSDOF 10
ENDMDL
MODEL 4
REMARK VINA RESULT:      -7.7      1.262      1.987
REMARK  Name = 
REMARK  13 active torsions:
REMARK  status: ('A' for Active; 'I' for Inactive)
REMARK    1  A    between atoms: C_1  and  O_2
REMARK    2  A    between atoms: O_2  and  C_3
REMARK    3  A    between atoms: C_6  and  C_7
REMARK    4  A    between atoms: C_12  and  C_13
REMARK    5  A    between atoms: N_17  and  C_29
REMARK    6  A    between atoms: C_18  and  C_20
REMARK    7  A    between atoms: C_20  and  C_21
REMARK    8  A    between atoms: C_20  and  C_25
REMARK    9  A    between atoms: C_21  and  C_22
REMARK   10  A    between atoms: C_22  and  O_24
REMARK   11  A    between atoms: C_25  and  C_26
REMARK   12  A    between atoms: C_26  and  C_27
REMARK   13  A    between atoms: C_26  and  C_28
REMARK                            x       y       z     vdW  Elec       q    Type
REMARK                         _______ _______ _______ _____ _____    ______ ____
ROOT
ATOM      1  C   UNL     1       2.336   6.639  19.277  0.00  0.00    +0.000 A 
ATOM      2  C   UNL     1       2.725   7.030  18.011  0.00  0.00    +0.000 A 
ATOM      3  S   UNL     1       2.316   8.677  17.744  0.00  0.00    +0.000 S 
ATOM      4  C   UNL     1       1.580   8.747  19.292  0.00  0.00    +0.000 A 
ATOM      5  N   UNL     1       0.824   9.859  19.698  0.00  0.00    +0.000 N 
ATOM      6  C   UNL     1       1.156  11.159  19.276  0.00  0.00    +0.000 C 
ATOM      7  O   UNL     1       2.172  11.453  18.630  0.00  0.00    +0.000 OA
ATOM      8  N   UNL     1       1.654   7.619  19.971  0.00  0.00    +0.000 NA
ENDROOT
BRANCH   1  14
ATOM      9  C   UNL     1       3.658   4.458  19.429  0.00  0.00    +0.000 A 
ATOM     10  C   UNL     1       3.758   3.189  20.060  0.00  0.00    +0.000 A 
ATOM     11  C   UNL     1       2.896   2.780  21.077  0.00  0.00    +0.000 A 
ATOM     12  C   UNL     1       1.888   3.629  21.498  0.00  0.00    +0.000 A 
ATOM     13  C   UNL     1       1.740   4.876  20.889  0.00  0.00    +0.000 A 
ATOM     14  C   UNL     1       2.596   5.311  19.848  0.00  0.00    +0.000 A 
BRANCH   9  18
ATOM     15  C   UNL     1       6.504   5.306  16.363  0.00  0.00    +0.000 A 
ATOM     16  C   UNL     1       6.798   5.727  17.646  0.00  0.00    +0.000 A 
ATOM     17  C   UNL     1       5.858   5.499  18.655  0.00  0.00    +0.000 A 
ATOM     18  C   UNL     1       4.681   4.789  18.396  0.00  0.00    +0.000 A 
ATOM     19  C   UNL     1       4.508   4.408  17.057  0.00  0.00    +0.000 A 
ATOM     20  N   UNL     1       5.368   4.661  16.039  0.00  0.00    +0.000 NA
BRANCH  15  22
ATOM     21  C   UNL     1       7.182   4.914  14.166  0.00  0.00    +0.000 C 
ATOM     22  O   UNL     1       7.429   5.604  15.386  0.00  0.00    +0.000 OA
ENDBRANCH  15  22
ENDBRANCH   9  18
ENDBRANCH   1  14
BRANCH   5  23
ATOM     23  C   UNL     1      -0.186   9.599  20.714  0.00  0.00    +0.000 C 
ATOM     24  C   UNL     1      -0.046   8.386  21.609  0.00  0.00    +0.000 C 
ATOM     25  C   UNL     1       0.014   9.746  22.208  0.00  0.00    +0.000 C 
ENDBRANCH   5  23
BRANCH   6  26
ATOM     26  C   UNL     1       0.274  12.329  19.774  0.00  0.00    +0.000 C 
BRANCH  26  27
ATOM     27  C   UNL     1       0.933  12.965  21.018  0.00  0.00    +0.000 C 
BRANCH  27  28
ATOM     28  C   UNL     1      -0.068  13.483  22.011  0.00  0.00    +0.000 C 
ATOM     29  O   UNL     1      -1.194  13.036  22.127  0.00  0.00    +0.000 OA
BRANCH  28  30
ATOM     30  O   UNL     1       0.423  14.463  22.804  0.00  0.00    +0.000 OA
ATOM     31  H   UNL     1       0.783  15.233  22.326  0.00  0.00    +0.000 HD
ENDBRANCH  28  30
ENDBRANCH  27  28
ENDBRANCH  26  27
BRANCH  26  32
ATOM     32  C   UNL     1       0.170  13.457  18.714  0.00  0.00    +0.000 C 
BRANCH  32  33
ATOM     33  C   UNL     1       0.852  14.793  19.060  0.00  0.00    +0.000 C 
ATOM     34  C   UNL     1       2.174  14.980  18.324  0.00  0.00    +0.000 C 
ATOM     35  C   UNL     1      -0.083  15.955  18.701  0.00  0.00    +0.000 C 
ENDBRANCH  32  33
ENDBRANCH  26  32
ENDBRANCH   6  26
TORSDOF 10
ENDMDL
MODEL 5
REMARK VINA RESULT:      -7.7      1.210      1.839
REMARK  Name = 
REMARK  13 active torsions:
REMARK  status: ('A' for Active; 'I' for Inactive)
REMARK    1  A    between atoms: C_1  and  O_2
REMARK    2  A    between atoms: O_2  and  C_3
REMARK    3  A    between atoms: C_6  and  C_7
REMARK    4  A    between atoms: C_12  and  C_13
REMARK    5  A    between atoms: N_17  and  C_29
REMARK    6  A    between atoms: C_18  and  C_20
REMARK    7  A    between atoms: C_20  and  C_21
REMARK    8  A    between atoms: C_20  and  C_25
REMARK    9  A    between atoms: C_21  and  C_22
REMARK   10  A    between atoms: C_22  and  O_24
REMARK   11  A    between atoms: C_25  and  C_26
REMARK   12  A    between atoms: C_26  and  C_27
REMARK   13  A    between atoms: C_26  and  C_28
REMARK                            x       y       z     vdW  Elec       q    Type
REMARK                         _______ _______ _______ _____ _____    ______ ____
ROOT
ATOM      1  C   UNL     1       2.369   6.543  19.262  0.00  0.00    +0.000 A 
ATOM      2  C   UNL     1       2.682   6.881  17.960  0.00  0.00    +0.000 A 
ATOM      3  S   UNL     1       2.281   8.524  17.658  0.00  0.00    +0.000 S 
ATOM      4  C   UNL     1       1.647   8.663  19.247  0.00  0.00    +0.000 A 
ATOM      5  N   UNL     1       0.935   9.802  19.658  0.00  0.00    +0.000 N 
ATOM      6  C   UNL     1       1.259  11.080  19.168  0.00  0.00    +0.000 C 
ATOM      7  O   UNL     1       2.236  11.332  18.448  0.00  0.00    +0.000 OA
ATOM      8  N   UNL     1       1.748   7.559  19.960  0.00  0.00    +0.000 NA
ENDROOT
BRANCH   1  14
ATOM      9  C   UNL     1       3.673   4.351  19.418  0.00  0.00    +0.000 A 
ATOM     10  C   UNL     1       3.793   3.103  20.087  0.00  0.00    +0.000 A 
ATOM     11  C   UNL     1       2.984   2.741  21.164  0.00  0.00    +0.000 A 
ATOM     12  C   UNL     1       2.010   3.618  21.609  0.00  0.00    +0.000 A 
ATOM     13  C   UNL     1       1.843   4.845  20.966  0.00  0.00    +0.000 A 
ATOM     14  C   UNL     1       2.645   5.232  19.864  0.00  0.00    +0.000 A 
BRANCH   9  18
ATOM     15  C   UNL     1       6.528   5.256  16.377  0.00  0.00    +0.000 A 
ATOM     16  C   UNL     1       5.381   4.582  16.001  0.00  0.00    +0.000 A 
ATOM     17  C   UNL     1       4.455   4.238  16.990  0.00  0.00    +0.000 A 
ATOM     18  C   UNL     1       4.641   4.632  18.319  0.00  0.00    +0.000 A 
ATOM     19  C   UNL     1       5.838   5.319  18.566  0.00  0.00    +0.000 A 
ATOM     20  N   UNL     1       6.788   5.620  17.646  0.00  0.00    +0.000 NA
BRANCH  15  22
ATOM     21  C   UNL     1       7.114   4.893  14.149  0.00  0.00    +0.000 C 
ATOM     22  O   UNL     1       7.444   5.523  15.382  0.00  0.00    +0.000 OA
ENDBRANCH  15  22
ENDBRANCH   9  18
ENDBRANCH   1  14
BRANCH   5  23
ATOM     23  C   UNL     1      -0.011   9.596  20.744  0.00  0.00    +0.000 C 
ATOM     24  C   UNL     1       0.005   8.289  21.508  0.00  0.00    +0.000 C 
ATOM     25  C   UNL     1       0.339   9.552  22.218  0.00  0.00    +0.000 C 
ENDBRANCH   5  23
BRANCH   6  26
ATOM     26  C   UNL     1       0.428  12.282  19.676  0.00  0.00    +0.000 C 
BRANCH  26  27
ATOM     27  C   UNL     1       1.086  12.846  20.955  0.00  0.00    +0.000 C 
BRANCH  27  28
ATOM     28  C   UNL     1       0.089  13.399  21.932  0.00  0.00    +0.000 C 
ATOM     29  O   UNL     1       0.321  14.334  22.675  0.00  0.00    +0.000 OA
BRANCH  28  30
ATOM     30  O   UNL     1      -1.118  12.790  21.867  0.00  0.00    +0.000 OA
ATOM     31  H   UNL     1      -1.087  11.850  21.608  0.00  0.00    +0.000 HD
ENDBRANCH  28  30
ENDBRANCH  27  28
ENDBRANCH  26  27
BRANCH  26  32
ATOM     32  C   UNL     1       0.413  13.443  18.648  0.00  0.00    +0.000 C 
BRANCH  32  33
ATOM     33  C   UNL     1       1.261  14.681  18.993  0.00  0.00    +0.000 C 
ATOM     34  C   UNL     1       2.513  14.789  18.130  0.00  0.00    +0.000 C 
ATOM     35  C   UNL     1       0.418  15.949  18.803  0.00  0.00    +0.000 C 
ENDBRANCH  32  33
ENDBRANCH  26  32
ENDBRANCH   6  26
TORSDOF 10
ENDMDL
MODEL 6
REMARK VINA RESULT:      -7.6      1.243      1.674
REMARK  Name = 
REMARK  13 active torsions:
REMARK  status: ('A' for Active; 'I' for Inactive)
REMARK    1  A    between atoms: C_1  and  O_2
REMARK    2  A    between atoms: O_2  and  C_3
REMARK    3  A    between atoms: C_6  and  C_7
REMARK    4  A    between atoms: C_12  and  C_13
REMARK    5  A    between atoms: N_17  and  C_29
REMARK    6  A    between atoms: C_18  and  C_20
REMARK    7  A    between atoms: C_20  and  C_21
REMARK    8  A    between atoms: C_20  and  C_25
REMARK    9  A    between atoms: C_21  and  C_22
REMARK   10  A    between atoms: C_22  and  O_24
REMARK   11  A    between atoms: C_25  and  C_26
REMARK   12  A    between atoms: C_26  and  C_27
REMARK   13  A    between atoms: C_26  and  C_28
REMARK                            x       y       z     vdW  Elec       q    Type
REMARK                         _______ _______ _______ _____ _____    ______ ____
ROOT
ATOM      1  C   UNL     1       2.397   5.974  19.339  0.00  0.00    +0.000 A 
ATOM      2  C   UNL     1       2.225   6.196  17.986  0.00  0.00    +0.000 A 
ATOM      3  S   UNL     1       1.821   7.841  17.700  0.00  0.00    +0.000 S 
ATOM      4  C   UNL     1       1.823   8.138  19.390  0.00  0.00    +0.000 A 
ATOM      5  N   UNL     1       1.369   9.355  19.925  0.00  0.00    +0.000 N 
ATOM      6  C   UNL     1       1.551  10.567  19.234  0.00  0.00    +0.000 C 
ATOM      7  O   UNL     1       2.205  10.692  18.189  0.00  0.00    +0.000 OA
ATOM      8  N   UNL     1       2.126   7.081  20.118  0.00  0.00    +0.000 NA
ENDROOT
BRANCH   1  14
ATOM      9  C   UNL     1       3.954   3.954  19.488  0.00  0.00    +0.000 A 
ATOM     10  C   UNL     1       4.204   2.711  20.130  0.00  0.00    +0.000 A 
ATOM     11  C   UNL     1       3.410   2.222  21.167  0.00  0.00    +0.000 A 
ATOM     12  C   UNL     1       2.322   2.960  21.598  0.00  0.00    +0.000 A 
ATOM     13  C   UNL     1       2.027   4.176  20.980  0.00  0.00    +0.000 A 
ATOM     14  C   UNL     1       2.812   4.690  19.918  0.00  0.00    +0.000 A 
BRANCH   9  18
ATOM     15  C   UNL     1       6.633   5.072  16.360  0.00  0.00    +0.000 A 
ATOM     16  C   UNL     1       6.908   5.529  17.635  0.00  0.00    +0.000 A 
ATOM     17  C   UNL     1       6.018   5.211  18.664  0.00  0.00    +0.000 A 
ATOM     18  C   UNL     1       4.916   4.382  18.432  0.00  0.00    +0.000 A 
ATOM     19  C   UNL     1       4.756   3.978  17.099  0.00  0.00    +0.000 A 
ATOM     20  N   UNL     1       5.563   4.313  16.062  0.00  0.00    +0.000 NA
BRANCH  15  22
ATOM     21  C   UNL     1       7.188   4.875  14.103  0.00  0.00    +0.000 C 
ATOM     22  O   UNL     1       7.503   5.459  15.362  0.00  0.00    +0.000 OA
ENDBRANCH  15  22
ENDBRANCH   9  18
ENDBRANCH   1  14
BRANCH   5  23
ATOM     23  C   UNL     1       0.879   9.299  21.294  0.00  0.00    +0.000 C 
ATOM     24  C   UNL     1      -0.433   9.969  21.643  0.00  0.00    +0.000 C 
ATOM     25  C   UNL     1      -0.312   8.492  21.768  0.00  0.00    +0.000 C 
ENDBRANCH   5  23
BRANCH   6  26
ATOM     26  C   UNL     1       1.025  11.863  19.896  0.00  0.00    +0.000 C 
BRANCH  26  27
ATOM     27  C   UNL     1       2.107  12.961  19.788  0.00  0.00    +0.000 C 
BRANCH  27  28
ATOM     28  C   UNL     1       1.918  13.853  18.595  0.00  0.00    +0.000 C 
ATOM     29  O   UNL     1       1.452  14.975  18.661  0.00  0.00    +0.000 OA
BRANCH  28  30
ATOM     30  O   UNL     1       2.371  13.309  17.442  0.00  0.00    +0.000 OA
ATOM     31  H   UNL     1       2.535  13.950  16.725  0.00  0.00    +0.000 HD
ENDBRANCH  28  30
ENDBRANCH  27  28
ENDBRANCH  26  27
BRANCH  26  32
ATOM     32  C   UNL     1      -0.226  12.413  19.161  0.00  0.00    +0.000 C 
BRANCH  32  33
ATOM     33  C   UNL     1      -1.450  12.743  20.035  0.00  0.00    +0.000 C 
ATOM     34  C   UNL     1      -1.582  14.236  20.313  0.00  0.00    +0.000 C 
ATOM     35  C   UNL     1      -2.725  12.254  19.337  0.00  0.00    +0.000 C 
ENDBRANCH  32  33
ENDBRANCH  26  32
ENDBRANCH   6  26
TORSDOF 10
ENDMDL
MODEL 7
REMARK VINA RESULT:      -7.6      0.908      1.406
REMARK  Name = 
REMARK  13 active torsions:
REMARK  status: ('A' for Active; 'I' for Inactive)
REMARK    1  A    between atoms: C_1  and  O_2
REMARK    2  A    between atoms: O_2  and  C_3
REMARK    3  A    between atoms: C_6  and  C_7
REMARK    4  A    between atoms: C_12  and  C_13
REMARK    5  A    between atoms: N_17  and  C_29
REMARK    6  A    between atoms: C_18  and  C_20
REMARK    7  A    between atoms: C_20  and  C_21
REMARK    8  A    between atoms: C_20  and  C_25
REMARK    9  A    between atoms: C_21  and  C_22
REMARK   10  A    between atoms: C_22  and  O_24
REMARK   11  A    between atoms: C_25  and  C_26
REMARK   12  A    between atoms: C_26  and  C_27
REMARK   13  A    between atoms: C_26  and  C_28
REMARK                            x       y       z     vdW  Elec       q    Type
REMARK                         _______ _______ _______ _____ _____    ______ ____
ROOT
ATOM      1  C   UNL     1       2.319   6.368  19.341  0.00  0.00    +0.000 A 
ATOM      2  C   UNL     1       2.211   6.620  17.987  0.00  0.00    +0.000 A 
ATOM      3  S   UNL     1       1.877   8.283  17.717  0.00  0.00    +0.000 S 
ATOM      4  C   UNL     1       1.820   8.550  19.411  0.00  0.00    +0.000 A 
ATOM      5  N   UNL     1       1.387   9.773  19.950  0.00  0.00    +0.000 N 
ATOM      6  C   UNL     1       1.640  10.990  19.290  0.00  0.00    +0.000 C 
ATOM      7  O   UNL     1       2.340  11.109  18.275  0.00  0.00    +0.000 OA
ATOM      8  N   UNL     1       2.056   7.471  20.129  0.00  0.00    +0.000 NA
ENDROOT
BRANCH   1  14
ATOM      9  C   UNL     1       3.766   4.267  19.477  0.00  0.00    +0.000 A 
ATOM     10  C   UNL     1       3.949   3.008  20.110  0.00  0.00    +0.000 A 
ATOM     11  C   UNL     1       3.131   2.555  21.145  0.00  0.00    +0.000 A 
ATOM     12  C   UNL     1       2.084   3.348  21.581  0.00  0.00    +0.000 A 
ATOM     13  C   UNL     1       1.854   4.582  20.970  0.00  0.00    +0.000 A 
ATOM     14  C   UNL     1       2.665   5.060  19.912  0.00  0.00    +0.000 A 
BRANCH   9  18
ATOM     15  C   UNL     1       6.504   5.258  16.357  0.00  0.00    +0.000 A 
ATOM     16  C   UNL     1       6.787   5.718  17.629  0.00  0.00    +0.000 A 
ATOM     17  C   UNL     1       5.880   5.442  18.655  0.00  0.00    +0.000 A 
ATOM     18  C   UNL     1       4.750   4.650  18.423  0.00  0.00    +0.000 A 
ATOM     19  C   UNL     1       4.584   4.238  17.093  0.00  0.00    +0.000 A 
ATOM     20  N   UNL     1       5.410   4.533  16.059  0.00  0.00    +0.000 NA
BRANCH  15  22
ATOM     21  C   UNL     1       7.159   4.899  14.147  0.00  0.00    +0.000 C 
ATOM     22  O   UNL     1       7.393   5.603  15.361  0.00  0.00    +0.000 OA
ENDBRANCH  15  22
ENDBRANCH   9  18
ENDBRANCH   1  14
BRANCH   5  23
ATOM     23  C   UNL     1       0.841   9.711  21.297  0.00  0.00    +0.000 C 
ATOM     24  C   UNL     1      -0.610  10.074  21.529  0.00  0.00    +0.000 C 
ATOM     25  C   UNL     1      -0.156   8.683  21.793  0.00  0.00    +0.000 C 
ENDBRANCH   5  23
BRANCH   6  26
ATOM     26  C   UNL     1       1.133  12.292  19.955  0.00  0.00    +0.000 C 
BRANCH  26  27
ATOM     27  C   UNL     1       2.169  13.414  19.722  0.00  0.00    +0.000 C 
BRANCH  27  28
ATOM     28  C   UNL     1       2.347  14.304  20.919  0.00  0.00    +0.000 C 
ATOM     29  O   UNL     1       1.823  14.095  21.997  0.00  0.00    +0.000 OA
BRANCH  28  30
ATOM     30  O   UNL     1       3.197  15.334  20.699  0.00  0.00    +0.000 OA
ATOM     31  H   UNL     1       3.270  15.967  21.437  0.00  0.00    +0.000 HD
ENDBRANCH  28  30
ENDBRANCH  27  28
ENDBRANCH  26  27
BRANCH  26  32
ATOM     32  C   UNL     1      -0.191  12.783  19.313  0.00  0.00    +0.000 C 
BRANCH  32  33
ATOM     33  C   UNL     1      -1.230  13.404  20.265  0.00  0.00    +0.000 C 
ATOM     34  C   UNL     1      -1.284  14.924  20.157  0.00  0.00    +0.000 C 
ATOM     35  C   UNL     1      -2.619  12.835  19.950  0.00  0.00    +0.000 C 
ENDBRANCH  32  33
ENDBRANCH  26  32
ENDBRANCH   6  26
TORSDOF 10
ENDMDL
MODEL 8
REMARK VINA RESULT:      -7.5      0.876      1.174
REMARK  Name = 
REMARK  13 active torsions:
REMARK  status: ('A' for Active; 'I' for Inactive)
REMARK    1  A    between atoms: C_1  and  O_2
REMARK    2  A    between atoms: O_2  and  C_3
REMARK    3  A    between atoms: C_6  and  C_7
REMARK    4  A    between atoms: C_12  and  C_13
REMARK    5  A    between atoms: N_17  and  C_29
REMARK    6  A    between atoms: C_18  and  C_20
REMARK    7  A    between atoms: C_20  and  C_21
REMARK    8  A    between atoms: C_20  and  C_25
REMARK    9  A    between atoms: C_21  and  C_22
REMARK   10  A    between atoms: C_22  and  O_24
REMARK   11  A    between atoms: C_25  and  C_26
REMARK   12  A    between atoms: C_26  and  C_27
REMARK   13  A    between atoms: C_26  and  C_28
REMARK                            x       y       z     vdW  Elec       q    Type
REMARK                         _______ _______ _______ _____ _____    ______ ____
ROOT
ATOM      1  C   UNL     1       2.439   6.308  19.271  0.00  0.00    +0.000 A 
ATOM      2  C   UNL     1       2.691   6.634  17.953  0.00  0.00    +0.000 A 
ATOM      3  S   UNL     1       2.245   8.265  17.648  0.00  0.00    +0.000 S 
ATOM      4  C   UNL     1       1.675   8.412  19.260  0.00  0.00    +0.000 A 
ATOM      5  N   UNL     1       0.958   9.543  19.686  0.00  0.00    +0.000 N 
ATOM      6  C   UNL     1       1.236  10.820  19.167  0.00  0.00    +0.000 C 
ATOM      7  O   UNL     1       2.176  11.082  18.404  0.00  0.00    +0.000 OA
ATOM      8  N   UNL     1       1.828   7.321  19.982  0.00  0.00    +0.000 NA
ENDROOT
BRANCH   1  14
ATOM      9  C   UNL     1       3.819   4.162  19.425  0.00  0.00    +0.000 A 
ATOM     10  C   UNL     1       3.989   2.923  20.099  0.00  0.00    +0.000 A 
ATOM     11  C   UNL     1       3.205   2.540  21.188  0.00  0.00    +0.000 A 
ATOM     12  C   UNL     1       2.207   3.386  21.639  0.00  0.00    +0.000 A 
ATOM     13  C   UNL     1       1.991   4.603  20.991  0.00  0.00    +0.000 A 
ATOM     14  C   UNL     1       2.767   5.011  19.878  0.00  0.00    +0.000 A 
BRANCH   9  18
ATOM     15  C   UNL     1       6.604   5.147  16.344  0.00  0.00    +0.000 A 
ATOM     16  C   UNL     1       5.489   4.409  15.991  0.00  0.00    +0.000 A 
ATOM     17  C   UNL     1       4.589   4.039  16.993  0.00  0.00    +0.000 A 
ATOM     18  C   UNL     1       4.763   4.469  18.313  0.00  0.00    +0.000 A 
ATOM     19  C   UNL     1       5.927   5.219  18.536  0.00  0.00    +0.000 A 
ATOM     20  N   UNL     1       6.854   5.549  17.604  0.00  0.00    +0.000 NA
BRANCH  15  22
ATOM     21  C   UNL     1       7.130   4.859  14.090  0.00  0.00    +0.000 C 
ATOM     22  O   UNL     1       7.498   5.439  15.337  0.00  0.00    +0.000 OA
ENDBRANCH  15  22
ENDBRANCH   9  18
ENDBRANCH   1  14
BRANCH   5  23
ATOM     23  C   UNL     1       0.062   9.333  20.814  0.00  0.00    +0.000 C 
ATOM     24  C   UNL     1       0.312   8.176  21.758  0.00  0.00    +0.000 C 
ATOM     25  C   UNL     1       0.412   9.569  22.269  0.00  0.00    +0.000 C 
ENDBRANCH   5  23
BRANCH   6  26
ATOM     26  C   UNL     1       0.403  12.012  19.694  0.00  0.00    +0.000 C 
BRANCH  26  27
ATOM     27  C   UNL     1       0.576  13.212  18.737  0.00  0.00    +0.000 C 
BRANCH  27  28
ATOM     28  C   UNL     1       1.505  14.262  19.275  0.00  0.00    +0.000 C 
ATOM     29  O   UNL     1       1.129  15.243  19.889  0.00  0.00    +0.000 OA
BRANCH  28  30
ATOM     30  O   UNL     1       2.811  13.982  19.060  0.00  0.00    +0.000 OA
ATOM     31  H   UNL     1       3.100  14.073  18.132  0.00  0.00    +0.000 HD
ENDBRANCH  28  30
ENDBRANCH  27  28
ENDBRANCH  26  27
BRANCH  26  32
ATOM     32  C   UNL     1      -1.114  11.687  19.713  0.00  0.00    +0.000 C 
BRANCH  32  33
ATOM     33  C   UNL     1      -1.835  11.684  18.353  0.00  0.00    +0.000 C 
ATOM     34  C   UNL     1      -1.655  10.369  17.601  0.00  0.00    +0.000 C 
ATOM     35  C   UNL     1      -3.334  11.930  18.566  0.00  0.00    +0.000 C 
ENDBRANCH  32  33
ENDBRANCH  26  32
ENDBRANCH   6  26
TORSDOF 10
ENDMDL
MODEL 9
REMARK VINA RESULT:      -7.4      1.431      1.834
REMARK  Name = 
REMARK  13 active torsions:
REMARK  status: ('A' for Active; 'I' for Inactive)
REMARK    1  A    between atoms: C_1  and  O_2
REMARK    2  A    between atoms: O_2  and  C_3
REMARK    3  A    between atoms: C_6  and  C_7
REMARK    4  A    between atoms: C_12  and  C_13
REMARK    5  A    between atoms: N_17  and  C_29
REMARK    6  A    between atoms: C_18  and  C_20
REMARK    7  A    between atoms: C_20  and  C_21
REMARK    8  A    between atoms: C_20  and  C_25
REMARK    9  A    between atoms: C_21  and  C_22
REMARK   10  A    between atoms: C_22  and  O_24
REMARK   11  A    between atoms: C_25  and  C_26
REMARK   12  A    between atoms: C_26  and  C_27
REMARK   13  A    between atoms: C_26  and  C_28
REMARK                            x       y       z     vdW  Elec       q    Type
REMARK                         _______ _______ _______ _____ _____    ______ ____
ROOT
ATOM      1  C   UNL     1       2.238   6.552  19.239  0.00  0.00    +0.000 A 
ATOM      2  C   UNL     1       2.119   6.770  17.880  0.00  0.00    +0.000 A 
ATOM      3  S   UNL     1       1.842   8.436  17.567  0.00  0.00    +0.000 S 
ATOM      4  C   UNL     1       1.818   8.751  19.254  0.00  0.00    +0.000 A 
ATOM      5  N   UNL     1       1.436  10.004  19.764  0.00  0.00    +0.000 N 
ATOM      6  C   UNL     1       1.724  11.192  19.067  0.00  0.00    +0.000 C 
ATOM      7  O   UNL     1       2.413  11.258  18.041  0.00  0.00    +0.000 OA
ATOM      8  N   UNL     1       2.025   7.684  20.000  0.00  0.00    +0.000 NA
ENDROOT
BRANCH   1  14
ATOM      9  C   UNL     1       3.638   4.425  19.446  0.00  0.00    +0.000 A 
ATOM     10  C   UNL     1       3.782   3.175  20.108  0.00  0.00    +0.000 A 
ATOM     11  C   UNL     1       2.932   2.759  21.131  0.00  0.00    +0.000 A 
ATOM     12  C   UNL     1       1.892   3.581  21.529  0.00  0.00    +0.000 A 
ATOM     13  C   UNL     1       1.700   4.807  20.891  0.00  0.00    +0.000 A 
ATOM     14  C   UNL     1       2.544   5.248  19.842  0.00  0.00    +0.000 A 
BRANCH   9  18
ATOM     15  C   UNL     1       6.464   5.301  16.371  0.00  0.00    +0.000 A 
ATOM     16  C   UNL     1       6.724   5.787  17.638  0.00  0.00    +0.000 A 
ATOM     17  C   UNL     1       5.788   5.549  18.648  0.00  0.00    +0.000 A 
ATOM     18  C   UNL     1       4.652   4.769  18.408  0.00  0.00    +0.000 A 
ATOM     19  C   UNL     1       4.512   4.327  17.085  0.00  0.00    +0.000 A 
ATOM     20  N   UNL     1       5.367   4.586  16.064  0.00  0.00    +0.000 NA
BRANCH  15  22
ATOM     21  C   UNL     1       7.147   4.903  14.176  0.00  0.00    +0.000 C 
ATOM     22  O   UNL     1       7.382   5.610  15.389  0.00  0.00    +0.000 OA
ENDBRANCH  15  22
ENDBRANCH   9  18
ENDBRANCH   1  14
BRANCH   5  23
ATOM     23  C   UNL     1       0.907   9.998  21.120  0.00  0.00    +0.000 C 
ATOM     24  C   UNL     1      -0.493  10.514  21.374  0.00  0.00    +0.000 C 
ATOM     25  C   UNL     1      -0.187   9.083  21.631  0.00  0.00    +0.000 C 
ENDBRANCH   5  23
BRANCH   6  26
ATOM     26  C   UNL     1       1.272  12.529  19.702  0.00  0.00    +0.000 C 
BRANCH  26  27
ATOM     27  C   UNL     1       2.519  13.312  20.171  0.00  0.00    +0.000 C 
BRANCH  27  28
ATOM     28  C   UNL     1       3.010  14.298  19.149  0.00  0.00    +0.000 C 
ATOM     29  O   UNL     1       2.931  15.504  19.286  0.00  0.00    +0.000 OA
BRANCH  28  30
ATOM     30  O   UNL     1       3.603  13.713  18.082  0.00  0.00    +0.000 OA
ATOM     31  H   UNL     1       3.342  12.786  17.929  0.00  0.00    +0.000 HD
ENDBRANCH  28  30
ENDBRANCH  27  28
ENDBRANCH  26  27
BRANCH  26  32
ATOM     32  C   UNL     1       0.552  13.437  18.671  0.00  0.00    +0.000 C 
BRANCH  32  33
ATOM     33  C   UNL     1      -0.681  14.208  19.174  0.00  0.00    +0.000 C 
ATOM     34  C   UNL     1      -0.975  13.941  20.646  0.00  0.00    +0.000 C 
ATOM     35  C   UNL     1      -0.460  15.714  18.979  0.00  0.00    +0.000 C 
ENDBRANCH  32  33
ENDBRANCH  26  32
ENDBRANCH   6  26
TORSDOF 10
ENDMDL
