MODEL 1
REMARK VINA RESULT:      -8.2      0.000      0.000
REMARK  Name = 
REMARK  4 active torsions:
REMARK  status: ('A' for Active; 'I' for Inactive)
REMARK    1  A    between atoms: C_2  and  O_3
REMARK    2  A    between atoms: C_2  and  C_4
REMARK    3  A    between atoms: C_10  and  C_11
REMARK    4  A    between atoms: N_13  and  C_14
REMARK                            x       y       z     vdW  Elec       q    Type
REMARK                         _______ _______ _______ _____ _____    ______ ____
ROOT
ATOM      1  C   UNL     1       3.937   4.673  17.695  0.00  0.00    +0.000 C 
ATOM      2  O   UNL     1       3.658   5.803  17.302  0.00  0.00    +0.000 OA
ATOM      3  N   UNL     1       4.860   3.826  17.109  0.00  0.00    +0.000 N 
ATOM      4  H   UNL     1       4.837   2.851  17.408  0.00  0.00    +0.000 HD
ENDROOT
BRANCH   3   5
ATOM      5  C   UNL     1       5.678   4.134  15.996  0.00  0.00    +0.000 A 
ATOM      6  C   UNL     1       6.816   4.946  16.087  0.00  0.00    +0.000 A 
ATOM      7  C   UNL     1       7.561   5.266  14.949  0.00  0.00    +0.000 A 
ATOM      8  C   UNL     1       7.175   4.768  13.713  0.00  0.00    +0.000 A 
ATOM      9  F   UNL     1       7.890   5.103  12.631  0.00  0.00    +0.000 F 
ATOM     10  C   UNL     1       6.065   3.934  13.609  0.00  0.00    +0.000 A 
ATOM     11 CL   UNL     1       5.581   3.315  12.076  0.00  0.00    +0.000 Cl
ATOM     12  C   UNL     1       5.324   3.603  14.749  0.00  0.00    +0.000 A 
ENDBRANCH   3   5
BRANCH   1  19
ATOM     13  C   UNL     1       3.350   2.595  19.054  0.00  0.00    +0.000 C 
ATOM     14  C   UNL     1       1.880   2.164  19.052  0.00  0.00    +0.000 C 
ATOM     15  C   UNL     1       1.103   2.577  20.302  0.00  0.00    +0.000 C 
ATOM     16  C   UNL     1       1.042   4.097  20.158  0.00  0.00    +0.000 C 
ATOM     17  C   UNL     1       1.710   4.318  18.802  0.00  0.00    +0.000 C 
ATOM     18  O   UNL     1       1.336   3.105  18.086  0.00  0.00    +0.000 OA
ATOM     19  C   UNL     1       3.221   4.124  18.918  0.00  0.00    +0.000 C 
BRANCH  13  21
ATOM     20  O   UNL     1       3.651   2.333  21.440  0.00  0.00    +0.000 OA
ATOM     21  C   UNL     1       4.070   2.164  20.304  0.00  0.00    +0.000 C 
BRANCH  21  22
ATOM     22  O   UNL     1       5.230   1.518  20.060  0.00  0.00    +0.000 OA
ATOM     23  H   UNL     1       5.178   0.543  20.048  0.00  0.00    +0.000 HD
ENDBRANCH  21  22
ENDBRANCH  13  21
ENDBRANCH   1  19
TORSDOF 4
ENDMDL
MODEL 2
REMARK VINA RESULT:      -8.1      5.091      7.078
REMARK  Name = 
REMARK  4 active torsions:
REMARK  status: ('A' for Active; 'I' for Inactive)
REMARK    1  A    between atoms: C_2  and  O_3
REMARK    2  A    between atoms: C_2  and  C_4
REMARK    3  A    between atoms: C_10  and  C_11
REMARK    4  A    between atoms: N_13  and  C_14
REMARK                            x       y       z     vdW  Elec       q    Type
REMARK                         _______ _______ _______ _____ _____    ______ ____
ROOT
ATOM      1  C   UNL     1       3.154   6.048  17.921  0.00  0.00    +0.000 C 
ATOM      2  O   UNL     1       2.115   5.394  17.911  0.00  0.00    +0.000 OA
ATOM      3  N   UNL     1       3.251   7.392  18.233  0.00  0.00    +0.000 N 
ATOM      4  H   UNL     1       4.131   7.852  17.997  0.00  0.00    +0.000 HD
ENDROOT
BRANCH   3   5
ATOM      5  C   UNL     1       2.186   8.226  18.647  0.00  0.00    +0.000 A 
ATOM      6  C   UNL     1       1.513   9.093  17.776  0.00  0.00    +0.000 A 
ATOM      7  C   UNL     1       0.502   9.938  18.244  0.00  0.00    +0.000 A 
ATOM      8  C   UNL     1       0.153   9.912  19.586  0.00  0.00    +0.000 A 
ATOM      9  F   UNL     1      -0.804  10.744  20.019  0.00  0.00    +0.000 F 
ATOM     10  C   UNL     1       0.789   9.034  20.460  0.00  0.00    +0.000 A 
ATOM     11 CL   UNL     1       0.360   9.000  22.127  0.00  0.00    +0.000 Cl
ATOM     12  C   UNL     1       1.794   8.180  19.991  0.00  0.00    +0.000 A 
ENDBRANCH   3   5
BRANCH   1  19
ATOM     13  C   UNL     1       5.682   5.979  18.258  0.00  0.00    +0.000 C 
ATOM     14  C   UNL     1       6.547   6.385  17.060  0.00  0.00    +0.000 C 
ATOM     15  C   UNL     1       7.132   5.208  16.280  0.00  0.00    +0.000 C 
ATOM     16  C   UNL     1       5.887   4.591  15.643  0.00  0.00    +0.000 C 
ATOM     17  C   UNL     1       4.791   5.562  16.077  0.00  0.00    +0.000 C 
ATOM     18  O   UNL     1       5.517   6.825  16.134  0.00  0.00    +0.000 OA
ATOM     19  C   UNL     1       4.459   5.360  17.555  0.00  0.00    +0.000 C 
BRANCH  13  21
ATOM     20  O   UNL     1       7.290   5.330  19.945  0.00  0.00    +0.000 OA
ATOM     21  C   UNL     1       6.392   5.020  19.176  0.00  0.00    +0.000 C 
BRANCH  21  22
ATOM     22  O   UNL     1       5.913   3.760  19.111  0.00  0.00    +0.000 OA
ATOM     23  H   UNL     1       6.447   3.079  19.565  0.00  0.00    +0.000 HD
ENDBRANCH  21  22
ENDBRANCH  13  21
ENDBRANCH   1  19
TORSDOF 4
ENDMDL
MODEL 3
REMARK VINA RESULT:      -7.9      1.354      1.993
REMARK  Name = 
REMARK  4 active torsions:
REMARK  status: ('A' for Active; 'I' for Inactive)
REMARK    1  A    between atoms: C_2  and  O_3
REMARK    2  A    between atoms: C_2  and  C_4
REMARK    3  A    between atoms: C_10  and  C_11
REMARK    4  A    between atoms: N_13  and  C_14
REMARK                            x       y       z     vdW  Elec       q    Type
REMARK                         _______ _______ _______ _____ _____    ______ ____
ROOT
ATOM      1  C   UNL     1       4.751   3.945  18.248  0.00  0.00    +0.000 C 
ATOM      2  O   UNL     1       5.877   3.904  18.737  0.00  0.00    +0.000 OA
ATOM      3  N   UNL     1       4.463   4.224  16.924  0.00  0.00    +0.000 N 
ATOM      4  H   UNL     1       3.489   4.433  16.704  0.00  0.00    +0.000 HD
ENDROOT
BRANCH   3   5
ATOM      5  C   UNL     1       5.412   4.452  15.900  0.00  0.00    +0.000 A 
ATOM      6  C   UNL     1       6.475   5.355  16.032  0.00  0.00    +0.000 A 
ATOM      7  C   UNL     1       7.355   5.586  14.971  0.00  0.00    +0.000 A 
ATOM      8  C   UNL     1       7.181   4.909  13.774  0.00  0.00    +0.000 A 
ATOM      9  F   UNL     1       8.023   5.160  12.762  0.00  0.00    +0.000 F 
ATOM     10  C   UNL     1       6.149   3.985  13.635  0.00  0.00    +0.000 A 
ATOM     11 CL   UNL     1       5.927   3.143  12.149  0.00  0.00    +0.000 Cl
ATOM     12  C   UNL     1       5.273   3.743  14.699  0.00  0.00    +0.000 A 
ENDBRANCH   3   5
BRANCH   1  19
ATOM     13  C   UNL     1       2.226   3.602  18.362  0.00  0.00    +0.000 C 
ATOM     14  C   UNL     1       1.410   4.713  19.031  0.00  0.00    +0.000 C 
ATOM     15  C   UNL     1       1.003   4.413  20.473  0.00  0.00    +0.000 C 
ATOM     16  C   UNL     1       2.345   4.451  21.203  0.00  0.00    +0.000 C 
ATOM     17  C   UNL     1       3.305   4.860  20.087  0.00  0.00    +0.000 C 
ATOM     18  O   UNL     1       2.453   5.701  19.256  0.00  0.00    +0.000 OA
ATOM     19  C   UNL     1       3.551   3.684  19.143  0.00  0.00    +0.000 C 
BRANCH  13  21
ATOM     20  O   UNL     1       0.348   2.077  18.382  0.00  0.00    +0.000 OA
ATOM     21  C   UNL     1       1.553   2.259  18.466  0.00  0.00    +0.000 C 
BRANCH  21  22
ATOM     22  O   UNL     1       2.420   1.235  18.621  0.00  0.00    +0.000 OA
ATOM     23  H   UNL     1       2.920   1.225  19.460  0.00  0.00    +0.000 HD
ENDBRANCH  21  22
ENDBRANCH  13  21
ENDBRANCH   1  19
TORSDOF 4
ENDMDL
MODEL 4
REMARK VINA RESULT:      -7.7      1.321      1.609
REMARK  Name = 
REMARK  4 active torsions:
REMARK  status: ('A' for Active; 'I' for Inactive)
REMARK    1  A    between atoms: C_2  and  O_3
REMARK    2  A    between atoms: C_2  and  C_4
REMARK    3  A    between atoms: C_10  and  C_11
REMARK    4  A    between atoms: N_13  and  C_14
REMARK                            x       y       z     vdW  Elec       q    Type
REMARK                         _______ _______ _______ _____ _____    ______ ____
ROOT
ATOM      1  C   UNL     1       4.651   5.472  16.847  0.00  0.00    +0.000 C 
ATOM      2  O   UNL     1       4.667   6.609  16.381  0.00  0.00    +0.000 OA
ATOM      3  N   UNL     1       5.152   4.344  16.223  0.00  0.00    +0.000 N 
ATOM      4  H   UNL     1       4.884   3.445  16.624  0.00  0.00    +0.000 HD
ENDROOT
BRANCH   3   5
ATOM      5  C   UNL     1       5.816   4.313  14.974  0.00  0.00    +0.000 A 
ATOM      6  C   UNL     1       7.019   4.988  14.733  0.00  0.00    +0.000 A 
ATOM      7  C   UNL     1       7.609   4.972  13.465  0.00  0.00    +0.000 A 
ATOM      8  C   UNL     1       7.000   4.273  12.433  0.00  0.00    +0.000 A 
ATOM      9  F   UNL     1       7.570   4.287  11.221  0.00  0.00    +0.000 F 
ATOM     10  C   UNL     1       5.820   3.570  12.663  0.00  0.00    +0.000 A 
ATOM     11 CL   UNL     1       5.060   2.703  11.384  0.00  0.00    +0.000 Cl
ATOM     12  C   UNL     1       5.234   3.576  13.934  0.00  0.00    +0.000 A 
ENDBRANCH   3   5
BRANCH   1  19
ATOM     13  C   UNL     1       3.450   3.831  18.386  0.00  0.00    +0.000 C 
ATOM     14  C   UNL     1       1.984   4.137  18.709  0.00  0.00    +0.000 C 
ATOM     15  C   UNL     1       1.764   4.788  20.075  0.00  0.00    +0.000 C 
ATOM     16  C   UNL     1       2.395   6.166  19.881  0.00  0.00    +0.000 C 
ATOM     17  C   UNL     1       2.796   6.131  18.407  0.00  0.00    +0.000 C 
ATOM     18  O   UNL     1       1.760   5.279  17.838  0.00  0.00    +0.000 OA
ATOM     19  C   UNL     1       4.027   5.248  18.215  0.00  0.00    +0.000 C 
BRANCH  13  21
ATOM     20  O   UNL     1       3.561   2.216  20.185  0.00  0.00    +0.000 OA
ATOM     21  C   UNL     1       4.122   3.040  19.477  0.00  0.00    +0.000 C 
BRANCH  21  22
ATOM     22  O   UNL     1       5.444   3.289  19.585  0.00  0.00    +0.000 OA
ATOM     23  H   UNL     1       5.720   4.206  19.392  0.00  0.00    +0.000 HD
ENDBRANCH  21  22
ENDBRANCH  13  21
ENDBRANCH   1  19
TORSDOF 4
ENDMDL
MODEL 5
REMARK VINA RESULT:      -7.7      5.005      6.812
REMARK  Name = 
REMARK  4 active torsions:
REMARK  status: ('A' for Active; 'I' for Inactive)
REMARK    1  A    between atoms: C_2  and  O_3
REMARK    2  A    between atoms: C_2  and  C_4
REMARK    3  A    between atoms: C_10  and  C_11
REMARK    4  A    between atoms: N_13  and  C_14
REMARK                            x       y       z     vdW  Elec       q    Type
REMARK                         _______ _______ _______ _____ _____    ______ ____
ROOT
ATOM      1  C   UNL     1       2.753   5.832  17.979  0.00  0.00    +0.000 C 
ATOM      2  O   UNL     1       1.628   5.356  17.844  0.00  0.00    +0.000 OA
ATOM      3  N   UNL     1       3.031   7.119  18.403  0.00  0.00    +0.000 N 
ATOM      4  H   UNL     1       3.988   7.445  18.267  0.00  0.00    +0.000 HD
ENDROOT
BRANCH   3   5
ATOM      5  C   UNL     1       2.078   8.083  18.807  0.00  0.00    +0.000 A 
ATOM      6  C   UNL     1       1.525   9.023  17.927  0.00  0.00    +0.000 A 
ATOM      7  C   UNL     1       0.627   9.992  18.385  0.00  0.00    +0.000 A 
ATOM      8  C   UNL     1       0.272  10.020  19.725  0.00  0.00    +0.000 A 
ATOM      9  F   UNL     1      -0.574  10.969  20.148  0.00  0.00    +0.000 F 
ATOM     10  C   UNL     1       0.788   9.074  20.607  0.00  0.00    +0.000 A 
ATOM     11 CL   UNL     1       0.352   9.108  22.273  0.00  0.00    +0.000 Cl
ATOM     12  C   UNL     1       1.678   8.097  20.149  0.00  0.00    +0.000 A 
ENDBRANCH   3   5
BRANCH   1  19
ATOM     13  C   UNL     1       4.733   4.519  18.905  0.00  0.00    +0.000 C 
ATOM     14  C   UNL     1       6.128   5.085  18.622  0.00  0.00    +0.000 C 
ATOM     15  C   UNL     1       6.864   4.397  17.472  0.00  0.00    +0.000 C 
ATOM     16  C   UNL     1       6.038   4.823  16.259  0.00  0.00    +0.000 C 
ATOM     17  C   UNL     1       5.012   5.766  16.883  0.00  0.00    +0.000 C 
ATOM     18  O   UNL     1       5.772   6.343  17.985  0.00  0.00    +0.000 OA
ATOM     19  C   UNL     1       3.960   4.969  17.652  0.00  0.00    +0.000 C 
BRANCH  13  21
ATOM     20  O   UNL     1       5.168   2.454  20.089  0.00  0.00    +0.000 OA
ATOM     21  C   UNL     1       4.751   3.025  19.093  0.00  0.00    +0.000 C 
BRANCH  21  22
ATOM     22  O   UNL     1       4.213   2.347  18.056  0.00  0.00    +0.000 OA
ATOM     23  H   UNL     1       3.315   1.993  18.201  0.00  0.00    +0.000 HD
ENDBRANCH  21  22
ENDBRANCH  13  21
ENDBRANCH   1  19
TORSDOF 4
ENDMDL
MODEL 6
REMARK VINA RESULT:      -7.6      1.151      1.254
REMARK  Name = 
REMARK  4 active torsions:
REMARK  status: ('A' for Active; 'I' for Inactive)
REMARK    1  A    between atoms: C_2  and  O_3
REMARK    2  A    between atoms: C_2  and  C_4
REMARK    3  A    between atoms: C_10  and  C_11
REMARK    4  A    between atoms: N_13  and  C_14
REMARK                            x       y       z     vdW  Elec       q    Type
REMARK                         _______ _______ _______ _____ _____    ______ ____
ROOT
ATOM      1  C   UNL     1       5.174   4.435  18.460  0.00  0.00    +0.000 C 
ATOM      2  O   UNL     1       6.343   4.260  18.795  0.00  0.00    +0.000 OA
ATOM      3  N   UNL     1       4.738   4.671  17.168  0.00  0.00    +0.000 N 
ATOM      4  H   UNL     1       3.779   5.006  17.066  0.00  0.00    +0.000 HD
ENDROOT
BRANCH   3   5
ATOM      5  C   UNL     1       5.550   4.695  16.010  0.00  0.00    +0.000 A 
ATOM      6  C   UNL     1       6.779   5.366  15.955  0.00  0.00    +0.000 A 
ATOM      7  C   UNL     1       7.520   5.407  14.770  0.00  0.00    +0.000 A 
ATOM      8  C   UNL     1       7.039   4.769  13.637  0.00  0.00    +0.000 A 
ATOM      9  F   UNL     1       7.755   4.838  12.506  0.00  0.00    +0.000 F 
ATOM     10  C   UNL     1       5.836   4.071  13.682  0.00  0.00    +0.000 A 
ATOM     11 CL   UNL     1       5.233   3.280  12.276  0.00  0.00    +0.000 Cl
ATOM     12  C   UNL     1       5.097   4.019  14.870  0.00  0.00    +0.000 A 
ENDBRANCH   3   5
BRANCH   1  19
ATOM     13  C   UNL     1       3.433   3.023  19.677  0.00  0.00    +0.000 C 
ATOM     14  C   UNL     1       1.963   3.355  19.402  0.00  0.00    +0.000 C 
ATOM     15  C   UNL     1       1.295   4.198  20.489  0.00  0.00    +0.000 C 
ATOM     16  C   UNL     1       2.010   5.540  20.343  0.00  0.00    +0.000 C 
ATOM     17  C   UNL     1       2.911   5.294  19.134  0.00  0.00    +0.000 C 
ATOM     18  O   UNL     1       2.114   4.354  18.356  0.00  0.00    +0.000 OA
ATOM     19  C   UNL     1       4.092   4.407  19.527  0.00  0.00    +0.000 C 
BRANCH  13  21
ATOM     20  O   UNL     1       2.797   2.399  21.926  0.00  0.00    +0.000 OA
ATOM     21  C   UNL     1       3.635   2.410  21.037  0.00  0.00    +0.000 C 
BRANCH  21  22
ATOM     22  O   UNL     1       4.838   1.815  21.185  0.00  0.00    +0.000 OA
ATOM     23  H   UNL     1       5.342   1.667  20.362  0.00  0.00    +0.000 HD
ENDBRANCH  21  22
ENDBRANCH  13  21
ENDBRANCH   1  19
TORSDOF 4
ENDMDL
MODEL 7
REMARK VINA RESULT:      -7.5      1.405      1.988
REMARK  Name = 
REMARK  4 active torsions:
REMARK  status: ('A' for Active; 'I' for Inactive)
REMARK    1  A    between atoms: C_2  and  O_3
REMARK    2  A    between atoms: C_2  and  C_4
REMARK    3  A    between atoms: C_10  and  C_11
REMARK    4  A    between atoms: N_13  and  C_14
REMARK                            x       y       z     vdW  Elec       q    Type
REMARK                         _______ _______ _______ _____ _____    ______ ____
ROOT
ATOM      1  C   UNL     1       5.521   4.356  17.343  0.00  0.00    +0.000 C 
ATOM      2  O   UNL     1       6.720   4.339  17.609  0.00  0.00    +0.000 OA
ATOM      3  N   UNL     1       4.985   4.387  16.068  0.00  0.00    +0.000 N 
ATOM      4  H   UNL     1       3.992   4.611  15.997  0.00  0.00    +0.000 HD
ENDROOT
BRANCH   3   5
ATOM      5  C   UNL     1       5.719   4.349  14.859  0.00  0.00    +0.000 A 
ATOM      6  C   UNL     1       6.849   5.143  14.627  0.00  0.00    +0.000 A 
ATOM      7  C   UNL     1       7.508   5.110  13.395  0.00  0.00    +0.000 A 
ATOM      8  C   UNL     1       7.045   4.274  12.390  0.00  0.00    +0.000 A 
ATOM      9  F   UNL     1       7.678   4.271  11.210  0.00  0.00    +0.000 F 
ATOM     10  C   UNL     1       5.942   3.453  12.614  0.00  0.00    +0.000 A 
ATOM     11 CL   UNL     1       5.361   2.416  11.369  0.00  0.00    +0.000 Cl
ATOM     12  C   UNL     1       5.286   3.477  13.851  0.00  0.00    +0.000 A 
ENDBRANCH   3   5
BRANCH   1  19
ATOM     13  C   UNL     1       3.302   3.445  18.209  0.00  0.00    +0.000 C 
ATOM     14  C   UNL     1       2.144   4.444  18.320  0.00  0.00    +0.000 C 
ATOM     15  C   UNL     1       1.899   4.966  19.735  0.00  0.00    +0.000 C 
ATOM     16  C   UNL     1       3.144   5.814  19.988  0.00  0.00    +0.000 C 
ATOM     17  C   UNL     1       3.869   5.728  18.646  0.00  0.00    +0.000 C 
ATOM     18  O   UNL     1       2.755   5.616  17.714  0.00  0.00    +0.000 OA
ATOM     19  C   UNL     1       4.516   4.353  18.482  0.00  0.00    +0.000 C 
BRANCH  13  21
ATOM     20  O   UNL     1       3.899   2.139  20.156  0.00  0.00    +0.000 OA
ATOM     21  C   UNL     1       3.172   2.310  19.188  0.00  0.00    +0.000 C 
BRANCH  21  22
ATOM     22  O   UNL     1       2.128   1.493  18.929  0.00  0.00    +0.000 OA
ATOM     23  H   UNL     1       2.332   0.538  18.905  0.00  0.00    +0.000 HD
ENDBRANCH  21  22
ENDBRANCH  13  21
ENDBRANCH   1  19
TORSDOF 4
ENDMDL
MODEL 8
REMARK VINA RESULT:      -7.5      1.307      1.823
REMARK  Name = 
REMARK  4 active torsions:
REMARK  status: ('A' for Active; 'I' for Inactive)
REMARK    1  A    between atoms: C_2  and  O_3
REMARK    2  A    between atoms: C_2  and  C_4
REMARK    3  A    between atoms: C_10  and  C_11
REMARK    4  A    between atoms: N_13  and  C_14
REMARK                            x       y       z     vdW  Elec       q    Type
REMARK                         _______ _______ _______ _____ _____    ______ ____
ROOT
ATOM      1  C   UNL     1       3.545   4.899  17.447  0.00  0.00    +0.000 C 
ATOM      2  O   UNL     1       3.669   6.120  17.393  0.00  0.00    +0.000 OA
ATOM      3  N   UNL     1       4.284   3.987  16.715  0.00  0.00    +0.000 N 
ATOM      4  H   UNL     1       3.935   3.028  16.699  0.00  0.00    +0.000 HD
ENDROOT
BRANCH   3   5
ATOM      5  C   UNL     1       5.339   4.298  15.826  0.00  0.00    +0.000 A 
ATOM      6  C   UNL     1       6.411   5.129  16.176  0.00  0.00    +0.000 A 
ATOM      7  C   UNL     1       7.402   5.451  15.244  0.00  0.00    +0.000 A 
ATOM      8  C   UNL     1       7.330   4.936  13.959  0.00  0.00    +0.000 A 
ATOM      9  F   UNL     1       8.279   5.272  13.075  0.00  0.00    +0.000 F 
ATOM     10  C   UNL     1       6.289   4.082  13.603  0.00  0.00    +0.000 A 
ATOM     11 CL   UNL     1       6.194   3.442  12.007  0.00  0.00    +0.000 Cl
ATOM     12  C   UNL     1       5.301   3.750  14.537  0.00  0.00    +0.000 A 
ENDBRANCH   3   5
BRANCH   1  19
ATOM     13  C   UNL     1       3.020   4.093  19.809  0.00  0.00    +0.000 C 
ATOM     14  C   UNL     1       2.802   2.587  19.990  0.00  0.00    +0.000 C 
ATOM     15  C   UNL     1       1.333   2.170  20.069  0.00  0.00    +0.000 C 
ATOM     16  C   UNL     1       0.841   2.447  18.650  0.00  0.00    +0.000 C 
ATOM     17  C   UNL     1       2.122   2.890  17.946  0.00  0.00    +0.000 C 
ATOM     18  O   UNL     1       3.133   2.116  18.655  0.00  0.00    +0.000 OA
ATOM     19  C   UNL     1       2.498   4.307  18.376  0.00  0.00    +0.000 C 
BRANCH  13  21
ATOM     20  O   UNL     1       1.502   5.809  20.586  0.00  0.00    +0.000 OA
ATOM     21  C   UNL     1       2.283   4.904  20.841  0.00  0.00    +0.000 C 
BRANCH  21  22
ATOM     22  O   UNL     1       2.528   4.511  22.109  0.00  0.00    +0.000 OA
ATOM     23  H   UNL     1       3.070   5.121  22.645  0.00  0.00    +0.000 HD
ENDBRANCH  21  22
ENDBRANCH  13  21
ENDBRANCH   1  19
TORSDOF 4
ENDMDL
MODEL 9
REMARK VINA RESULT:      -7.4      5.097      6.253
REMARK  Name = 
REMARK  4 active torsions:
REMARK  status: ('A' for Active; 'I' for Inactive)
REMARK    1  A    between atoms: C_2  and  O_3
REMARK    2  A    between atoms: C_2  and  C_4
REMARK    3  A    between atoms: C_10  and  C_11
REMARK    4  A    between atoms: N_13  and  C_14
REMARK                            x       y       z     vdW  Elec       q    Type
REMARK                         _______ _______ _______ _____ _____    ______ ____
ROOT
ATOM      1  C   UNL     1       2.971   6.099  19.378  0.00  0.00    +0.000 C 
ATOM      2  O   UNL     1       3.796   6.410  18.522  0.00  0.00    +0.000 OA
ATOM      3  N   UNL     1       1.989   6.932  19.882  0.00  0.00    +0.000 N 
ATOM      4  H   UNL     1       1.515   6.616  20.729  0.00  0.00    +0.000 HD
ENDROOT
BRANCH   3   5
ATOM      5  C   UNL     1       1.732   8.259  19.464  0.00  0.00    +0.000 A 
ATOM      6  C   UNL     1       2.108   8.749  18.206  0.00  0.00    +0.000 A 
ATOM      7  C   UNL     1       1.881  10.084  17.859  0.00  0.00    +0.000 A 
ATOM      8  C   UNL     1       1.268  10.935  18.767  0.00  0.00    +0.000 A 
ATOM      9  F   UNL     1       1.077  12.215  18.423  0.00  0.00    +0.000 F 
ATOM     10  C   UNL     1       0.858  10.457  20.009  0.00  0.00    +0.000 A 
ATOM     11 CL   UNL     1       0.099  11.510  21.141  0.00  0.00    +0.000 Cl
ATOM     12  C   UNL     1       1.075   9.118  20.355  0.00  0.00    +0.000 A 
ENDBRANCH   3   5
BRANCH   1  19
ATOM     13  C   UNL     1       2.649   3.609  18.927  0.00  0.00    +0.000 C 
ATOM     14  C   UNL     1       1.446   2.938  19.598  0.00  0.00    +0.000 C 
ATOM     15  C   UNL     1       1.792   2.145  20.858  0.00  0.00    +0.000 C 
ATOM     16  C   UNL     1       2.192   3.249  21.836  0.00  0.00    +0.000 C 
ATOM     17  C   UNL     1       1.925   4.512  21.020  0.00  0.00    +0.000 C 
ATOM     18  O   UNL     1       0.800   4.098  20.191  0.00  0.00    +0.000 OA
ATOM     19  C   UNL     1       3.008   4.695  19.958  0.00  0.00    +0.000 C 
BRANCH  13  21
ATOM     20  O   UNL     1       3.686   1.659  17.940  0.00  0.00    +0.000 OA
ATOM     21  C   UNL     1       3.770   2.640  18.664  0.00  0.00    +0.000 C 
BRANCH  21  22
ATOM     22  O   UNL     1       4.925   2.975  19.278  0.00  0.00    +0.000 OA
ATOM     23  H   UNL     1       5.126   3.931  19.311  0.00  0.00    +0.000 HD
ENDBRANCH  21  22
ENDBRANCH  13  21
ENDBRANCH   1  19
TORSDOF 4
ENDMDL
