MODEL 1
REMARK VINA RESULT:      -5.7      0.000      0.000
REMARK  Name = 
REMARK  1 active torsions:
REMARK  status: ('A' for Active; 'I' for Inactive)
REMARK    1  A    between atoms: N_2  and  C_4
REMARK                            x       y       z     vdW  Elec       q    Type
REMARK                         _______ _______ _______ _____ _____    ______ ____
ROOT
ATOM      1  C   UNL     1       2.858   5.631  18.407  0.00  0.00    +0.000 A 
ATOM      2  C   UNL     1       1.830   4.834  17.869  0.00  0.00    +0.000 A 
ATOM      3  C   UNL     1       2.055   3.482  17.609  0.00  0.00    +0.000 A 
ATOM      4  C   UNL     1       3.295   2.892  17.878  0.00  0.00    +0.000 A 
ATOM      5  C   UNL     1       4.300   3.708  18.412  0.00  0.00    +0.000 A 
ATOM      6  N   UNL     1       5.591   3.427  18.778  0.00  0.00    +0.000 N 
ATOM      7  N   UNL     1       6.266   4.485  19.252  0.00  0.00    +0.000 NA
ATOM      8  C   UNL     1       5.376   5.478  19.195  0.00  0.00    +0.000 A 
ATOM      9  C   UNL     1       4.120   5.066  18.683  0.00  0.00    +0.000 A 
ATOM     10  H   UNL     1       6.070   2.535  18.729  0.00  0.00    +0.000 HD
ENDROOT
BRANCH   1  12
ATOM     11  O   UNL     1       2.244   7.344  19.830  0.00  0.00    +0.000 OA
ATOM     12  N   UNL     1       2.616   7.046  18.686  0.00  0.00    +0.000 N 
ATOM     13  O   UNL     1       2.791   7.868  17.778  0.00  0.00    +0.000 OA
ENDBRANCH   1  12
TORSDOF 1
ENDMDL
MODEL 2
REMARK VINA RESULT:      -5.6      3.196      4.186
REMARK  Name = 
REMARK  1 active torsions:
REMARK  status: ('A' for Active; 'I' for Inactive)
REMARK    1  A    between atoms: N_2  and  C_4
REMARK                            x       y       z     vdW  Elec       q    Type
REMARK                         _______ _______ _______ _____ _____    ______ ____
ROOT
ATOM      1  C   UNL     1       5.035   4.434  17.789  0.00  0.00    +0.000 A 
ATOM      2  C   UNL     1       5.494   4.776  19.075  0.00  0.00    +0.000 A 
ATOM      3  C   UNL     1       6.690   5.479  19.227  0.00  0.00    +0.000 A 
ATOM      4  C   UNL     1       7.450   5.860  18.117  0.00  0.00    +0.000 A 
ATOM      5  C   UNL     1       6.969   5.506  16.850  0.00  0.00    +0.000 A 
ATOM      6  N   UNL     1       7.476   5.736  15.596  0.00  0.00    +0.000 N 
ATOM      7  N   UNL     1       6.727   5.231  14.604  0.00  0.00    +0.000 NA
ATOM      8  C   UNL     1       5.701   4.664  15.243  0.00  0.00    +0.000 A 
ATOM      9  C   UNL     1       5.782   4.799  16.650  0.00  0.00    +0.000 A 
ATOM     10  H   UNL     1       8.327   6.229  15.351  0.00  0.00    +0.000 HD
ENDROOT
BRANCH   1  12
ATOM     11  O   UNL     1       3.828   2.467  17.678  0.00  0.00    +0.000 OA
ATOM     12  N   UNL     1       3.777   3.704  17.633  0.00  0.00    +0.000 N 
ATOM     13  O   UNL     1       2.734   4.349  17.466  0.00  0.00    +0.000 OA
ENDBRANCH   1  12
TORSDOF 1
ENDMDL
MODEL 3
REMARK VINA RESULT:      -5.6      2.658      3.222
REMARK  Name = 
REMARK  1 active torsions:
REMARK  status: ('A' for Active; 'I' for Inactive)
REMARK    1  A    between atoms: N_2  and  C_4
REMARK                            x       y       z     vdW  Elec       q    Type
REMARK                         _______ _______ _______ _____ _____    ______ ____
ROOT
ATOM      1  C   UNL     1       4.652   4.472  17.059  0.00  0.00    +0.000 A 
ATOM      2  C   UNL     1       5.001   4.197  15.724  0.00  0.00    +0.000 A 
ATOM      3  C   UNL     1       6.339   4.220  15.331  0.00  0.00    +0.000 A 
ATOM      4  C   UNL     1       7.356   4.510  16.247  0.00  0.00    +0.000 A 
ATOM      5  C   UNL     1       6.980   4.781  17.569  0.00  0.00    +0.000 A 
ATOM      6  N   UNL     1       7.730   5.089  18.675  0.00  0.00    +0.000 N 
ATOM      7  N   UNL     1       7.005   5.292  19.786  0.00  0.00    +0.000 NA
ATOM      8  C   UNL     1       5.747   5.101  19.380  0.00  0.00    +0.000 A 
ATOM      9  C   UNL     1       5.654   4.774  18.005  0.00  0.00    +0.000 A 
ATOM     10  H   UNL     1       8.737   5.176  18.738  0.00  0.00    +0.000 HD
ENDROOT
BRANCH   1  12
ATOM     11  O   UNL     1       2.676   3.339  17.449  0.00  0.00    +0.000 OA
ATOM     12  N   UNL     1       3.248   4.438  17.469  0.00  0.00    +0.000 N 
ATOM     13  O   UNL     1       2.705   5.496  17.812  0.00  0.00    +0.000 OA
ENDBRANCH   1  12
TORSDOF 1
ENDMDL
MODEL 4
REMARK VINA RESULT:      -5.6      3.196      3.648
REMARK  Name = 
REMARK  1 active torsions:
REMARK  status: ('A' for Active; 'I' for Inactive)
REMARK    1  A    between atoms: N_2  and  C_4
REMARK                            x       y       z     vdW  Elec       q    Type
REMARK                         _______ _______ _______ _____ _____    ______ ____
ROOT
ATOM      1  C   UNL     1       3.402   4.102  19.085  0.00  0.00    +0.000 A 
ATOM      2  C   UNL     1       2.841   4.317  17.813  0.00  0.00    +0.000 A 
ATOM      3  C   UNL     1       1.508   3.988  17.570  0.00  0.00    +0.000 A 
ATOM      4  C   UNL     1       0.703   3.445  18.578  0.00  0.00    +0.000 A 
ATOM      5  C   UNL     1       1.287   3.241  19.835  0.00  0.00    +0.000 A 
ATOM      6  N   UNL     1       0.767   2.740  21.000  0.00  0.00    +0.000 N 
ATOM      7  N   UNL     1       1.648   2.688  22.012  0.00  0.00    +0.000 NA
ATOM      8  C   UNL     1       2.768   3.180  21.479  0.00  0.00    +0.000 A 
ATOM      9  C   UNL     1       2.618   3.551  20.120  0.00  0.00    +0.000 A 
ATOM     10  H   UNL     1      -0.178   2.416  21.170  0.00  0.00    +0.000 HD
ENDROOT
BRANCH   1  12
ATOM     11  O   UNL     1       5.618   3.529  19.401  0.00  0.00    +0.000 OA
ATOM     12  N   UNL     1       4.799   4.456  19.338  0.00  0.00    +0.000 N 
ATOM     13  O   UNL     1       5.092   5.651  19.474  0.00  0.00    +0.000 OA
ENDBRANCH   1  12
TORSDOF 1
ENDMDL
MODEL 5
REMARK VINA RESULT:      -5.6      1.639      1.639
REMARK  Name = 
REMARK  1 active torsions:
REMARK  status: ('A' for Active; 'I' for Inactive)
REMARK    1  A    between atoms: N_2  and  C_4
REMARK                            x       y       z     vdW  Elec       q    Type
REMARK                         _______ _______ _______ _____ _____    ______ ____
ROOT
ATOM      1  C   UNL     1       2.392   5.454  19.860  0.00  0.00    +0.000 A 
ATOM      2  C   UNL     1       1.299   4.702  20.332  0.00  0.00    +0.000 A 
ATOM      3  C   UNL     1       1.434   3.331  20.550  0.00  0.00    +0.000 A 
ATOM      4  C   UNL     1       2.648   2.678  20.311  0.00  0.00    +0.000 A 
ATOM      5  C   UNL     1       3.718   3.450  19.841  0.00  0.00    +0.000 A 
ATOM      6  N   UNL     1       5.007   3.106  19.525  0.00  0.00    +0.000 N 
ATOM      7  N   UNL     1       5.755   4.133  19.094  0.00  0.00    +0.000 NA
ATOM      8  C   UNL     1       4.919   5.173  19.142  0.00  0.00    +0.000 A 
ATOM      9  C   UNL     1       3.627   4.823  19.604  0.00  0.00    +0.000 A 
ATOM     10  H   UNL     1       5.438   2.190  19.581  0.00  0.00    +0.000 HD
ENDROOT
BRANCH   1  12
ATOM     11  O   UNL     1       1.902   7.584  20.609  0.00  0.00    +0.000 OA
ATOM     12  N   UNL     1       2.249   6.892  19.641  0.00  0.00    +0.000 N 
ATOM     13  O   UNL     1       2.478   7.346  18.512  0.00  0.00    +0.000 OA
ENDBRANCH   1  12
TORSDOF 1
ENDMDL
MODEL 6
REMARK VINA RESULT:      -5.6      3.042      3.957
REMARK  Name = 
REMARK  1 active torsions:
REMARK  status: ('A' for Active; 'I' for Inactive)
REMARK    1  A    between atoms: N_2  and  C_4
REMARK                            x       y       z     vdW  Elec       q    Type
REMARK                         _______ _______ _______ _____ _____    ______ ____
ROOT
ATOM      1  C   UNL     1       6.680   5.237  18.067  0.00  0.00    +0.000 A 
ATOM      2  C   UNL     1       7.233   4.728  16.877  0.00  0.00    +0.000 A 
ATOM      3  C   UNL     1       6.408   4.144  15.915  0.00  0.00    +0.000 A 
ATOM      4  C   UNL     1       5.025   4.055  16.107  0.00  0.00    +0.000 A 
ATOM      5  C   UNL     1       4.502   4.569  17.301  0.00  0.00    +0.000 A 
ATOM      6  N   UNL     1       3.214   4.631  17.768  0.00  0.00    +0.000 N 
ATOM      7  N   UNL     1       3.101   5.198  18.979  0.00  0.00    +0.000 NA
ATOM      8  C   UNL     1       4.358   5.516  19.297  0.00  0.00    +0.000 A 
ATOM      9  C   UNL     1       5.290   5.157  18.292  0.00  0.00    +0.000 A 
ATOM     10  H   UNL     1       2.371   4.306  17.310  0.00  0.00    +0.000 HD
ENDROOT
BRANCH   1  12
ATOM     11  O   UNL     1       7.616   5.307  20.178  0.00  0.00    +0.000 OA
ATOM     12  N   UNL     1       7.547   5.856  19.069  0.00  0.00    +0.000 N 
ATOM     13  O   UNL     1       8.163   6.885  18.766  0.00  0.00    +0.000 OA
ENDBRANCH   1  12
TORSDOF 1
ENDMDL
MODEL 7
REMARK VINA RESULT:      -5.5      2.501      3.162
REMARK  Name = 
REMARK  1 active torsions:
REMARK  status: ('A' for Active; 'I' for Inactive)
REMARK    1  A    between atoms: N_2  and  C_4
REMARK                            x       y       z     vdW  Elec       q    Type
REMARK                         _______ _______ _______ _____ _____    ______ ____
ROOT
ATOM      1  C   UNL     1       3.409   4.879  19.372  0.00  0.00    +0.000 A 
ATOM      2  C   UNL     1       2.461   5.490  20.214  0.00  0.00    +0.000 A 
ATOM      3  C   UNL     1       1.314   4.795  20.599  0.00  0.00    +0.000 A 
ATOM      4  C   UNL     1       1.085   3.485  20.166  0.00  0.00    +0.000 A 
ATOM      5  C   UNL     1       2.044   2.901  19.328  0.00  0.00    +0.000 A 
ATOM      6  N   UNL     1       2.103   1.657  18.754  0.00  0.00    +0.000 N 
ATOM      7  N   UNL     1       3.192   1.458  17.995  0.00  0.00    +0.000 NA
ATOM      8  C   UNL     1       3.858   2.611  18.093  0.00  0.00    +0.000 A 
ATOM      9  C   UNL     1       3.202   3.561  18.914  0.00  0.00    +0.000 A 
ATOM     10  H   UNL     1       1.433   0.901  18.839  0.00  0.00    +0.000 HD
ENDROOT
BRANCH   1  12
ATOM     11  O   UNL     1       4.529   6.353  17.991  0.00  0.00    +0.000 OA
ATOM     12  N   UNL     1       4.613   5.608  18.978  0.00  0.00    +0.000 N 
ATOM     13  O   UNL     1       5.647   5.449  19.640  0.00  0.00    +0.000 OA
ENDBRANCH   1  12
TORSDOF 1
ENDMDL
MODEL 8
REMARK VINA RESULT:      -5.5      3.342      4.032
REMARK  Name = 
REMARK  1 active torsions:
REMARK  status: ('A' for Active; 'I' for Inactive)
REMARK    1  A    between atoms: N_2  and  C_4
REMARK                            x       y       z     vdW  Elec       q    Type
REMARK                         _______ _______ _______ _____ _____    ______ ____
ROOT
ATOM      1  C   UNL     1       5.888   4.473  16.194  0.00  0.00    +0.000 A 
ATOM      2  C   UNL     1       4.515   4.175  16.110  0.00  0.00    +0.000 A 
ATOM      3  C   UNL     1       3.738   4.123  17.267  0.00  0.00    +0.000 A 
ATOM      4  C   UNL     1       4.299   4.367  18.525  0.00  0.00    +0.000 A 
ATOM      5  C   UNL     1       5.667   4.660  18.579  0.00  0.00    +0.000 A 
ATOM      6  N   UNL     1       6.488   4.944  19.641  0.00  0.00    +0.000 N 
ATOM      7  N   UNL     1       7.766   5.169  19.298  0.00  0.00    +0.000 NA
ATOM      8  C   UNL     1       7.763   5.033  17.970  0.00  0.00    +0.000 A 
ATOM      9  C   UNL     1       6.484   4.718  17.448  0.00  0.00    +0.000 A 
ATOM     10  H   UNL     1       6.238   4.998  20.622  0.00  0.00    +0.000 HD
ENDROOT
BRANCH   1  12
ATOM     11  O   UNL     1       6.469   3.692  14.098  0.00  0.00    +0.000 OA
ATOM     12  N   UNL     1       6.698   4.535  14.977  0.00  0.00    +0.000 N 
ATOM     13  O   UNL     1       7.563   5.415  14.885  0.00  0.00    +0.000 OA
ENDBRANCH   1  12
TORSDOF 1
ENDMDL
MODEL 9
REMARK VINA RESULT:      -5.5      2.682      3.176
REMARK  Name = 
REMARK  1 active torsions:
REMARK  status: ('A' for Active; 'I' for Inactive)
REMARK    1  A    between atoms: N_2  and  C_4
REMARK                            x       y       z     vdW  Elec       q    Type
REMARK                         _______ _______ _______ _____ _____    ______ ____
ROOT
ATOM      1  C   UNL     1       1.976   3.748  18.830  0.00  0.00    +0.000 A 
ATOM      2  C   UNL     1       1.879   4.903  18.033  0.00  0.00    +0.000 A 
ATOM      3  C   UNL     1       3.031   5.588  17.648  0.00  0.00    +0.000 A 
ATOM      4  C   UNL     1       4.299   5.144  18.038  0.00  0.00    +0.000 A 
ATOM      5  C   UNL     1       4.367   3.992  18.831  0.00  0.00    +0.000 A 
ATOM      6  N   UNL     1       5.441   3.321  19.358  0.00  0.00    +0.000 N 
ATOM      7  N   UNL     1       5.107   2.243  20.085  0.00  0.00    +0.000 NA
ATOM      8  C   UNL     1       3.774   2.217  20.015  0.00  0.00    +0.000 A 
ATOM      9  C   UNL     1       3.240   3.278  19.244  0.00  0.00    +0.000 A 
ATOM     10  H   UNL     1       6.423   3.547  19.260  0.00  0.00    +0.000 HD
ENDROOT
BRANCH   1  12
ATOM     11  O   UNL     1       0.312   3.255  20.356  0.00  0.00    +0.000 OA
ATOM     12  N   UNL     1       0.766   3.028  19.225  0.00  0.00    +0.000 N 
ATOM     13  O   UNL     1       0.257   2.237  18.420  0.00  0.00    +0.000 OA
ENDBRANCH   1  12
TORSDOF 1
ENDMDL
