MODEL 1
REMARK VINA RESULT:      -7.7      0.000      0.000
REMARK  Name = 
REMARK  7 active torsions:
REMARK  status: ('A' for Active; 'I' for Inactive)
REMARK    1  A    between atoms: C_1  and  O_2
REMARK    2  A    between atoms: O_2  and  C_3
REMARK    3  A    between atoms: C_6  and  C_7
REMARK    4  A    between atoms: N_9  and  C_10
REMARK    5  A    between atoms: C_17  and  C_18
REMARK    6  A    between atoms: C_18  and  N_19
REMARK    7  A    between atoms: N_19  and  C_20
REMARK                            x       y       z     vdW  Elec       q    Type
REMARK                         _______ _______ _______ _____ _____    ______ ____
ROOT
ATOM      1  C   UNL     1       4.053   5.047  17.054  0.00  0.00    +0.000 A 
ATOM      2  N   UNL     1       4.493   4.312  16.018  0.00  0.00    +0.000 NA
ATOM      3  N   UNL     1       5.269   5.144  15.276  0.00  0.00    +0.000 N 
ATOM      4  C   UNL     1       5.277   6.413  15.796  0.00  0.00    +0.000 A 
ATOM      5  C   UNL     1       4.478   6.408  16.919  0.00  0.00    +0.000 A 
ENDROOT
BRANCH   1   9
ATOM      6  C   UNL     1       1.700   3.320  20.224  0.00  0.00    +0.000 A 
ATOM      7  C   UNL     1       1.130   3.631  19.001  0.00  0.00    +0.000 A 
ATOM      8  C   UNL     1       1.904   4.187  17.987  0.00  0.00    +0.000 A 
ATOM      9  C   UNL     1       3.274   4.428  18.144  0.00  0.00    +0.000 A 
ATOM     10  C   UNL     1       3.843   4.118  19.383  0.00  0.00    +0.000 A 
ATOM     11  C   UNL     1       3.062   3.566  20.421  0.00  0.00    +0.000 A 
BRANCH   6  13
ATOM     12  C   UNL     1       1.378   2.268  22.318  0.00  0.00    +0.000 C 
ATOM     13  O   UNL     1       0.817   2.846  21.152  0.00  0.00    +0.000 OA
ENDBRANCH   6  13
ENDBRANCH   1   9
BRANCH   3  14
ATOM     14  C   UNL     1       5.957   4.686  14.110  0.00  0.00    +0.000 A 
ATOM     15  C   UNL     1       5.383   3.696  13.301  0.00  0.00    +0.000 A 
ATOM     16  C   UNL     1       6.047   3.253  12.154  0.00  0.00    +0.000 A 
ATOM     17  C   UNL     1       7.288   3.784  11.809  0.00  0.00    +0.000 A 
ATOM     18  C   UNL     1       7.872   4.764  12.612  0.00  0.00    +0.000 A 
ATOM     19  C   UNL     1       7.210   5.214  13.758  0.00  0.00    +0.000 A 
ENDBRANCH   3  14
BRANCH   5  20
ATOM     20  C   UNL     1       4.162   7.598  17.778  0.00  0.00    +0.000 C 
BRANCH  20  21
ATOM     21  N   UNL     1       2.786   8.093  17.659  0.00  0.00    +0.000 N 
ATOM     22  H   UNL     1       2.718   8.861  16.994  0.00  0.00    +0.000 HD
BRANCH  21  23
ATOM     23  C   UNL     1       2.055   8.323  18.830  0.00  0.00    +0.000 A 
ATOM     24  C   UNL     1       1.208   9.442  18.899  0.00  0.00    +0.000 A 
ATOM     25  C   UNL     1       0.448   9.709  20.043  0.00  0.00    +0.000 A 
ATOM     26  C   UNL     1       0.501   8.834  21.122  0.00  0.00    +0.000 A 
ATOM     27 CL   UNL     1      -0.445   9.143  22.525  0.00  0.00    +0.000 Cl
ATOM     28  C   UNL     1       1.307   7.701  21.065  0.00  0.00    +0.000 A 
ATOM     29  C   UNL     1       2.072   7.446  19.920  0.00  0.00    +0.000 A 
ENDBRANCH  21  23
ENDBRANCH  20  21
ENDBRANCH   5  20
TORSDOF 6
ENDMDL
MODEL 2
REMARK VINA RESULT:      -7.6      0.234      1.309
REMARK  Name = 
REMARK  7 active torsions:
REMARK  status: ('A' for Active; 'I' for Inactive)
REMARK    1  A    between atoms: C_1  and  O_2
REMARK    2  A    between atoms: O_2  and  C_3
REMARK    3  A    between atoms: C_6  and  C_7
REMARK    4  A    between atoms: N_9  and  C_10
REMARK    5  A    between atoms: C_17  and  C_18
REMARK    6  A    between atoms: C_18  and  N_19
REMARK    7  A    between atoms: N_19  and  C_20
REMARK                            x       y       z     vdW  Elec       q    Type
REMARK                         _______ _______ _______ _____ _____    ______ ____
ROOT
ATOM      1  C   UNL     1       4.107   4.858  17.020  0.00  0.00    +0.000 A 
ATOM      2  N   UNL     1       4.555   4.176  15.952  0.00  0.00    +0.000 NA
ATOM      3  N   UNL     1       5.321   5.049  15.250  0.00  0.00    +0.000 N 
ATOM      4  C   UNL     1       5.315   6.293  15.826  0.00  0.00    +0.000 A 
ATOM      5  C   UNL     1       4.517   6.228  16.948  0.00  0.00    +0.000 A 
ENDROOT
BRANCH   1   9
ATOM      6  C   UNL     1       1.790   2.973  20.127  0.00  0.00    +0.000 A 
ATOM      7  C   UNL     1       1.173   3.572  19.041  0.00  0.00    +0.000 A 
ATOM      8  C   UNL     1       1.936   4.175  18.046  0.00  0.00    +0.000 A 
ATOM      9  C   UNL     1       3.336   4.181  18.081  0.00  0.00    +0.000 A 
ATOM     10  C   UNL     1       3.952   3.581  19.183  0.00  0.00    +0.000 A 
ATOM     11  C   UNL     1       3.185   2.978  20.204  0.00  0.00    +0.000 A 
BRANCH   6  13
ATOM     12  C   UNL     1       1.395   2.453  22.401  0.00  0.00    +0.000 C 
ATOM     13  O   UNL     1       0.926   2.481  21.063  0.00  0.00    +0.000 OA
ENDBRANCH   6  13
ENDBRANCH   1   9
BRANCH   3  14
ATOM     14  C   UNL     1       6.014   4.653  14.064  0.00  0.00    +0.000 A 
ATOM     15  C   UNL     1       7.224   5.272  13.720  0.00  0.00    +0.000 A 
ATOM     16  C   UNL     1       7.910   4.882  12.566  0.00  0.00    +0.000 A 
ATOM     17  C   UNL     1       7.395   3.881  11.745  0.00  0.00    +0.000 A 
ATOM     18  C   UNL     1       6.188   3.265  12.075  0.00  0.00    +0.000 A 
ATOM     19  C   UNL     1       5.499   3.648  13.229  0.00  0.00    +0.000 A 
ENDBRANCH   3  14
BRANCH   5  20
ATOM     20  C   UNL     1       4.188   7.374  17.860  0.00  0.00    +0.000 C 
BRANCH  20  21
ATOM     21  N   UNL     1       2.872   7.983  17.632  0.00  0.00    +0.000 N 
ATOM     22  H   UNL     1       2.924   8.751  16.965  0.00  0.00    +0.000 HD
BRANCH  21  23
ATOM     23  C   UNL     1       2.072   8.280  18.741  0.00  0.00    +0.000 A 
ATOM     24  C   UNL     1       2.134   7.448  19.871  0.00  0.00    +0.000 A 
ATOM     25  C   UNL     1       1.362   7.708  21.008  0.00  0.00    +0.000 A 
ATOM     26  C   UNL     1       0.544   8.831  21.041  0.00  0.00    +0.000 A 
ATOM     27 CL   UNL     1      -0.393   9.170  22.443  0.00  0.00    +0.000 Cl
ATOM     28  C   UNL     1       0.491   9.689  19.946  0.00  0.00    +0.000 A 
ATOM     29  C   UNL     1       1.259   9.417  18.808  0.00  0.00    +0.000 A 
ENDBRANCH  21  23
ENDBRANCH  20  21
ENDBRANCH   5  20
TORSDOF 6
ENDMDL
MODEL 3
REMARK VINA RESULT:      -7.6      0.661      1.172
REMARK  Name = 
REMARK  7 active torsions:
REMARK  status: ('A' for Active; 'I' for Inactive)
REMARK    1  A    between atoms: C_1  and  O_2
REMARK    2  A    between atoms: O_2  and  C_3
REMARK    3  A    between atoms: C_6  and  C_7
REMARK    4  A    between atoms: N_9  and  C_10
REMARK    5  A    between atoms: C_17  and  C_18
REMARK    6  A    between atoms: C_18  and  N_19
REMARK    7  A    between atoms: N_19  and  C_20
REMARK                            x       y       z     vdW  Elec       q    Type
REMARK                         _______ _______ _______ _____ _____    ______ ____
ROOT
ATOM      1  C   UNL     1       4.454   4.683  17.211  0.00  0.00    +0.000 A 
ATOM      2  N   UNL     1       4.868   3.989  16.136  0.00  0.00    +0.000 NA
ATOM      3  N   UNL     1       5.369   4.909  15.272  0.00  0.00    +0.000 N 
ATOM      4  C   UNL     1       5.223   6.182  15.759  0.00  0.00    +0.000 A 
ATOM      5  C   UNL     1       4.605   6.089  16.988  0.00  0.00    +0.000 A 
ENDROOT
BRANCH   1   9
ATOM      6  C   UNL     1       2.963   2.747  20.761  0.00  0.00    +0.000 A 
ATOM      7  C   UNL     1       2.113   3.441  19.917  0.00  0.00    +0.000 A 
ATOM      8  C   UNL     1       2.611   4.059  18.773  0.00  0.00    +0.000 A 
ATOM      9  C   UNL     1       3.962   3.987  18.416  0.00  0.00    +0.000 A 
ATOM     10  C   UNL     1       4.816   3.290  19.275  0.00  0.00    +0.000 A 
ATOM     11  C   UNL     1       4.323   2.671  20.444  0.00  0.00    +0.000 A 
BRANCH   6  13
ATOM     12  C   UNL     1       1.013   2.633  22.095  0.00  0.00    +0.000 C 
ATOM     13  O   UNL     1       2.360   2.248  21.880  0.00  0.00    +0.000 OA
ENDBRANCH   6  13
ENDBRANCH   1   9
BRANCH   3  14
ATOM     14  C   UNL     1       5.956   4.526  14.026  0.00  0.00    +0.000 A 
ATOM     15  C   UNL     1       5.319   3.577  13.214  0.00  0.00    +0.000 A 
ATOM     16  C   UNL     1       5.883   3.206  11.990  0.00  0.00    +0.000 A 
ATOM     17  C   UNL     1       7.086   3.770  11.570  0.00  0.00    +0.000 A 
ATOM     18  C   UNL     1       7.731   4.710  12.374  0.00  0.00    +0.000 A 
ATOM     19  C   UNL     1       7.170   5.087  13.597  0.00  0.00    +0.000 A 
ENDBRANCH   3  14
BRANCH   5  20
ATOM     20  C   UNL     1       4.205   7.244  17.861  0.00  0.00    +0.000 C 
BRANCH  20  21
ATOM     21  N   UNL     1       2.856   7.763  17.612  0.00  0.00    +0.000 N 
ATOM     22  H   UNL     1       2.845   8.431  16.844  0.00  0.00    +0.000 HD
BRANCH  21  23
ATOM     23  C   UNL     1       2.089   8.181  18.706  0.00  0.00    +0.000 A 
ATOM     24  C   UNL     1       2.111   7.421  19.886  0.00  0.00    +0.000 A 
ATOM     25  C   UNL     1       1.371   7.802  21.011  0.00  0.00    +0.000 A 
ATOM     26  C   UNL     1       0.626   8.975  20.977  0.00  0.00    +0.000 A 
ATOM     27 CL   UNL     1      -0.271   9.463  22.362  0.00  0.00    +0.000 Cl
ATOM     28  C   UNL     1       0.615   9.763  19.830  0.00  0.00    +0.000 A 
ATOM     29  C   UNL     1       1.350   9.370  18.706  0.00  0.00    +0.000 A 
ENDBRANCH  21  23
ENDBRANCH  20  21
ENDBRANCH   5  20
TORSDOF 6
ENDMDL
MODEL 4
REMARK VINA RESULT:      -7.4      2.425      4.518
REMARK  Name = 
REMARK  7 active torsions:
REMARK  status: ('A' for Active; 'I' for Inactive)
REMARK    1  A    between atoms: C_1  and  O_2
REMARK    2  A    between atoms: O_2  and  C_3
REMARK    3  A    between atoms: C_6  and  C_7
REMARK    4  A    between atoms: N_9  and  C_10
REMARK    5  A    between atoms: C_17  and  C_18
REMARK    6  A    between atoms: C_18  and  N_19
REMARK    7  A    between atoms: N_19  and  C_20
REMARK                            x       y       z     vdW  Elec       q    Type
REMARK                         _______ _______ _______ _____ _____    ______ ____
ROOT
ATOM      1  C   UNL     1       4.889   5.974  17.202  0.00  0.00    +0.000 A 
ATOM      2  N   UNL     1       5.061   5.981  15.868  0.00  0.00    +0.000 NA
ATOM      3  N   UNL     1       6.029   5.064  15.614  0.00  0.00    +0.000 N 
ATOM      4  C   UNL     1       6.517   4.520  16.775  0.00  0.00    +0.000 A 
ATOM      5  C   UNL     1       5.839   5.102  17.824  0.00  0.00    +0.000 A 
ENDROOT
BRANCH   1   9
ATOM      6  C   UNL     1       1.819   8.383  19.030  0.00  0.00    +0.000 A 
ATOM      7  C   UNL     1       2.432   8.781  17.853  0.00  0.00    +0.000 A 
ATOM      8  C   UNL     1       3.420   7.990  17.275  0.00  0.00    +0.000 A 
ATOM      9  C   UNL     1       3.815   6.767  17.830  0.00  0.00    +0.000 A 
ATOM     10  C   UNL     1       3.197   6.374  19.021  0.00  0.00    +0.000 A 
ATOM     11  C   UNL     1       2.203   7.177  19.621  0.00  0.00    +0.000 A 
BRANCH   6  13
ATOM     12  C   UNL     1       0.596   9.157  20.901  0.00  0.00    +0.000 C 
ATOM     13  O   UNL     1       0.918   9.282  19.526  0.00  0.00    +0.000 OA
ENDBRANCH   6  13
ENDBRANCH   1   9
BRANCH   3  14
ATOM     14  C   UNL     1       6.442   4.759  14.280  0.00  0.00    +0.000 A 
ATOM     15  C   UNL     1       5.781   3.758  13.554  0.00  0.00    +0.000 A 
ATOM     16  C   UNL     1       6.175   3.463  12.246  0.00  0.00    +0.000 A 
ATOM     17  C   UNL     1       7.231   4.154  11.655  0.00  0.00    +0.000 A 
ATOM     18  C   UNL     1       7.900   5.145  12.373  0.00  0.00    +0.000 A 
ATOM     19  C   UNL     1       7.508   5.448  13.679  0.00  0.00    +0.000 A 
ENDBRANCH   3  14
BRANCH   5  20
ATOM     20  C   UNL     1       6.083   4.838  19.282  0.00  0.00    +0.000 C 
BRANCH  20  21
ATOM     21  N   UNL     1       5.662   3.511  19.745  0.00  0.00    +0.000 N 
ATOM     22  H   UNL     1       6.354   2.798  19.523  0.00  0.00    +0.000 HD
BRANCH  21  23
ATOM     23  C   UNL     1       4.351   3.097  19.483  0.00  0.00    +0.000 A 
ATOM     24  C   UNL     1       3.361   3.303  20.458  0.00  0.00    +0.000 A 
ATOM     25  C   UNL     1       2.034   2.917  20.239  0.00  0.00    +0.000 A 
ATOM     26  C   UNL     1       1.675   2.351  19.021  0.00  0.00    +0.000 A 
ATOM     27 CL   UNL     1       0.042   1.892  18.736  0.00  0.00    +0.000 Cl
ATOM     28  C   UNL     1       2.632   2.167  18.027  0.00  0.00    +0.000 A 
ATOM     29  C   UNL     1       3.959   2.547  18.257  0.00  0.00    +0.000 A 
ENDBRANCH  21  23
ENDBRANCH  20  21
ENDBRANCH   5  20
TORSDOF 6
ENDMDL
MODEL 5
REMARK VINA RESULT:      -7.4      4.349      6.975
REMARK  Name = 
REMARK  7 active torsions:
REMARK  status: ('A' for Active; 'I' for Inactive)
REMARK    1  A    between atoms: C_1  and  O_2
REMARK    2  A    between atoms: O_2  and  C_3
REMARK    3  A    between atoms: C_6  and  C_7
REMARK    4  A    between atoms: N_9  and  C_10
REMARK    5  A    between atoms: C_17  and  C_18
REMARK    6  A    between atoms: C_18  and  N_19
REMARK    7  A    between atoms: N_19  and  C_20
REMARK                            x       y       z     vdW  Elec       q    Type
REMARK                         _______ _______ _______ _____ _____    ______ ____
ROOT
ATOM      1  C   UNL     1       7.338   6.894  17.265  0.00  0.00    +0.000 A 
ATOM      2  N   UNL     1       7.534   8.211  17.078  0.00  0.00    +0.000 NA
ATOM      3  N   UNL     1       8.243   8.637  18.155  0.00  0.00    +0.000 N 
ATOM      4  C   UNL     1       8.447   7.619  19.051  0.00  0.00    +0.000 A 
ATOM      5  C   UNL     1       7.850   6.487  18.538  0.00  0.00    +0.000 A 
ENDROOT
BRANCH   1   9
ATOM      6  C   UNL     1       5.568   4.511  14.141  0.00  0.00    +0.000 A 
ATOM      7  C   UNL     1       6.902   4.362  14.482  0.00  0.00    +0.000 A 
ATOM      8  C   UNL     1       7.458   5.138  15.495  0.00  0.00    +0.000 A 
ATOM      9  C   UNL     1       6.703   6.069  16.219  0.00  0.00    +0.000 A 
ATOM     10  C   UNL     1       5.359   6.219  15.865  0.00  0.00    +0.000 A 
ATOM     11  C   UNL     1       4.790   5.445  14.831  0.00  0.00    +0.000 A 
BRANCH   6  13
ATOM     12  C   UNL     1       6.189   3.287  12.214  0.00  0.00    +0.000 C 
ATOM     13  O   UNL     1       5.168   3.739  13.087  0.00  0.00    +0.000 OA
ENDBRANCH   6  13
ENDBRANCH   1   9
BRANCH   3  14
ATOM     14  C   UNL     1       8.684   9.991  18.275  0.00  0.00    +0.000 A 
ATOM     15  C   UNL     1       8.115  10.987  17.470  0.00  0.00    +0.000 A 
ATOM     16  C   UNL     1       8.535  12.315  17.590  0.00  0.00    +0.000 A 
ATOM     17  C   UNL     1       9.528  12.658  18.505  0.00  0.00    +0.000 A 
ATOM     18  C   UNL     1      10.107  11.673  19.306  0.00  0.00    +0.000 A 
ATOM     19  C   UNL     1       9.687  10.345  19.192  0.00  0.00    +0.000 A 
ENDBRANCH   3  14
BRANCH   5  20
ATOM     20  C   UNL     1       7.786   5.146  19.210  0.00  0.00    +0.000 C 
BRANCH  20  21
ATOM     21  N   UNL     1       6.583   4.921  20.019  0.00  0.00    +0.000 N 
ATOM     22  H   UNL     1       6.729   4.197  20.720  0.00  0.00    +0.000 HD
BRANCH  21  23
ATOM     23  C   UNL     1       5.351   4.803  19.365  0.00  0.00    +0.000 A 
ATOM     24  C   UNL     1       5.088   3.650  18.607  0.00  0.00    +0.000 A 
ATOM     25  C   UNL     1       3.868   3.479  17.943  0.00  0.00    +0.000 A 
ATOM     26  C   UNL     1       2.879   4.448  18.063  0.00  0.00    +0.000 A 
ATOM     27 CL   UNL     1       1.369   4.237  17.267  0.00  0.00    +0.000 Cl
ATOM     28  C   UNL     1       3.104   5.584  18.836  0.00  0.00    +0.000 A 
ATOM     29  C   UNL     1       4.331   5.752  19.489  0.00  0.00    +0.000 A 
ENDBRANCH  21  23
ENDBRANCH  20  21
ENDBRANCH   5  20
TORSDOF 6
ENDMDL
MODEL 6
REMARK VINA RESULT:      -7.4      4.334      6.959
REMARK  Name = 
REMARK  7 active torsions:
REMARK  status: ('A' for Active; 'I' for Inactive)
REMARK    1  A    between atoms: C_1  and  O_2
REMARK    2  A    between atoms: O_2  and  C_3
REMARK    3  A    between atoms: C_6  and  C_7
REMARK    4  A    between atoms: N_9  and  C_10
REMARK    5  A    between atoms: C_17  and  C_18
REMARK    6  A    between atoms: C_18  and  N_19
REMARK    7  A    between atoms: N_19  and  C_20
REMARK                            x       y       z     vdW  Elec       q    Type
REMARK                         _______ _______ _______ _____ _____    ______ ____
ROOT
ATOM      1  C   UNL     1       7.320   6.856  17.239  0.00  0.00    +0.000 A 
ATOM      2  N   UNL     1       7.525   8.172  17.058  0.00  0.00    +0.000 NA
ATOM      3  N   UNL     1       8.226   8.591  18.143  0.00  0.00    +0.000 N 
ATOM      4  C   UNL     1       8.415   7.569  19.038  0.00  0.00    +0.000 A 
ATOM      5  C   UNL     1       7.817   6.443  18.516  0.00  0.00    +0.000 A 
ENDROOT
BRANCH   1   9
ATOM      6  C   UNL     1       5.563   4.497  14.089  0.00  0.00    +0.000 A 
ATOM      7  C   UNL     1       6.908   4.385  14.398  0.00  0.00    +0.000 A 
ATOM      8  C   UNL     1       7.459   5.153  15.420  0.00  0.00    +0.000 A 
ATOM      9  C   UNL     1       6.690   6.038  16.184  0.00  0.00    +0.000 A 
ATOM     10  C   UNL     1       5.334   6.151  15.863  0.00  0.00    +0.000 A 
ATOM     11  C   UNL     1       4.770   5.386  14.820  0.00  0.00    +0.000 A 
BRANCH   6  13
ATOM     12  C   UNL     1       6.197   3.231  12.194  0.00  0.00    +0.000 C 
ATOM     13  O   UNL     1       5.166   3.741  13.023  0.00  0.00    +0.000 OA
ENDBRANCH   6  13
ENDBRANCH   1   9
BRANCH   3  14
ATOM     14  C   UNL     1       8.675   9.942  18.271  0.00  0.00    +0.000 A 
ATOM     15  C   UNL     1       9.678  10.262  19.196  0.00  0.00    +0.000 A 
ATOM     16  C   UNL     1      10.127  11.580  19.318  0.00  0.00    +0.000 A 
ATOM     17  C   UNL     1       9.576  12.587  18.529  0.00  0.00    +0.000 A 
ATOM     18  C   UNL     1       8.572  12.280  17.612  0.00  0.00    +0.000 A 
ATOM     19  C   UNL     1       8.122  10.964  17.482  0.00  0.00    +0.000 A 
ENDBRANCH   3  14
BRANCH   5  20
ATOM     20  C   UNL     1       7.737   5.100  19.184  0.00  0.00    +0.000 C 
BRANCH  20  21
ATOM     21  N   UNL     1       6.543   4.895  20.011  0.00  0.00    +0.000 N 
ATOM     22  H   UNL     1       6.714   4.227  20.760  0.00  0.00    +0.000 HD
BRANCH  21  23
ATOM     23  C   UNL     1       5.315   4.691  19.372  0.00  0.00    +0.000 A 
ATOM     24  C   UNL     1       4.314   5.670  19.487  0.00  0.00    +0.000 A 
ATOM     25  C   UNL     1       3.073   5.518  18.858  0.00  0.00    +0.000 A 
ATOM     26  C   UNL     1       2.834   4.397  18.072  0.00  0.00    +0.000 A 
ATOM     27 CL   UNL     1       1.319   4.212  17.279  0.00  0.00    +0.000 Cl
ATOM     28  C   UNL     1       3.822   3.429  17.916  0.00  0.00    +0.000 A 
ATOM     29  C   UNL     1       5.057   3.584  18.556  0.00  0.00    +0.000 A 
ENDBRANCH  21  23
ENDBRANCH  20  21
ENDBRANCH   5  20
TORSDOF 6
ENDMDL
MODEL 7
REMARK VINA RESULT:      -7.3      2.433      4.705
REMARK  Name = 
REMARK  7 active torsions:
REMARK  status: ('A' for Active; 'I' for Inactive)
REMARK    1  A    between atoms: C_1  and  O_2
REMARK    2  A    between atoms: O_2  and  C_3
REMARK    3  A    between atoms: C_6  and  C_7
REMARK    4  A    between atoms: N_9  and  C_10
REMARK    5  A    between atoms: C_17  and  C_18
REMARK    6  A    between atoms: C_18  and  N_19
REMARK    7  A    between atoms: N_19  and  C_20
REMARK                            x       y       z     vdW  Elec       q    Type
REMARK                         _______ _______ _______ _____ _____    ______ ____
ROOT
ATOM      1  C   UNL     1       4.878   5.983  17.184  0.00  0.00    +0.000 A 
ATOM      2  N   UNL     1       5.042   5.977  15.849  0.00  0.00    +0.000 NA
ATOM      3  N   UNL     1       6.010   5.059  15.599  0.00  0.00    +0.000 N 
ATOM      4  C   UNL     1       6.504   4.527  16.762  0.00  0.00    +0.000 A 
ATOM      5  C   UNL     1       5.832   5.119  17.810  0.00  0.00    +0.000 A 
ENDROOT
BRANCH   1   9
ATOM      6  C   UNL     1       1.816   8.406  19.008  0.00  0.00    +0.000 A 
ATOM      7  C   UNL     1       2.450   8.813  17.846  0.00  0.00    +0.000 A 
ATOM      8  C   UNL     1       3.435   8.018  17.269  0.00  0.00    +0.000 A 
ATOM      9  C   UNL     1       3.806   6.781  17.810  0.00  0.00    +0.000 A 
ATOM     10  C   UNL     1       3.168   6.379  18.987  0.00  0.00    +0.000 A 
ATOM     11  C   UNL     1       2.176   7.185  19.586  0.00  0.00    +0.000 A 
BRANCH   6  13
ATOM     12  C   UNL     1       0.190  10.063  18.554  0.00  0.00    +0.000 C 
ATOM     13  O   UNL     1       0.921   9.309  19.506  0.00  0.00    +0.000 OA
ENDBRANCH   6  13
ENDBRANCH   1   9
BRANCH   3  14
ATOM     14  C   UNL     1       6.416   4.741  14.266  0.00  0.00    +0.000 A 
ATOM     15  C   UNL     1       7.489   5.426  13.679  0.00  0.00    +0.000 A 
ATOM     16  C   UNL     1       7.897   5.112  12.379  0.00  0.00    +0.000 A 
ATOM     17  C   UNL     1       7.236   4.123  11.654  0.00  0.00    +0.000 A 
ATOM     18  C   UNL     1       6.163   3.441  12.226  0.00  0.00    +0.000 A 
ATOM     19  C   UNL     1       5.753   3.748  13.527  0.00  0.00    +0.000 A 
ENDBRANCH   3  14
BRANCH   5  20
ATOM     20  C   UNL     1       6.084   4.870  19.269  0.00  0.00    +0.000 C 
BRANCH  20  21
ATOM     21  N   UNL     1       5.663   3.549  19.748  0.00  0.00    +0.000 N 
ATOM     22  H   UNL     1       6.357   2.833  19.540  0.00  0.00    +0.000 HD
BRANCH  21  23
ATOM     23  C   UNL     1       4.354   3.129  19.484  0.00  0.00    +0.000 A 
ATOM     24  C   UNL     1       3.361   3.334  20.456  0.00  0.00    +0.000 A 
ATOM     25  C   UNL     1       2.036   2.943  20.236  0.00  0.00    +0.000 A 
ATOM     26  C   UNL     1       1.682   2.371  19.019  0.00  0.00    +0.000 A 
ATOM     27 CL   UNL     1       0.051   1.905  18.732  0.00  0.00    +0.000 Cl
ATOM     28  C   UNL     1       2.642   2.187  18.028  0.00  0.00    +0.000 A 
ATOM     29  C   UNL     1       3.967   2.573  18.260  0.00  0.00    +0.000 A 
ENDBRANCH  21  23
ENDBRANCH  20  21
ENDBRANCH   5  20
TORSDOF 6
ENDMDL
MODEL 8
REMARK VINA RESULT:      -7.3      3.984      5.599
REMARK  Name = 
REMARK  7 active torsions:
REMARK  status: ('A' for Active; 'I' for Inactive)
REMARK    1  A    between atoms: C_1  and  O_2
REMARK    2  A    between atoms: O_2  and  C_3
REMARK    3  A    between atoms: C_6  and  C_7
REMARK    4  A    between atoms: N_9  and  C_10
REMARK    5  A    between atoms: C_17  and  C_18
REMARK    6  A    between atoms: C_18  and  N_19
REMARK    7  A    between atoms: N_19  and  C_20
REMARK                            x       y       z     vdW  Elec       q    Type
REMARK                         _______ _______ _______ _____ _____    ______ ____
ROOT
ATOM      1  C   UNL     1       1.795   7.212  19.967  0.00  0.00    +0.000 A 
ATOM      2  N   UNL     1       1.911   5.882  20.122  0.00  0.00    +0.000 NA
ATOM      3  N   UNL     1       2.623   5.444  19.052  0.00  0.00    +0.000 N 
ATOM      4  C   UNL     1       2.906   6.471  18.189  0.00  0.00    +0.000 A 
ATOM      5  C   UNL     1       2.361   7.621  18.717  0.00  0.00    +0.000 A 
ENDROOT
BRANCH   1   9
ATOM      6  C   UNL     1      -0.066   9.694  22.959  0.00  0.00    +0.000 A 
ATOM      7  C   UNL     1      -0.828   8.950  22.074  0.00  0.00    +0.000 A 
ATOM      8  C   UNL     1      -0.212   8.152  21.115  0.00  0.00    +0.000 A 
ATOM      9  C   UNL     1       1.181   8.045  21.018  0.00  0.00    +0.000 A 
ATOM     10  C   UNL     1       1.945   8.804  21.910  0.00  0.00    +0.000 A 
ATOM     11  C   UNL     1       1.328   9.626  22.877  0.00  0.00    +0.000 A 
BRANCH   6  13
ATOM     12  C   UNL     1      -1.685  11.403  23.191  0.00  0.00    +0.000 C 
ATOM     13  O   UNL     1      -0.794  10.484  23.801  0.00  0.00    +0.000 OA
ENDBRANCH   6  13
ENDBRANCH   1   9
BRANCH   3  14
ATOM     14  C   UNL     1       2.990   4.071  18.906  0.00  0.00    +0.000 A 
ATOM     15  C   UNL     1       2.423   3.299  17.882  0.00  0.00    +0.000 A 
ATOM     16  C   UNL     1       2.787   1.958  17.729  0.00  0.00    +0.000 A 
ATOM     17  C   UNL     1       3.708   1.375  18.596  0.00  0.00    +0.000 A 
ATOM     18  C   UNL     1       4.272   2.132  19.623  0.00  0.00    +0.000 A 
ATOM     19  C   UNL     1       3.916   3.474  19.778  0.00  0.00    +0.000 A 
ENDBRANCH   3  14
BRANCH   5  20
ATOM     20  C   UNL     1       2.390   8.981  18.080  0.00  0.00    +0.000 C 
BRANCH  20  21
ATOM     21  N   UNL     1       1.159   9.354  17.373  0.00  0.00    +0.000 N 
ATOM     22  H   UNL     1       1.353   9.702  16.437  0.00  0.00    +0.000 HD
BRANCH  21  23
ATOM     23  C   UNL     1       0.206  10.123  18.052  0.00  0.00    +0.000 A 
ATOM     24  C   UNL     1       0.637  11.058  19.007  0.00  0.00    +0.000 A 
ATOM     25  C   UNL     1      -0.274  11.858  19.704  0.00  0.00    +0.000 A 
ATOM     26  C   UNL     1      -1.632  11.756  19.424  0.00  0.00    +0.000 A 
ATOM     27 CL   UNL     1      -2.759  12.750  20.262  0.00  0.00    +0.000 Cl
ATOM     28  C   UNL     1      -2.081  10.860  18.458  0.00  0.00    +0.000 A 
ATOM     29  C   UNL     1      -1.163  10.056  17.772  0.00  0.00    +0.000 A 
ENDBRANCH  21  23
ENDBRANCH  20  21
ENDBRANCH   5  20
TORSDOF 6
ENDMDL
MODEL 9
REMARK VINA RESULT:      -7.3      3.396      6.064
REMARK  Name = 
REMARK  7 active torsions:
REMARK  status: ('A' for Active; 'I' for Inactive)
REMARK    1  A    between atoms: C_1  and  O_2
REMARK    2  A    between atoms: O_2  and  C_3
REMARK    3  A    between atoms: C_6  and  C_7
REMARK    4  A    between atoms: N_9  and  C_10
REMARK    5  A    between atoms: C_17  and  C_18
REMARK    6  A    between atoms: C_18  and  N_19
REMARK    7  A    between atoms: N_19  and  C_20
REMARK                            x       y       z     vdW  Elec       q    Type
REMARK                         _______ _______ _______ _____ _____    ______ ____
ROOT
ATOM      1  C   UNL     1       1.942   8.621  18.676  0.00  0.00    +0.000 A 
ATOM      2  N   UNL     1       2.748   8.142  17.713  0.00  0.00    +0.000 NA
ATOM      3  N   UNL     1       3.126   6.906  18.127  0.00  0.00    +0.000 N 
ATOM      4  C   UNL     1       2.618   6.619  19.368  0.00  0.00    +0.000 A 
ATOM      5  C   UNL     1       1.880   7.709  19.777  0.00  0.00    +0.000 A 
ENDROOT
BRANCH   1   9
ATOM      6  C   UNL     1      -0.050  12.420  18.255  0.00  0.00    +0.000 A 
ATOM      7  C   UNL     1       1.332  12.339  18.289  0.00  0.00    +0.000 A 
ATOM      8  C   UNL     1       1.959  11.104  18.423  0.00  0.00    +0.000 A 
ATOM      9  C   UNL     1       1.238   9.907  18.503  0.00  0.00    +0.000 A 
ATOM     10  C   UNL     1      -0.157   9.996  18.475  0.00  0.00    +0.000 A 
ATOM     11  C   UNL     1      -0.802  11.245  18.351  0.00  0.00    +0.000 A 
BRANCH   6  13
ATOM     12  C   UNL     1       0.106  14.658  19.006  0.00  0.00    +0.000 C 
ATOM     13  O   UNL     1      -0.537  13.694  18.189  0.00  0.00    +0.000 OA
ENDBRANCH   6  13
ENDBRANCH   1   9
BRANCH   3  14
ATOM     14  C   UNL     1       3.955   6.065  17.321  0.00  0.00    +0.000 A 
ATOM     15  C   UNL     1       3.895   4.673  17.470  0.00  0.00    +0.000 A 
ATOM     16  C   UNL     1       4.696   3.846  16.676  0.00  0.00    +0.000 A 
ATOM     17  C   UNL     1       5.565   4.398  15.738  0.00  0.00    +0.000 A 
ATOM     18  C   UNL     1       5.638   5.783  15.588  0.00  0.00    +0.000 A 
ATOM     19  C   UNL     1       4.836   6.614  16.375  0.00  0.00    +0.000 A 
ENDBRANCH   3  14
BRANCH   5  20
ATOM     20  C   UNL     1       1.181   7.851  21.099  0.00  0.00    +0.000 C 
BRANCH  20  21
ATOM     21  N   UNL     1       1.590   9.018  21.888  0.00  0.00    +0.000 N 
ATOM     22  H   UNL     1       2.170   8.752  22.681  0.00  0.00    +0.000 HD
BRANCH  21  23
ATOM     23  C   UNL     1       0.622   9.974  22.219  0.00  0.00    +0.000 A 
ATOM     24  C   UNL     1       0.726  11.267  21.681  0.00  0.00    +0.000 A 
ATOM     25  C   UNL     1      -0.222  12.254  21.972  0.00  0.00    +0.000 A 
ATOM     26  C   UNL     1      -1.310  11.944  22.780  0.00  0.00    +0.000 A 
ATOM     27 CL   UNL     1      -2.491  13.145  23.127  0.00  0.00    +0.000 Cl
ATOM     28  C   UNL     1      -1.452  10.660  23.298  0.00  0.00    +0.000 A 
ATOM     29  C   UNL     1      -0.494   9.681  23.010  0.00  0.00    +0.000 A 
ENDBRANCH  21  23
ENDBRANCH  20  21
ENDBRANCH   5  20
TORSDOF 6
ENDMDL
