MODEL 1
REMARK VINA RESULT:      -8.0      0.000      0.000
REMARK  Name = 
REMARK  7 active torsions:
REMARK  status: ('A' for Active; 'I' for Inactive)
REMARK    1  A    between atoms: C_1  and  C_2
REMARK    2  A    between atoms: C_2  and  C_3
REMARK    3  A    between atoms: C_2  and  C_4
REMARK    4  A    between atoms: C_6  and  N_7
REMARK    5  A    between atoms: C_10  and  N_11
REMARK    6  A    between atoms: N_11  and  C_12
REMARK    7  A    between atoms: N_11  and  C_13
REMARK                            x       y       z     vdW  Elec       q    Type
REMARK                         _______ _______ _______ _____ _____    ______ ____
ROOT
ATOM      1  C   UNL     1       6.439   4.349  15.551  0.00  0.00    +0.000 A 
ATOM      2  C   UNL     1       5.140   3.960  16.153  0.00  0.00    +0.000 A 
ATOM      3  C   UNL     1       4.950   4.154  17.471  0.00  0.00    +0.000 A 
ATOM      4  N   UNL     1       6.015   4.768  18.194  0.00  0.00    +0.000 N 
ATOM      5  N   UNL     1       6.094   5.074  19.531  0.00  0.00    +0.000 NA
ATOM      6  C   UNL     1       7.305   5.602  19.689  0.00  0.00    +0.000 A 
ATOM      7  C   UNL     1       8.026   5.678  18.494  0.00  0.00    +0.000 A 
ATOM      8  C   UNL     1       7.202   5.138  17.530  0.00  0.00    +0.000 A 
ATOM      9  N   UNL     1       7.414   4.924  16.199  0.00  0.00    +0.000 NA
ENDROOT
BRANCH   3  10
ATOM     10  N   UNL     1       3.758   3.774  18.104  0.00  0.00    +0.000 N 
ATOM     11  C   UNL     1       3.571   2.560  18.885  0.00  0.00    +0.000 C 
ATOM     12  C   UNL     1       2.122   2.229  18.613  0.00  0.00    +0.000 C 
ATOM     13  C   UNL     1       1.416   3.590  18.722  0.00  0.00    +0.000 C 
ATOM     14  C   UNL     1       2.511   4.557  18.150  0.00  0.00    +0.000 C 
BRANCH  13  15
ATOM     15  N   UNL     1       0.960   3.905  20.102  0.00  0.00    +0.000 NA
ATOM     16  C   UNL     1       1.242   2.788  21.018  0.00  0.00    +0.000 C 
ATOM     17  C   UNL     1       1.625   5.101  20.636  0.00  0.00    +0.000 C 
ENDBRANCH  13  15
ENDBRANCH   3  10
BRANCH   1  19
ATOM     18  C   UNL     1       5.257   3.896  13.395  0.00  0.00    +0.000 C 
ATOM     19  C   UNL     1       6.616   4.014  14.072  0.00  0.00    +0.000 C 
ATOM     20  C   UNL     1       7.497   5.055  13.384  0.00  0.00    +0.000 C 
ENDBRANCH   1  19
TORSDOF 3
ENDMDL
MODEL 2
REMARK VINA RESULT:      -7.1      0.840      1.032
REMARK  Name = 
REMARK  7 active torsions:
REMARK  status: ('A' for Active; 'I' for Inactive)
REMARK    1  A    between atoms: C_1  and  C_2
REMARK    2  A    between atoms: C_2  and  C_3
REMARK    3  A    between atoms: C_2  and  C_4
REMARK    4  A    between atoms: C_6  and  N_7
REMARK    5  A    between atoms: C_10  and  N_11
REMARK    6  A    between atoms: N_11  and  C_12
REMARK    7  A    between atoms: N_11  and  C_13
REMARK                            x       y       z     vdW  Elec       q    Type
REMARK                         _______ _______ _______ _____ _____    ______ ____
ROOT
ATOM      1  C   UNL     1       6.557   4.449  15.546  0.00  0.00    +0.000 A 
ATOM      2  C   UNL     1       5.182   4.258  16.071  0.00  0.00    +0.000 A 
ATOM      3  C   UNL     1       4.950   4.469  17.379  0.00  0.00    +0.000 A 
ATOM      4  N   UNL     1       6.054   4.909  18.169  0.00  0.00    +0.000 N 
ATOM      5  N   UNL     1       6.103   5.190  19.512  0.00  0.00    +0.000 NA
ATOM      6  C   UNL     1       7.370   5.526  19.744  0.00  0.00    +0.000 A 
ATOM      7  C   UNL     1       8.160   5.500  18.591  0.00  0.00    +0.000 A 
ATOM      8  C   UNL     1       7.318   5.098  17.575  0.00  0.00    +0.000 A 
ATOM      9  N   UNL     1       7.569   4.865  16.255  0.00  0.00    +0.000 NA
ENDROOT
BRANCH   3  10
ATOM     10  N   UNL     1       3.681   4.270  17.941  0.00  0.00    +0.000 N 
ATOM     11  C   UNL     1       2.620   3.465  17.356  0.00  0.00    +0.000 C 
ATOM     12  C   UNL     1       1.379   4.201  17.804  0.00  0.00    +0.000 C 
ATOM     13  C   UNL     1       1.669   4.530  19.277  0.00  0.00    +0.000 C 
ATOM     14  C   UNL     1       3.217   4.781  19.242  0.00  0.00    +0.000 C 
BRANCH  13  15
ATOM     15  N   UNL     1       1.228   3.462  20.215  0.00  0.00    +0.000 NA
ATOM     16  C   UNL     1       0.675   2.313  19.481  0.00  0.00    +0.000 C 
ATOM     17  C   UNL     1       2.338   2.972  21.043  0.00  0.00    +0.000 C 
ENDBRANCH  13  15
ENDBRANCH   3  10
BRANCH   1  19
ATOM     18  C   UNL     1       5.417   3.935  13.380  0.00  0.00    +0.000 C 
ATOM     19  C   UNL     1       6.763   4.102  14.074  0.00  0.00    +0.000 C 
ATOM     20  C   UNL     1       7.622   5.160  13.384  0.00  0.00    +0.000 C 
ENDBRANCH   1  19
TORSDOF 3
ENDMDL
MODEL 3
REMARK VINA RESULT:      -7.1      1.070      1.353
REMARK  Name = 
REMARK  7 active torsions:
REMARK  status: ('A' for Active; 'I' for Inactive)
REMARK    1  A    between atoms: C_1  and  C_2
REMARK    2  A    between atoms: C_2  and  C_3
REMARK    3  A    between atoms: C_2  and  C_4
REMARK    4  A    between atoms: C_6  and  N_7
REMARK    5  A    between atoms: C_10  and  N_11
REMARK    6  A    between atoms: N_11  and  C_12
REMARK    7  A    between atoms: N_11  and  C_13
REMARK                            x       y       z     vdW  Elec       q    Type
REMARK                         _______ _______ _______ _____ _____    ______ ____
ROOT
ATOM      1  C   UNL     1       6.361   4.445  14.502  0.00  0.00    +0.000 A 
ATOM      2  C   UNL     1       5.211   3.939  15.291  0.00  0.00    +0.000 A 
ATOM      3  C   UNL     1       5.047   4.373  16.553  0.00  0.00    +0.000 A 
ATOM      4  N   UNL     1       5.983   5.336  17.033  0.00  0.00    +0.000 N 
ATOM      5  N   UNL     1       6.057   5.937  18.266  0.00  0.00    +0.000 NA
ATOM      6  C   UNL     1       7.128   6.723  18.199  0.00  0.00    +0.000 A 
ATOM      7  C   UNL     1       7.756   6.683  16.951  0.00  0.00    +0.000 A 
ATOM      8  C   UNL     1       7.026   5.787  16.198  0.00  0.00    +0.000 A 
ATOM      9  N   UNL     1       7.215   5.336  14.925  0.00  0.00    +0.000 NA
ENDROOT
BRANCH   3  10
ATOM     10  N   UNL     1       4.000   3.904  17.360  0.00  0.00    +0.000 N 
ATOM     11  C   UNL     1       3.846   2.533  17.824  0.00  0.00    +0.000 C 
ATOM     12  C   UNL     1       2.343   2.382  17.870  0.00  0.00    +0.000 C 
ATOM     13  C   UNL     1       1.869   3.698  18.507  0.00  0.00    +0.000 C 
ATOM     14  C   UNL     1       2.914   4.717  17.934  0.00  0.00    +0.000 C 
BRANCH  13  15
ATOM     15  N   UNL     1       1.799   3.639  19.992  0.00  0.00    +0.000 NA
ATOM     16  C   UNL     1       1.205   4.869  20.540  0.00  0.00    +0.000 C 
ATOM     17  C   UNL     1       0.989   2.505  20.456  0.00  0.00    +0.000 C 
ENDBRANCH  13  15
ENDBRANCH   3  10
BRANCH   1  19
ATOM     18  C   UNL     1       5.176   3.556  12.488  0.00  0.00    +0.000 C 
ATOM     19  C   UNL     1       6.536   3.839  13.112  0.00  0.00    +0.000 C 
ATOM     20  C   UNL     1       7.380   4.753  12.226  0.00  0.00    +0.000 C 
ENDBRANCH   1  19
TORSDOF 3
ENDMDL
MODEL 4
REMARK VINA RESULT:      -6.8      1.356      3.427
REMARK  Name = 
REMARK  7 active torsions:
REMARK  status: ('A' for Active; 'I' for Inactive)
REMARK    1  A    between atoms: C_1  and  C_2
REMARK    2  A    between atoms: C_2  and  C_3
REMARK    3  A    between atoms: C_2  and  C_4
REMARK    4  A    between atoms: C_6  and  N_7
REMARK    5  A    between atoms: C_10  and  N_11
REMARK    6  A    between atoms: N_11  and  C_12
REMARK    7  A    between atoms: N_11  and  C_13
REMARK                            x       y       z     vdW  Elec       q    Type
REMARK                         _______ _______ _______ _____ _____    ______ ____
ROOT
ATOM      1  C   UNL     1       7.205   6.019  17.017  0.00  0.00    +0.000 A 
ATOM      2  C   UNL     1       5.992   5.463  17.665  0.00  0.00    +0.000 A 
ATOM      3  C   UNL     1       5.158   4.700  16.935  0.00  0.00    +0.000 A 
ATOM      4  N   UNL     1       5.531   4.444  15.583  0.00  0.00    +0.000 N 
ATOM      5  N   UNL     1       4.873   3.714  14.623  0.00  0.00    +0.000 NA
ATOM      6  C   UNL     1       5.631   3.820  13.535  0.00  0.00    +0.000 A 
ATOM      7  C   UNL     1       6.785   4.578  13.747  0.00  0.00    +0.000 A 
ATOM      8  C   UNL     1       6.723   4.987  15.062  0.00  0.00    +0.000 A 
ATOM      9  N   UNL     1       7.564   5.781  15.786  0.00  0.00    +0.000 NA
ENDROOT
BRANCH   3  10
ATOM     10  N   UNL     1       3.977   4.175  17.481  0.00  0.00    +0.000 N 
ATOM     11  C   UNL     1       3.811   2.816  17.975  0.00  0.00    +0.000 C 
ATOM     12  C   UNL     1       2.362   2.536  17.651  0.00  0.00    +0.000 C 
ATOM     13  C   UNL     1       1.645   3.831  18.066  0.00  0.00    +0.000 C 
ATOM     14  C   UNL     1       2.724   4.913  17.711  0.00  0.00    +0.000 C 
BRANCH  13  15
ATOM     15  N   UNL     1       1.203   3.828  19.486  0.00  0.00    +0.000 NA
ATOM     16  C   UNL     1       1.469   2.526  20.118  0.00  0.00    +0.000 C 
ATOM     17  C   UNL     1       1.894   4.857  20.274  0.00  0.00    +0.000 C 
ENDBRANCH  13  15
ENDBRANCH   3  10
BRANCH   1  19
ATOM     18  C   UNL     1       7.565   8.386  17.739  0.00  0.00    +0.000 C 
ATOM     19  C   UNL     1       8.054   6.951  17.879  0.00  0.00    +0.000 C 
ATOM     20  C   UNL     1       8.044   6.495  19.337  0.00  0.00    +0.000 C 
ENDBRANCH   1  19
TORSDOF 3
ENDMDL
MODEL 5
REMARK VINA RESULT:      -6.8      1.117      1.372
REMARK  Name = 
REMARK  7 active torsions:
REMARK  status: ('A' for Active; 'I' for Inactive)
REMARK    1  A    between atoms: C_1  and  C_2
REMARK    2  A    between atoms: C_2  and  C_3
REMARK    3  A    between atoms: C_2  and  C_4
REMARK    4  A    between atoms: C_6  and  N_7
REMARK    5  A    between atoms: C_10  and  N_11
REMARK    6  A    between atoms: N_11  and  C_12
REMARK    7  A    between atoms: N_11  and  C_13
REMARK                            x       y       z     vdW  Elec       q    Type
REMARK                         _______ _______ _______ _____ _____    ______ ____
ROOT
ATOM      1  C   UNL     1       6.393   4.421  14.820  0.00  0.00    +0.000 A 
ATOM      2  C   UNL     1       5.427   3.718  15.699  0.00  0.00    +0.000 A 
ATOM      3  C   UNL     1       5.344   4.079  16.993  0.00  0.00    +0.000 A 
ATOM      4  N   UNL     1       6.175   5.156  17.419  0.00  0.00    +0.000 N 
ATOM      5  N   UNL     1       6.298   5.718  18.666  0.00  0.00    +0.000 NA
ATOM      6  C   UNL     1       7.226   6.661  18.526  0.00  0.00    +0.000 A 
ATOM      7  C   UNL     1       7.709   6.760  17.218  0.00  0.00    +0.000 A 
ATOM      8  C   UNL     1       7.039   5.790  16.502  0.00  0.00    +0.000 A 
ATOM      9  N   UNL     1       7.148   5.417  15.195  0.00  0.00    +0.000 NA
ENDROOT
BRANCH   3  10
ATOM     10  N   UNL     1       4.476   3.428  17.882  0.00  0.00    +0.000 N 
ATOM     11  C   UNL     1       4.610   3.416  19.331  0.00  0.00    +0.000 C 
ATOM     12  C   UNL     1       4.061   2.055  19.688  0.00  0.00    +0.000 C 
ATOM     13  C   UNL     1       2.802   1.935  18.814  0.00  0.00    +0.000 C 
ATOM     14  C   UNL     1       3.246   2.702  17.520  0.00  0.00    +0.000 C 
BRANCH  13  15
ATOM     15  N   UNL     1       1.578   2.469  19.470  0.00  0.00    +0.000 NA
ATOM     16  C   UNL     1       1.765   2.572  20.926  0.00  0.00    +0.000 C 
ATOM     17  C   UNL     1       1.229   3.804  18.968  0.00  0.00    +0.000 C 
ENDBRANCH  13  15
ENDBRANCH   3  10
BRANCH   1  19
ATOM     18  C   UNL     1       5.111   3.770  12.775  0.00  0.00    +0.000 C 
ATOM     19  C   UNL     1       6.498   3.896  13.391  0.00  0.00    +0.000 C 
ATOM     20  C   UNL     1       7.405   4.794  12.551  0.00  0.00    +0.000 C 
ENDBRANCH   1  19
TORSDOF 3
ENDMDL
MODEL 6
REMARK VINA RESULT:      -6.8      2.126      6.589
REMARK  Name = 
REMARK  7 active torsions:
REMARK  status: ('A' for Active; 'I' for Inactive)
REMARK    1  A    between atoms: C_1  and  C_2
REMARK    2  A    between atoms: C_2  and  C_3
REMARK    3  A    between atoms: C_2  and  C_4
REMARK    4  A    between atoms: C_6  and  N_7
REMARK    5  A    between atoms: C_10  and  N_11
REMARK    6  A    between atoms: N_11  and  C_12
REMARK    7  A    between atoms: N_11  and  C_13
REMARK                            x       y       z     vdW  Elec       q    Type
REMARK                         _______ _______ _______ _____ _____    ______ ____
ROOT
ATOM      1  C   UNL     1       1.831   7.082  20.376  0.00  0.00    +0.000 A 
ATOM      2  C   UNL     1       2.977   7.029  19.435  0.00  0.00    +0.000 A 
ATOM      3  C   UNL     1       3.550   5.840  19.175  0.00  0.00    +0.000 A 
ATOM      4  N   UNL     1       2.975   4.694  19.801  0.00  0.00    +0.000 N 
ATOM      5  N   UNL     1       3.356   3.377  19.720  0.00  0.00    +0.000 NA
ATOM      6  C   UNL     1       2.511   2.728  20.516  0.00  0.00    +0.000 A 
ATOM      7  C   UNL     1       1.564   3.569  21.107  0.00  0.00    +0.000 A 
ATOM      8  C   UNL     1       1.862   4.837  20.654  0.00  0.00    +0.000 A 
ATOM      9  N   UNL     1       1.288   6.041  20.943  0.00  0.00    +0.000 NA
ENDROOT
BRANCH   3  10
ATOM     10  N   UNL     1       4.658   5.730  18.323  0.00  0.00    +0.000 N 
ATOM     11  C   UNL     1       6.030   5.503  18.754  0.00  0.00    +0.000 C 
ATOM     12  C   UNL     1       6.819   6.259  17.710  0.00  0.00    +0.000 C 
ATOM     13  C   UNL     1       6.123   5.881  16.392  0.00  0.00    +0.000 C 
ATOM     14  C   UNL     1       4.629   5.758  16.851  0.00  0.00    +0.000 C 
BRANCH  13  15
ATOM     15  N   UNL     1       6.688   4.658  15.760  0.00  0.00    +0.000 NA
ATOM     16  C   UNL     1       5.686   3.582  15.708  0.00  0.00    +0.000 C 
ATOM     17  C   UNL     1       7.141   4.914  14.386  0.00  0.00    +0.000 C 
ENDBRANCH  13  15
ENDBRANCH   3  10
BRANCH   1  19
ATOM     18  C   UNL     1       1.099   9.269  19.409  0.00  0.00    +0.000 C 
ATOM     19  C   UNL     1       1.293   8.475  20.694  0.00  0.00    +0.000 C 
ATOM     20  C   UNL     1      -0.002   8.384  21.498  0.00  0.00    +0.000 C 
ENDBRANCH   1  19
TORSDOF 3
ENDMDL
MODEL 7
REMARK VINA RESULT:      -6.7      1.952      6.459
REMARK  Name = 
REMARK  7 active torsions:
REMARK  status: ('A' for Active; 'I' for Inactive)
REMARK    1  A    between atoms: C_1  and  C_2
REMARK    2  A    between atoms: C_2  and  C_3
REMARK    3  A    between atoms: C_2  and  C_4
REMARK    4  A    between atoms: C_6  and  N_7
REMARK    5  A    between atoms: C_10  and  N_11
REMARK    6  A    between atoms: N_11  and  C_12
REMARK    7  A    between atoms: N_11  and  C_13
REMARK                            x       y       z     vdW  Elec       q    Type
REMARK                         _______ _______ _______ _____ _____    ______ ____
ROOT
ATOM      1  C   UNL     1       1.991   6.799  20.208  0.00  0.00    +0.000 A 
ATOM      2  C   UNL     1       3.067   6.547  19.217  0.00  0.00    +0.000 A 
ATOM      3  C   UNL     1       3.463   5.280  18.996  0.00  0.00    +0.000 A 
ATOM      4  N   UNL     1       2.779   4.254  19.712  0.00  0.00    +0.000 N 
ATOM      5  N   UNL     1       2.979   2.895  19.686  0.00  0.00    +0.000 NA
ATOM      6  C   UNL     1       2.101   2.405  20.557  0.00  0.00    +0.000 A 
ATOM      7  C   UNL     1       1.307   3.393  21.146  0.00  0.00    +0.000 A 
ATOM      8  C   UNL     1       1.743   4.586  20.609  0.00  0.00    +0.000 A 
ATOM      9  N   UNL     1       1.349   5.868  20.858  0.00  0.00    +0.000 NA
ENDROOT
BRANCH   3  10
ATOM     10  N   UNL     1       4.499   4.981  18.099  0.00  0.00    +0.000 N 
ATOM     11  C   UNL     1       4.334   4.761  16.670  0.00  0.00    +0.000 C 
ATOM     12  C   UNL     1       5.414   3.743  16.380  0.00  0.00    +0.000 C 
ATOM     13  C   UNL     1       6.626   4.273  17.164  0.00  0.00    +0.000 C 
ATOM     14  C   UNL     1       5.933   4.902  18.423  0.00  0.00    +0.000 C 
BRANCH  13  15
ATOM     15  N   UNL     1       7.468   5.213  16.376  0.00  0.00    +0.000 NA
ATOM     16  C   UNL     1       7.120   5.161  14.947  0.00  0.00    +0.000 C 
ATOM     17  C   UNL     1       7.303   6.601  16.826  0.00  0.00    +0.000 C 
ENDBRANCH  13  15
ENDBRANCH   3  10
BRANCH   1  19
ATOM     18  C   UNL     1       1.433   8.998  19.159  0.00  0.00    +0.000 C 
ATOM     19  C   UNL     1       1.660   8.265  20.474  0.00  0.00    +0.000 C 
ATOM     20  C   UNL     1       0.451   8.386  21.400  0.00  0.00    +0.000 C 
ENDBRANCH   1  19
TORSDOF 3
ENDMDL
MODEL 8
REMARK VINA RESULT:      -6.6      2.961      4.712
REMARK  Name = 
REMARK  7 active torsions:
REMARK  status: ('A' for Active; 'I' for Inactive)
REMARK    1  A    between atoms: C_1  and  C_2
REMARK    2  A    between atoms: C_2  and  C_3
REMARK    3  A    between atoms: C_2  and  C_4
REMARK    4  A    between atoms: C_6  and  N_7
REMARK    5  A    between atoms: C_10  and  N_11
REMARK    6  A    between atoms: N_11  and  C_12
REMARK    7  A    between atoms: N_11  and  C_13
REMARK                            x       y       z     vdW  Elec       q    Type
REMARK                         _______ _______ _______ _____ _____    ______ ____
ROOT
ATOM      1  C   UNL     1       5.309   5.066  17.455  0.00  0.00    +0.000 A 
ATOM      2  C   UNL     1       4.550   6.258  17.907  0.00  0.00    +0.000 A 
ATOM      3  C   UNL     1       3.254   6.116  18.241  0.00  0.00    +0.000 A 
ATOM      4  N   UNL     1       2.710   4.800  18.176  0.00  0.00    +0.000 N 
ATOM      5  N   UNL     1       1.433   4.373  18.450  0.00  0.00    +0.000 NA
ATOM      6  C   UNL     1       1.450   3.066  18.201  0.00  0.00    +0.000 A 
ATOM      7  C   UNL     1       2.704   2.606  17.791  0.00  0.00    +0.000 A 
ATOM      8  C   UNL     1       3.518   3.719  17.769  0.00  0.00    +0.000 A 
ATOM      9  N   UNL     1       4.826   3.855  17.404  0.00  0.00    +0.000 NA
ENDROOT
BRANCH   3  10
ATOM     10  N   UNL     1       2.476   7.212  18.641  0.00  0.00    +0.000 N 
ATOM     11  C   UNL     1       1.862   8.179  17.744  0.00  0.00    +0.000 C 
ATOM     12  C   UNL     1       1.909   9.447  18.564  0.00  0.00    +0.000 C 
ATOM     13  C   UNL     1       1.472   8.985  19.964  0.00  0.00    +0.000 C 
ATOM     14  C   UNL     1       2.087   7.543  20.023  0.00  0.00    +0.000 C 
BRANCH  13  15
ATOM     15  N   UNL     1       0.000   9.048  20.171  0.00  0.00    +0.000 NA
ATOM     16  C   UNL     1      -0.339   8.878  21.592  0.00  0.00    +0.000 C 
ATOM     17  C   UNL     1      -0.557  10.333  19.728  0.00  0.00    +0.000 C 
ENDBRANCH  13  15
ENDBRANCH   3  10
BRANCH   1  19
ATOM     18  C   UNL     1       6.904   4.958  15.533  0.00  0.00    +0.000 C 
ATOM     19  C   UNL     1       6.744   5.320  17.003  0.00  0.00    +0.000 C 
ATOM     20  C   UNL     1       7.145   6.770  17.270  0.00  0.00    +0.000 C 
ENDBRANCH   1  19
TORSDOF 3
ENDMDL
MODEL 9
REMARK VINA RESULT:      -6.6      3.123      4.996
REMARK  Name = 
REMARK  7 active torsions:
REMARK  status: ('A' for Active; 'I' for Inactive)
REMARK    1  A    between atoms: C_1  and  C_2
REMARK    2  A    between atoms: C_2  and  C_3
REMARK    3  A    between atoms: C_2  and  C_4
REMARK    4  A    between atoms: C_6  and  N_7
REMARK    5  A    between atoms: C_10  and  N_11
REMARK    6  A    between atoms: N_11  and  C_12
REMARK    7  A    between atoms: N_11  and  C_13
REMARK                            x       y       z     vdW  Elec       q    Type
REMARK                         _______ _______ _______ _____ _____    ______ ____
ROOT
ATOM      1  C   UNL     1       3.028   3.758  17.655  0.00  0.00    +0.000 A 
ATOM      2  C   UNL     1       2.275   4.942  18.136  0.00  0.00    +0.000 A 
ATOM      3  C   UNL     1       2.861   6.152  18.082  0.00  0.00    +0.000 A 
ATOM      4  N   UNL     1       4.170   6.211  17.518  0.00  0.00    +0.000 N 
ATOM      5  N   UNL     1       4.994   7.297  17.347  0.00  0.00    +0.000 NA
ATOM      6  C   UNL     1       6.104   6.801  16.808  0.00  0.00    +0.000 A 
ATOM      7  C   UNL     1       6.036   5.422  16.592  0.00  0.00    +0.000 A 
ATOM      8  C   UNL     1       4.795   5.036  17.052  0.00  0.00    +0.000 A 
ATOM      9  N   UNL     1       4.218   3.802  17.124  0.00  0.00    +0.000 NA
ENDROOT
BRANCH   3  10
ATOM     10  N   UNL     1       2.215   7.303  18.555  0.00  0.00    +0.000 N 
ATOM     11  C   UNL     1       1.613   8.332  17.720  0.00  0.00    +0.000 C 
ATOM     12  C   UNL     1       1.835   9.578  18.544  0.00  0.00    +0.000 C 
ATOM     13  C   UNL     1       1.479   9.134  19.972  0.00  0.00    +0.000 C 
ATOM     14  C   UNL     1       1.971   7.644  19.967  0.00  0.00    +0.000 C 
BRANCH  13  15
ATOM     15  N   UNL     1       0.040   9.318  20.301  0.00  0.00    +0.000 NA
ATOM     16  C   UNL     1      -0.213   9.041  21.724  0.00  0.00    +0.000 C 
ATOM     17  C   UNL     1      -0.412  10.688  20.025  0.00  0.00    +0.000 C 
ENDBRANCH  13  15
ENDBRANCH   3  10
BRANCH   1  19
ATOM     18  C   UNL     1       3.297   1.402  18.448  0.00  0.00    +0.000 C 
ATOM     19  C   UNL     1       2.335   2.409  17.833  0.00  0.00    +0.000 C 
ATOM     20  C   UNL     1       1.068   2.560  18.674  0.00  0.00    +0.000 C 
ENDBRANCH   1  19
TORSDOF 3
ENDMDL
