MODEL 1
REMARK VINA RESULT:      -7.7      0.000      0.000
REMARK  Name = 
REMARK  8 active torsions:
REMARK  status: ('A' for Active; 'I' for Inactive)
REMARK    1  A    between atoms: C_1  and  O_2
REMARK    2  A    between atoms: O_2  and  C_3
REMARK    3  A    between atoms: C_6  and  C_7
REMARK    4  A    between atoms: C_7  and  N_9
REMARK    5  A    between atoms: C_16  and  O_17
REMARK    6  A    between atoms: O_17  and  C_18
REMARK    7  A    between atoms: C_18  and  C_20
REMARK    8  A    between atoms: C_24  and  N_25
REMARK                            x       y       z     vdW  Elec       q    Type
REMARK                         _______ _______ _______ _____ _____    ______ ____
ROOT
ATOM      1  C   UNL     1       2.068   3.928  18.274  0.00  0.00    +0.000 A 
ATOM      2  C   UNL     1       2.778   2.893  17.656  0.00  0.00    +0.000 A 
ATOM      3  C   UNL     1       4.001   3.129  17.022  0.00  0.00    +0.000 A 
ATOM      4  C   UNL     1       4.573   4.404  17.036  0.00  0.00    +0.000 A 
ATOM      5  C   UNL     1       3.864   5.447  17.637  0.00  0.00    +0.000 A 
ATOM      6  C   UNL     1       2.621   5.214  18.256  0.00  0.00    +0.000 A 
ENDROOT
BRANCH   1   8
ATOM      7  C   UNL     1       0.857   3.008  20.129  0.00  0.00    +0.000 C 
ATOM      8  O   UNL     1       0.886   3.498  18.801  0.00  0.00    +0.000 OA
ENDBRANCH   1   8
BRANCH   4   9
ATOM      9  C   UNL     1       5.872   4.648  16.322  0.00  0.00    +0.000 C 
ATOM     10  S   UNL     1       6.147   4.034  14.768  0.00  0.00    +0.000 S 
BRANCH   9  11
ATOM     11  N   UNL     1       6.850   5.381  17.003  0.00  0.00    +0.000 N 
ATOM     12  C   UNL     1       7.676   4.836  18.095  0.00  0.00    +0.000 C 
ATOM     13  C   UNL     1       7.885   5.883  19.199  0.00  0.00    +0.000 C 
ATOM     14  O   UNL     1       8.405   7.111  18.666  0.00  0.00    +0.000 OA
ATOM     15  C   UNL     1       7.498   7.664  17.698  0.00  0.00    +0.000 C 
ATOM     16  C   UNL     1       7.300   6.699  16.531  0.00  0.00    +0.000 C 
ENDBRANCH   9  11
ENDBRANCH   4   9
BRANCH   6  17
ATOM     17  O   UNL     1       1.887   6.331  18.695  0.00  0.00    +0.000 OA
BRANCH  17  18
ATOM     18  C   UNL     1       1.966   6.663  20.038  0.00  0.00    +0.000 C 
ATOM     19  O   UNL     1       2.428   5.975  20.932  0.00  0.00    +0.000 OA
BRANCH  18  20
ATOM     20  C   UNL     1       1.465   8.049  20.252  0.00  0.00    +0.000 A 
ATOM     21  C   UNL     1       1.440   8.910  19.143  0.00  0.00    +0.000 A 
ATOM     22  C   UNL     1       0.956  10.216  19.264  0.00  0.00    +0.000 A 
ATOM     23  C   UNL     1       0.492  10.675  20.496  0.00  0.00    +0.000 A 
ATOM     24  C   UNL     1       0.510   9.817  21.604  0.00  0.00    +0.000 A 
ATOM     25  C   UNL     1       0.991   8.503  21.489  0.00  0.00    +0.000 A 
BRANCH  24  26
ATOM     26  N   UNL     1       0.021  10.300  22.901  0.00  0.00    +0.000 N 
ATOM     27  O   UNL     1      -0.530  11.410  22.934  0.00  0.00    +0.000 OA
ATOM     28  O   UNL     1       0.195   9.571  23.888  0.00  0.00    +0.000 OA
ENDBRANCH  24  26
ENDBRANCH  18  20
ENDBRANCH  17  18
ENDBRANCH   6  17
TORSDOF 7
ENDMDL
MODEL 2
REMARK VINA RESULT:      -7.4      0.881      1.084
REMARK  Name = 
REMARK  8 active torsions:
REMARK  status: ('A' for Active; 'I' for Inactive)
REMARK    1  A    between atoms: C_1  and  O_2
REMARK    2  A    between atoms: O_2  and  C_3
REMARK    3  A    between atoms: C_6  and  C_7
REMARK    4  A    between atoms: C_7  and  N_9
REMARK    5  A    between atoms: C_16  and  O_17
REMARK    6  A    between atoms: O_17  and  C_18
REMARK    7  A    between atoms: C_18  and  C_20
REMARK    8  A    between atoms: C_24  and  N_25
REMARK                            x       y       z     vdW  Elec       q    Type
REMARK                         _______ _______ _______ _____ _____    ______ ____
ROOT
ATOM      1  C   UNL     1       2.320   3.258  18.397  0.00  0.00    +0.000 A 
ATOM      2  C   UNL     1       3.190   2.315  17.838  0.00  0.00    +0.000 A 
ATOM      3  C   UNL     1       4.349   2.708  17.162  0.00  0.00    +0.000 A 
ATOM      4  C   UNL     1       4.695   4.058  17.073  0.00  0.00    +0.000 A 
ATOM      5  C   UNL     1       3.824   5.008  17.614  0.00  0.00    +0.000 A 
ATOM      6  C   UNL     1       2.645   4.614  18.275  0.00  0.00    +0.000 A 
ENDROOT
BRANCH   1   8
ATOM      7  C   UNL     1       1.165   2.593  20.392  0.00  0.00    +0.000 C 
ATOM      8  O   UNL     1       1.234   2.674  18.980  0.00  0.00    +0.000 OA
ENDBRANCH   1   8
BRANCH   4   9
ATOM      9  C   UNL     1       5.926   4.465  16.313  0.00  0.00    +0.000 C 
ATOM     10  S   UNL     1       6.178   3.963  14.716  0.00  0.00    +0.000 S 
BRANCH   9  11
ATOM     11  N   UNL     1       6.863   5.255  16.989  0.00  0.00    +0.000 N 
ATOM     12  C   UNL     1       7.688   4.775  18.112  0.00  0.00    +0.000 C 
ATOM     13  C   UNL     1       7.837   5.861  19.186  0.00  0.00    +0.000 C 
ATOM     14  O   UNL     1       8.322   7.092  18.625  0.00  0.00    +0.000 OA
ATOM     15  C   UNL     1       7.413   7.580  17.625  0.00  0.00    +0.000 C 
ATOM     16  C   UNL     1       7.273   6.575  16.484  0.00  0.00    +0.000 C 
ENDBRANCH   9  11
ENDBRANCH   4   9
BRANCH   6  17
ATOM     17  O   UNL     1       1.735   5.620  18.650  0.00  0.00    +0.000 OA
BRANCH  17  18
ATOM     18  C   UNL     1       2.021   6.348  19.794  0.00  0.00    +0.000 C 
ATOM     19  O   UNL     1       2.471   5.914  20.839  0.00  0.00    +0.000 OA
BRANCH  18  20
ATOM     20  C   UNL     1       1.766   7.796  19.553  0.00  0.00    +0.000 A 
ATOM     21  C   UNL     1       2.077   8.310  18.284  0.00  0.00    +0.000 A 
ATOM     22  C   UNL     1       1.839   9.653  17.980  0.00  0.00    +0.000 A 
ATOM     23  C   UNL     1       1.287  10.497  18.942  0.00  0.00    +0.000 A 
ATOM     24  C   UNL     1       0.969   9.987  20.208  0.00  0.00    +0.000 A 
ATOM     25  C   UNL     1       1.202   8.638  20.520  0.00  0.00    +0.000 A 
BRANCH  24  26
ATOM     26  N   UNL     1       0.388  10.877  21.221  0.00  0.00    +0.000 N 
ATOM     27  O   UNL     1      -0.649  10.505  21.789  0.00  0.00    +0.000 OA
ATOM     28  O   UNL     1       0.968  11.949  21.444  0.00  0.00    +0.000 OA
ENDBRANCH  24  26
ENDBRANCH  18  20
ENDBRANCH  17  18
ENDBRANCH   6  17
TORSDOF 7
ENDMDL
MODEL 3
REMARK VINA RESULT:      -7.3      0.872      1.129
REMARK  Name = 
REMARK  8 active torsions:
REMARK  status: ('A' for Active; 'I' for Inactive)
REMARK    1  A    between atoms: C_1  and  O_2
REMARK    2  A    between atoms: O_2  and  C_3
REMARK    3  A    between atoms: C_6  and  C_7
REMARK    4  A    between atoms: C_7  and  N_9
REMARK    5  A    between atoms: C_16  and  O_17
REMARK    6  A    between atoms: O_17  and  C_18
REMARK    7  A    between atoms: C_18  and  C_20
REMARK    8  A    between atoms: C_24  and  N_25
REMARK                            x       y       z     vdW  Elec       q    Type
REMARK                         _______ _______ _______ _____ _____    ______ ____
ROOT
ATOM      1  C   UNL     1       1.969   4.462  19.106  0.00  0.00    +0.000 A 
ATOM      2  C   UNL     1       2.486   3.412  18.340  0.00  0.00    +0.000 A 
ATOM      3  C   UNL     1       3.622   3.584  17.544  0.00  0.00    +0.000 A 
ATOM      4  C   UNL     1       4.304   4.804  17.535  0.00  0.00    +0.000 A 
ATOM      5  C   UNL     1       3.785   5.864  18.285  0.00  0.00    +0.000 A 
ATOM      6  C   UNL     1       2.628   5.696  19.069  0.00  0.00    +0.000 A 
ENDROOT
BRANCH   1   8
ATOM      7  C   UNL     1       0.923   3.107  20.787  0.00  0.00    +0.000 C 
ATOM      8  O   UNL     1       0.840   4.100  19.781  0.00  0.00    +0.000 OA
ENDBRANCH   1   8
BRANCH   4   9
ATOM      9  C   UNL     1       5.503   4.983  16.649  0.00  0.00    +0.000 C 
ATOM     10  S   UNL     1       5.511   4.409  15.056  0.00  0.00    +0.000 S 
BRANCH   9  11
ATOM     11  N   UNL     1       6.619   5.621  17.203  0.00  0.00    +0.000 N 
ATOM     12  C   UNL     1       7.528   4.993  18.178  0.00  0.00    +0.000 C 
ATOM     13  C   UNL     1       7.963   6.002  19.250  0.00  0.00    +0.000 C 
ATOM     14  O   UNL     1       8.515   7.189  18.660  0.00  0.00    +0.000 OA
ATOM     15  C   UNL     1       7.543   7.830  17.818  0.00  0.00    +0.000 C 
ATOM     16  C   UNL     1       7.117   6.903  16.682  0.00  0.00    +0.000 C 
ENDBRANCH   9  11
ENDBRANCH   4   9
BRANCH   6  17
ATOM     17  O   UNL     1       2.069   6.841  19.665  0.00  0.00    +0.000 OA
BRANCH  17  18
ATOM     18  C   UNL     1       2.065   8.013  18.925  0.00  0.00    +0.000 C 
ATOM     19  O   UNL     1       2.656   8.215  17.879  0.00  0.00    +0.000 OA
BRANCH  18  20
ATOM     20  C   UNL     1       1.154   9.010  19.553  0.00  0.00    +0.000 A 
ATOM     21  C   UNL     1       0.438   9.866  18.701  0.00  0.00    +0.000 A 
ATOM     22  C   UNL     1      -0.455  10.808  19.219  0.00  0.00    +0.000 A 
ATOM     23  C   UNL     1      -0.641  10.904  20.597  0.00  0.00    +0.000 A 
ATOM     24  C   UNL     1       0.066  10.048  21.452  0.00  0.00    +0.000 A 
ATOM     25  C   UNL     1       0.962   9.097  20.938  0.00  0.00    +0.000 A 
BRANCH  24  26
ATOM     26  N   UNL     1      -0.130  10.149  22.904  0.00  0.00    +0.000 N 
ATOM     27  O   UNL     1      -1.109  10.790  23.310  0.00  0.00    +0.000 OA
ATOM     28  O   UNL     1       0.699   9.591  23.635  0.00  0.00    +0.000 OA
ENDBRANCH  24  26
ENDBRANCH  18  20
ENDBRANCH  17  18
ENDBRANCH   6  17
TORSDOF 7
ENDMDL
MODEL 4
REMARK VINA RESULT:      -7.2      3.550      5.630
REMARK  Name = 
REMARK  8 active torsions:
REMARK  status: ('A' for Active; 'I' for Inactive)
REMARK    1  A    between atoms: C_1  and  O_2
REMARK    2  A    between atoms: O_2  and  C_3
REMARK    3  A    between atoms: C_6  and  C_7
REMARK    4  A    between atoms: C_7  and  N_9
REMARK    5  A    between atoms: C_16  and  O_17
REMARK    6  A    between atoms: O_17  and  C_18
REMARK    7  A    between atoms: C_18  and  C_20
REMARK    8  A    between atoms: C_24  and  N_25
REMARK                            x       y       z     vdW  Elec       q    Type
REMARK                         _______ _______ _______ _____ _____    ______ ____
ROOT
ATOM      1  C   UNL     1       1.086   9.808  19.049  0.00  0.00    +0.000 A 
ATOM      2  C   UNL     1       1.497   9.131  17.896  0.00  0.00    +0.000 A 
ATOM      3  C   UNL     1       2.116   7.880  17.970  0.00  0.00    +0.000 A 
ATOM      4  C   UNL     1       2.292   7.248  19.203  0.00  0.00    +0.000 A 
ATOM      5  C   UNL     1       1.900   7.924  20.362  0.00  0.00    +0.000 A 
ATOM      6  C   UNL     1       1.297   9.194  20.289  0.00  0.00    +0.000 A 
ENDROOT
BRANCH   1   8
ATOM      7  C   UNL     1      -0.842  11.110  18.462  0.00  0.00    +0.000 C 
ATOM      8  O   UNL     1       0.539  11.025  18.764  0.00  0.00    +0.000 OA
ENDBRANCH   1   8
BRANCH   4   9
ATOM      9  C   UNL     1       2.989   5.919  19.268  0.00  0.00    +0.000 C 
ATOM     10  S   UNL     1       4.567   5.725  18.686  0.00  0.00    +0.000 S 
BRANCH   9  11
ATOM     11  N   UNL     1       2.271   4.845  19.807  0.00  0.00    +0.000 N 
ATOM     12  C   UNL     1       2.160   4.570  21.250  0.00  0.00    +0.000 C 
ATOM     13  C   UNL     1       2.223   3.061  21.526  0.00  0.00    +0.000 C 
ATOM     14  O   UNL     1       1.254   2.343  20.746  0.00  0.00    +0.000 OA
ATOM     15  C   UNL     1       1.489   2.546  19.343  0.00  0.00    +0.000 C 
ATOM     16  C   UNL     1       1.369   4.025  18.984  0.00  0.00    +0.000 C 
ENDBRANCH   9  11
ENDBRANCH   4   9
BRANCH   6  17
ATOM     17  O   UNL     1       1.078   9.886  21.494  0.00  0.00    +0.000 OA
BRANCH  17  18
ATOM     18  C   UNL     1      -0.173   9.769  22.082  0.00  0.00    +0.000 C 
ATOM     19  O   UNL     1      -0.746   8.735  22.373  0.00  0.00    +0.000 OA
BRANCH  18  20
ATOM     20  C   UNL     1      -0.719  11.120  22.392  0.00  0.00    +0.000 A 
ATOM     21  C   UNL     1      -0.006  12.234  21.920  0.00  0.00    +0.000 A 
ATOM     22  C   UNL     1      -0.474  13.531  22.150  0.00  0.00    +0.000 A 
ATOM     23  C   UNL     1      -1.661  13.728  22.855  0.00  0.00    +0.000 A 
ATOM     24  C   UNL     1      -2.378  12.618  23.322  0.00  0.00    +0.000 A 
ATOM     25  C   UNL     1      -1.916  11.313  23.092  0.00  0.00    +0.000 A 
BRANCH  24  26
ATOM     26  N   UNL     1      -3.628  12.825  24.065  0.00  0.00    +0.000 N 
ATOM     27  O   UNL     1      -4.227  11.822  24.479  0.00  0.00    +0.000 OA
ATOM     28  O   UNL     1      -4.011  13.992  24.229  0.00  0.00    +0.000 OA
ENDBRANCH  24  26
ENDBRANCH  18  20
ENDBRANCH  17  18
ENDBRANCH   6  17
TORSDOF 7
ENDMDL
MODEL 5
REMARK VINA RESULT:      -7.2      4.091      7.206
REMARK  Name = 
REMARK  8 active torsions:
REMARK  status: ('A' for Active; 'I' for Inactive)
REMARK    1  A    between atoms: C_1  and  O_2
REMARK    2  A    between atoms: O_2  and  C_3
REMARK    3  A    between atoms: C_6  and  C_7
REMARK    4  A    between atoms: C_7  and  N_9
REMARK    5  A    between atoms: C_16  and  O_17
REMARK    6  A    between atoms: O_17  and  C_18
REMARK    7  A    between atoms: C_18  and  C_20
REMARK    8  A    between atoms: C_24  and  N_25
REMARK                            x       y       z     vdW  Elec       q    Type
REMARK                         _______ _______ _______ _____ _____    ______ ____
ROOT
ATOM      1  C   UNL     1       6.504   5.638  16.003  0.00  0.00    +0.000 A 
ATOM      2  C   UNL     1       5.548   4.625  16.138  0.00  0.00    +0.000 A 
ATOM      3  C   UNL     1       4.474   4.753  17.022  0.00  0.00    +0.000 A 
ATOM      4  C   UNL     1       4.299   5.927  17.760  0.00  0.00    +0.000 A 
ATOM      5  C   UNL     1       5.257   6.937  17.645  0.00  0.00    +0.000 A 
ATOM      6  C   UNL     1       6.353   6.799  16.771  0.00  0.00    +0.000 A 
ENDROOT
BRANCH   1   8
ATOM      7  C   UNL     1       7.131   4.789  13.849  0.00  0.00    +0.000 C 
ATOM      8  O   UNL     1       7.488   5.304  15.119  0.00  0.00    +0.000 OA
ENDBRANCH   1   8
BRANCH   4   9
ATOM      9  C   UNL     1       3.158   6.035  18.731  0.00  0.00    +0.000 C 
ATOM     10  S   UNL     1       2.361   7.506  18.989  0.00  0.00    +0.000 S 
BRANCH   9  11
ATOM     11  N   UNL     1       2.799   4.876  19.429  0.00  0.00    +0.000 N 
ATOM     12  C   UNL     1       3.759   3.850  19.872  0.00  0.00    +0.000 C 
ATOM     13  C   UNL     1       3.173   2.441  19.701  0.00  0.00    +0.000 C 
ATOM     14  O   UNL     1       1.895   2.322  20.345  0.00  0.00    +0.000 OA
ATOM     15  C   UNL     1       0.961   3.260  19.786  0.00  0.00    +0.000 C 
ATOM     16  C   UNL     1       1.449   4.693  19.986  0.00  0.00    +0.000 C 
ENDBRANCH   9  11
ENDBRANCH   4   9
BRANCH   6  17
ATOM     17  O   UNL     1       7.362   7.776  16.825  0.00  0.00    +0.000 OA
BRANCH  17  18
ATOM     18  C   UNL     1       8.017   7.956  18.033  0.00  0.00    +0.000 C 
ATOM     19  O   UNL     1       8.295   7.092  18.846  0.00  0.00    +0.000 OA
BRANCH  18  20
ATOM     20  C   UNL     1       8.419   9.382  18.189  0.00  0.00    +0.000 A 
ATOM     21  C   UNL     1       7.780  10.331  17.375  0.00  0.00    +0.000 A 
ATOM     22  C   UNL     1       8.088  11.690  17.486  0.00  0.00    +0.000 A 
ATOM     23  C   UNL     1       9.038  12.114  18.413  0.00  0.00    +0.000 A 
ATOM     24  C   UNL     1       9.674  11.171  19.232  0.00  0.00    +0.000 A 
ATOM     25  C   UNL     1       9.368   9.805  19.128  0.00  0.00    +0.000 A 
BRANCH  24  26
ATOM     26  N   UNL     1      10.676  11.619  20.208  0.00  0.00    +0.000 N 
ATOM     27  O   UNL     1      11.870  11.542  19.887  0.00  0.00    +0.000 OA
ATOM     28  O   UNL     1      10.265  12.042  21.298  0.00  0.00    +0.000 OA
ENDBRANCH  24  26
ENDBRANCH  18  20
ENDBRANCH  17  18
ENDBRANCH   6  17
TORSDOF 7
ENDMDL
MODEL 6
REMARK VINA RESULT:      -7.2      2.145      6.790
REMARK  Name = 
REMARK  8 active torsions:
REMARK  status: ('A' for Active; 'I' for Inactive)
REMARK    1  A    between atoms: C_1  and  O_2
REMARK    2  A    between atoms: O_2  and  C_3
REMARK    3  A    between atoms: C_6  and  C_7
REMARK    4  A    between atoms: C_7  and  N_9
REMARK    5  A    between atoms: C_16  and  O_17
REMARK    6  A    between atoms: O_17  and  C_18
REMARK    7  A    between atoms: C_18  and  C_20
REMARK    8  A    between atoms: C_24  and  N_25
REMARK                            x       y       z     vdW  Elec       q    Type
REMARK                         _______ _______ _______ _____ _____    ______ ____
ROOT
ATOM      1  C   UNL     1       1.810   4.006  19.951  0.00  0.00    +0.000 A 
ATOM      2  C   UNL     1       1.627   5.035  20.881  0.00  0.00    +0.000 A 
ATOM      3  C   UNL     1       1.708   6.378  20.504  0.00  0.00    +0.000 A 
ATOM      4  C   UNL     1       1.924   6.728  19.169  0.00  0.00    +0.000 A 
ATOM      5  C   UNL     1       2.125   5.707  18.235  0.00  0.00    +0.000 A 
ATOM      6  C   UNL     1       2.066   4.353  18.620  0.00  0.00    +0.000 A 
ENDROOT
BRANCH   1   8
ATOM      7  C   UNL     1       2.669   2.405  21.518  0.00  0.00    +0.000 C 
ATOM      8  O   UNL     1       1.727   2.771  20.526  0.00  0.00    +0.000 OA
ENDBRANCH   1   8
BRANCH   4   9
ATOM      9  C   UNL     1       2.043   8.175  18.785  0.00  0.00    +0.000 C 
ATOM     10  S   UNL     1       3.115   8.679  17.576  0.00  0.00    +0.000 S 
BRANCH   9  11
ATOM     11  N   UNL     1       1.248   9.090  19.486  0.00  0.00    +0.000 N 
ATOM     12  C   UNL     1       1.264   9.242  20.951  0.00  0.00    +0.000 C 
ATOM     13  C   UNL     1      -0.153   9.481  21.493  0.00  0.00    +0.000 C 
ATOM     14  O   UNL     1      -0.792  10.581  20.825  0.00  0.00    +0.000 OA
ATOM     15  C   UNL     1      -0.895  10.322  19.416  0.00  0.00    +0.000 C 
ATOM     16  C   UNL     1       0.489  10.145  18.796  0.00  0.00    +0.000 C 
ENDBRANCH   9  11
ENDBRANCH   4   9
BRANCH   6  17
ATOM     17  O   UNL     1       2.438   3.385  17.670  0.00  0.00    +0.000 OA
BRANCH  17  18
ATOM     18  C   UNL     1       3.677   2.782  17.820  0.00  0.00    +0.000 C 
ATOM     19  O   UNL     1       3.891   1.623  18.128  0.00  0.00    +0.000 OA
BRANCH  18  20
ATOM     20  C   UNL     1       4.758   3.747  17.474  0.00  0.00    +0.000 A 
ATOM     21  C   UNL     1       4.908   4.099  16.123  0.00  0.00    +0.000 A 
ATOM     22  C   UNL     1       5.884   5.019  15.729  0.00  0.00    +0.000 A 
ATOM     23  C   UNL     1       6.720   5.598  16.682  0.00  0.00    +0.000 A 
ATOM     24  C   UNL     1       6.570   5.254  18.033  0.00  0.00    +0.000 A 
ATOM     25  C   UNL     1       5.590   4.333  18.437  0.00  0.00    +0.000 A 
BRANCH  24  26
ATOM     26  N   UNL     1       7.451   5.863  19.037  0.00  0.00    +0.000 N 
ATOM     27  O   UNL     1       8.123   6.846  18.695  0.00  0.00    +0.000 OA
ATOM     28  O   UNL     1       7.474   5.352  20.165  0.00  0.00    +0.000 OA
ENDBRANCH  24  26
ENDBRANCH  18  20
ENDBRANCH  17  18
ENDBRANCH   6  17
TORSDOF 7
ENDMDL
MODEL 7
REMARK VINA RESULT:      -7.1      2.842      4.557
REMARK  Name = 
REMARK  8 active torsions:
REMARK  status: ('A' for Active; 'I' for Inactive)
REMARK    1  A    between atoms: C_1  and  O_2
REMARK    2  A    between atoms: O_2  and  C_3
REMARK    3  A    between atoms: C_6  and  C_7
REMARK    4  A    between atoms: C_7  and  N_9
REMARK    5  A    between atoms: C_16  and  O_17
REMARK    6  A    between atoms: O_17  and  C_18
REMARK    7  A    between atoms: C_18  and  C_20
REMARK    8  A    between atoms: C_24  and  N_25
REMARK                            x       y       z     vdW  Elec       q    Type
REMARK                         _______ _______ _______ _____ _____    ______ ____
ROOT
ATOM      1  C   UNL     1       1.441   9.027  19.039  0.00  0.00    +0.000 A 
ATOM      2  C   UNL     1       1.918   8.236  17.988  0.00  0.00    +0.000 A 
ATOM      3  C   UNL     1       2.434   6.958  18.218  0.00  0.00    +0.000 A 
ATOM      4  C   UNL     1       2.438   6.415  19.506  0.00  0.00    +0.000 A 
ATOM      5  C   UNL     1       1.980   7.204  20.564  0.00  0.00    +0.000 A 
ATOM      6  C   UNL     1       1.481   8.501  20.336  0.00  0.00    +0.000 A 
ENDROOT
BRANCH   1   8
ATOM      7  C   UNL     1      -0.340  10.419  18.237  0.00  0.00    +0.000 C 
ATOM      8  O   UNL     1       1.015  10.250  18.611  0.00  0.00    +0.000 OA
ENDBRANCH   1   8
BRANCH   4   9
ATOM      9  C   UNL     1       3.027   5.053  19.740  0.00  0.00    +0.000 C 
ATOM     10  S   UNL     1       2.368   3.997  20.887  0.00  0.00    +0.000 S 
BRANCH   9  11
ATOM     11  N   UNL     1       4.156   4.706  18.989  0.00  0.00    +0.000 N 
ATOM     12  C   UNL     1       5.514   5.207  19.263  0.00  0.00    +0.000 C 
ATOM     13  C   UNL     1       6.263   5.504  17.956  0.00  0.00    +0.000 C 
ATOM     14  O   UNL     1       6.255   4.368  17.077  0.00  0.00    +0.000 OA
ATOM     15  C   UNL     1       4.907   4.001  16.741  0.00  0.00    +0.000 C 
ATOM     16  C   UNL     1       4.122   3.622  17.995  0.00  0.00    +0.000 C 
ENDBRANCH   9  11
ENDBRANCH   4   9
BRANCH   6  17
ATOM     17  O   UNL     1       1.191   9.299  21.457  0.00  0.00    +0.000 OA
BRANCH  17  18
ATOM     18  C   UNL     1      -0.124   9.335  21.896  0.00  0.00    +0.000 C 
ATOM     19  O   UNL     1      -0.853   8.378  22.091  0.00  0.00    +0.000 OA
BRANCH  18  20
ATOM     20  C   UNL     1      -0.529  10.740  22.179  0.00  0.00    +0.000 A 
ATOM     21  C   UNL     1       0.223  11.767  21.586  0.00  0.00    +0.000 A 
ATOM     22  C   UNL     1      -0.116  13.107  21.787  0.00  0.00    +0.000 A 
ATOM     23  C   UNL     1      -1.212  13.436  22.583  0.00  0.00    +0.000 A 
ATOM     24  C   UNL     1      -1.970  12.414  23.172  0.00  0.00    +0.000 A 
ATOM     25  C   UNL     1      -1.637  11.065  22.972  0.00  0.00    +0.000 A 
BRANCH  24  26
ATOM     26  N   UNL     1      -3.124  12.761  24.011  0.00  0.00    +0.000 N 
ATOM     27  O   UNL     1      -3.988  11.891  24.192  0.00  0.00    +0.000 OA
ATOM     28  O   UNL     1      -3.167  13.906  24.482  0.00  0.00    +0.000 OA
ENDBRANCH  24  26
ENDBRANCH  18  20
ENDBRANCH  17  18
ENDBRANCH   6  17
TORSDOF 7
ENDMDL
MODEL 8
REMARK VINA RESULT:      -7.1      1.586      1.931
REMARK  Name = 
REMARK  8 active torsions:
REMARK  status: ('A' for Active; 'I' for Inactive)
REMARK    1  A    between atoms: C_1  and  O_2
REMARK    2  A    between atoms: O_2  and  C_3
REMARK    3  A    between atoms: C_6  and  C_7
REMARK    4  A    between atoms: C_7  and  N_9
REMARK    5  A    between atoms: C_16  and  O_17
REMARK    6  A    between atoms: O_17  and  C_18
REMARK    7  A    between atoms: C_18  and  C_20
REMARK    8  A    between atoms: C_24  and  N_25
REMARK                            x       y       z     vdW  Elec       q    Type
REMARK                         _______ _______ _______ _____ _____    ______ ____
ROOT
ATOM      1  C   UNL     1       2.055   4.101  17.955  0.00  0.00    +0.000 A 
ATOM      2  C   UNL     1       2.735   3.093  17.262  0.00  0.00    +0.000 A 
ATOM      3  C   UNL     1       3.994   3.320  16.700  0.00  0.00    +0.000 A 
ATOM      4  C   UNL     1       4.632   4.552  16.864  0.00  0.00    +0.000 A 
ATOM      5  C   UNL     1       3.954   5.571  17.541  0.00  0.00    +0.000 A 
ATOM      6  C   UNL     1       2.675   5.349  18.087  0.00  0.00    +0.000 A 
ENDROOT
BRANCH   1   8
ATOM      7  C   UNL     1       0.745   2.591  19.280  0.00  0.00    +0.000 C 
ATOM      8  O   UNL     1       0.830   3.690  18.392  0.00  0.00    +0.000 OA
ENDBRANCH   1   8
BRANCH   4   9
ATOM      9  C   UNL     1       5.971   4.791  16.226  0.00  0.00    +0.000 C 
ATOM     10  S   UNL     1       6.316   4.221  14.669  0.00  0.00    +0.000 S 
BRANCH   9  11
ATOM     11  N   UNL     1       6.927   5.481  16.981  0.00  0.00    +0.000 N 
ATOM     12  C   UNL     1       7.701   4.877  18.080  0.00  0.00    +0.000 C 
ATOM     13  C   UNL     1       7.873   5.869  19.238  0.00  0.00    +0.000 C 
ATOM     14  O   UNL     1       8.426   7.115  18.786  0.00  0.00    +0.000 OA
ATOM     15  C   UNL     1       7.565   7.722  17.808  0.00  0.00    +0.000 C 
ATOM     16  C   UNL     1       7.408   6.815  16.590  0.00  0.00    +0.000 C 
ENDBRANCH   9  11
ENDBRANCH   4   9
BRANCH   6  17
ATOM     17  O   UNL     1       1.984   6.457  18.608  0.00  0.00    +0.000 OA
BRANCH  17  18
ATOM     18  C   UNL     1       2.013   6.642  19.982  0.00  0.00    +0.000 C 
ATOM     19  O   UNL     1       2.419   5.851  20.815  0.00  0.00    +0.000 OA
BRANCH  18  20
ATOM     20  C   UNL     1       1.534   8.011  20.322  0.00  0.00    +0.000 A 
ATOM     21  C   UNL     1       1.180   8.264  21.657  0.00  0.00    +0.000 A 
ATOM     22  C   UNL     1       0.748   9.533  22.054  0.00  0.00    +0.000 A 
ATOM     23  C   UNL     1       0.666  10.563  21.119  0.00  0.00    +0.000 A 
ATOM     24  C   UNL     1       1.024  10.317  19.786  0.00  0.00    +0.000 A 
ATOM     25  C   UNL     1       1.461   9.046  19.381  0.00  0.00    +0.000 A 
BRANCH  24  26
ATOM     26  N   UNL     1       0.937  11.403  18.801  0.00  0.00    +0.000 N 
ATOM     27  O   UNL     1      -0.191  11.808  18.487  0.00  0.00    +0.000 OA
ATOM     28  O   UNL     1       1.998  11.844  18.339  0.00  0.00    +0.000 OA
ENDBRANCH  24  26
ENDBRANCH  18  20
ENDBRANCH  17  18
ENDBRANCH   6  17
TORSDOF 7
ENDMDL
MODEL 9
REMARK VINA RESULT:      -7.0      1.341      1.838
REMARK  Name = 
REMARK  8 active torsions:
REMARK  status: ('A' for Active; 'I' for Inactive)
REMARK    1  A    between atoms: C_1  and  O_2
REMARK    2  A    between atoms: O_2  and  C_3
REMARK    3  A    between atoms: C_6  and  C_7
REMARK    4  A    between atoms: C_7  and  N_9
REMARK    5  A    between atoms: C_16  and  O_17
REMARK    6  A    between atoms: O_17  and  C_18
REMARK    7  A    between atoms: C_18  and  C_20
REMARK    8  A    between atoms: C_24  and  N_25
REMARK                            x       y       z     vdW  Elec       q    Type
REMARK                         _______ _______ _______ _____ _____    ______ ____
ROOT
ATOM      1  C   UNL     1       1.999   4.159  18.710  0.00  0.00    +0.000 A 
ATOM      2  C   UNL     1       2.469   3.218  17.788  0.00  0.00    +0.000 A 
ATOM      3  C   UNL     1       3.639   3.440  17.056  0.00  0.00    +0.000 A 
ATOM      4  C   UNL     1       4.401   4.592  17.268  0.00  0.00    +0.000 A 
ATOM      5  C   UNL     1       3.931   5.546  18.176  0.00  0.00    +0.000 A 
ATOM      6  C   UNL     1       2.740   5.332  18.896  0.00  0.00    +0.000 A 
ENDROOT
BRANCH   1   8
ATOM      7  C   UNL     1       0.863   3.067  20.518  0.00  0.00    +0.000 C 
ATOM      8  O   UNL     1       0.827   3.770  19.290  0.00  0.00    +0.000 OA
ENDBRANCH   1   8
BRANCH   4   9
ATOM      9  C   UNL     1       5.637   4.831  16.449  0.00  0.00    +0.000 C 
ATOM     10  S   UNL     1       5.753   4.282  14.852  0.00  0.00    +0.000 S 
BRANCH   9  11
ATOM     11  N   UNL     1       6.696   5.504  17.070  0.00  0.00    +0.000 N 
ATOM     12  C   UNL     1       7.582   4.895  18.078  0.00  0.00    +0.000 C 
ATOM     13  C   UNL     1       7.920   5.899  19.189  0.00  0.00    +0.000 C 
ATOM     14  O   UNL     1       8.449   7.120  18.649  0.00  0.00    +0.000 OA
ATOM     15  C   UNL     1       7.492   7.737  17.772  0.00  0.00    +0.000 C 
ATOM     16  C   UNL     1       7.163   6.817  16.599  0.00  0.00    +0.000 C 
ENDBRANCH   9  11
ENDBRANCH   4   9
BRANCH   6  17
ATOM     17  O   UNL     1       2.240   6.398  19.666  0.00  0.00    +0.000 OA
BRANCH  17  18
ATOM     18  C   UNL     1       2.124   7.635  19.051  0.00  0.00    +0.000 C 
ATOM     19  O   UNL     1       2.479   7.922  17.921  0.00  0.00    +0.000 OA
BRANCH  18  20
ATOM     20  C   UNL     1       1.418   8.588  19.952  0.00  0.00    +0.000 A 
ATOM     21  C   UNL     1       1.340   8.261  21.315  0.00  0.00    +0.000 A 
ATOM     22  C   UNL     1       0.716   9.122  22.222  0.00  0.00    +0.000 A 
ATOM     23  C   UNL     1       0.163  10.320  21.775  0.00  0.00    +0.000 A 
ATOM     24  C   UNL     1       0.243  10.654  20.416  0.00  0.00    +0.000 A 
ATOM     25  C   UNL     1       0.871   9.796  19.500  0.00  0.00    +0.000 A 
BRANCH  24  26
ATOM     26  N   UNL     1      -0.340  11.917  19.946  0.00  0.00    +0.000 N 
ATOM     27  O   UNL     1      -0.184  12.924  20.651  0.00  0.00    +0.000 OA
ATOM     28  O   UNL     1      -0.960  11.898  18.873  0.00  0.00    +0.000 OA
ENDBRANCH  24  26
ENDBRANCH  18  20
ENDBRANCH  17  18
ENDBRANCH   6  17
TORSDOF 7
ENDMDL
