MODEL 1
REMARK VINA RESULT:      -8.0      0.000      0.000
REMARK  Name = 
REMARK  17 active torsions:
REMARK  status: ('A' for Active; 'I' for Inactive)
REMARK    1  A    between atoms: C_1  and  C_2
REMARK    2  A    between atoms: C_2  and  C_3
REMARK    3  A    between atoms: C_2  and  C_4
REMARK    4  A    between atoms: C_8  and  C_9
REMARK    5  A    between atoms: C_9  and  C_10
REMARK    6  A    between atoms: C_9  and  C_11
REMARK    7  A    between atoms: C_12  and  N_13
REMARK    8  A    between atoms: N_16  and  C_17
REMARK    9  A    between atoms: C_17  and  C_18
REMARK   10  A    between atoms: C_18  and  N_19
REMARK   11  A    between atoms: C_18  and  C_28
REMARK   12  A    between atoms: C_20  and  C_22
REMARK   13  A    between atoms: C_22  and  C_23
REMARK   14  A    between atoms: C_23  and  C_24
REMARK   15  A    between atoms: C_24  and  C_25
REMARK   16  A    between atoms: C_25  and  C_26
REMARK   17  A    between atoms: C_26  and  N_27
REMARK                            x       y       z     vdW  Elec       q    Type
REMARK                         _______ _______ _______ _____ _____    ______ ____
ROOT
ATOM      1  C   UNL     1       2.151   7.559  19.790  0.00  0.00    +0.000 C 
ENDROOT
BRANCH   1   5
ATOM      2  N   UNL     1       0.946  10.447  17.812  0.00  0.00    +0.000 N 
ATOM      3  C   UNL     1       1.593   9.267  18.074  0.00  0.00    +0.000 C 
ATOM      4  O   UNL     1       2.372   8.810  17.240  0.00  0.00    +0.000 OA
ATOM      5  N   UNL     1       1.420   8.729  19.319  0.00  0.00    +0.000 N 
ATOM      6  H   UNL     1       1.516  11.021  17.204  0.00  0.00    +0.000 HD
ATOM      7  H   UNL     1       0.695   9.106  19.911  0.00  0.00    +0.000 HD
BRANCH   2  13
ATOM      8  C   UNL     1      -1.355  10.755  18.568  0.00  0.00    +0.000 A 
ATOM      9  C   UNL     1      -2.234  11.364  19.486  0.00  0.00    +0.000 A 
ATOM     10  C   UNL     1      -1.797  12.324  20.389  0.00  0.00    +0.000 A 
ATOM     11  C   UNL     1      -0.463  12.716  20.389  0.00  0.00    +0.000 A 
ATOM     12  C   UNL     1       0.478  12.110  19.537  0.00  0.00    +0.000 A 
ATOM     13  C   UNL     1       0.022  11.088  18.654  0.00  0.00    +0.000 A 
BRANCH   8  15
ATOM     14  C   UNL     1      -3.361   9.421  17.917  0.00  0.00    +0.000 C 
ATOM     15  C   UNL     1      -2.043  10.020  17.405  0.00  0.00    +0.000 C 
ATOM     16  C   UNL     1      -2.292  10.717  16.069  0.00  0.00    +0.000 C 
ENDBRANCH   8  15
BRANCH  12  17
ATOM     17  C   UNL     1       1.930  12.599  19.571  0.00  0.00    +0.000 C 
ATOM     18  C   UNL     1       2.220  13.469  18.341  0.00  0.00    +0.000 C 
ATOM     19  C   UNL     1       2.321  13.383  20.838  0.00  0.00    +0.000 C 
ENDBRANCH  12  17
ENDBRANCH   2  13
ENDBRANCH   1   5
BRANCH   1  20
ATOM     20  C   UNL     1       1.954   6.281  18.911  0.00  0.00    +0.000 C 
BRANCH  20  21
ATOM     21  C   UNL     1       1.823   4.950  19.664  0.00  0.00    +0.000 A 
ATOM     22  C   UNL     1       2.178   4.803  21.011  0.00  0.00    +0.000 A 
ATOM     23  C   UNL     1       1.958   3.625  21.722  0.00  0.00    +0.000 A 
ATOM     24  C   UNL     1       1.438   2.518  21.070  0.00  0.00    +0.000 A 
ATOM     25  C   UNL     1       1.133   2.605  19.714  0.00  0.00    +0.000 A 
ATOM     26  C   UNL     1       1.305   3.812  19.020  0.00  0.00    +0.000 A 
ENDBRANCH  20  21
BRANCH  20  27
ATOM     27  N   UNL     1       3.027   6.180  17.922  0.00  0.00    +0.000 N 
ATOM     28  C   UNL     1       4.316   5.846  18.259  0.00  0.00    +0.000 C 
ATOM     29  O   UNL     1       4.670   5.627  19.413  0.00  0.00    +0.000 OA
ATOM     30  H   UNL     1       2.775   6.264  16.943  0.00  0.00    +0.000 HD
BRANCH  28  31
ATOM     31  C   UNL     1       5.285   5.804  17.099  0.00  0.00    +0.000 C 
BRANCH  31  32
ATOM     32  C   UNL     1       6.062   7.113  16.959  0.00  0.00    +0.000 C 
BRANCH  32  33
ATOM     33  C   UNL     1       7.570   6.909  17.134  0.00  0.00    +0.000 C 
BRANCH  33  34
ATOM     34  C   UNL     1       7.959   6.891  18.611  0.00  0.00    +0.000 C 
BRANCH  34  35
ATOM     35  C   UNL     1       8.121   5.459  19.115  0.00  0.00    +0.000 C 
BRANCH  35  36
ATOM     36  N   UNL     1       8.102   5.439  20.573  0.00  0.00    +0.000 NA
ATOM     37  H   UNL     1       7.878   4.501  20.898  0.00  0.00    +0.000 HD
ATOM     38  H   UNL     1       7.354   6.044  20.908  0.00  0.00    +0.000 HD
ENDBRANCH  35  36
ENDBRANCH  34  35
ENDBRANCH  33  34
ENDBRANCH  32  33
ENDBRANCH  31  32
ENDBRANCH  28  31
ENDBRANCH  20  27
ENDBRANCH   1  20
TORSDOF 13
ENDMDL
MODEL 2
REMARK VINA RESULT:      -7.9      1.558      1.720
REMARK  Name = 
REMARK  17 active torsions:
REMARK  status: ('A' for Active; 'I' for Inactive)
REMARK    1  A    between atoms: C_1  and  C_2
REMARK    2  A    between atoms: C_2  and  C_3
REMARK    3  A    between atoms: C_2  and  C_4
REMARK    4  A    between atoms: C_8  and  C_9
REMARK    5  A    between atoms: C_9  and  C_10
REMARK    6  A    between atoms: C_9  and  C_11
REMARK    7  A    between atoms: C_12  and  N_13
REMARK    8  A    between atoms: N_16  and  C_17
REMARK    9  A    between atoms: C_17  and  C_18
REMARK   10  A    between atoms: C_18  and  N_19
REMARK   11  A    between atoms: C_18  and  C_28
REMARK   12  A    between atoms: C_20  and  C_22
REMARK   13  A    between atoms: C_22  and  C_23
REMARK   14  A    between atoms: C_23  and  C_24
REMARK   15  A    between atoms: C_24  and  C_25
REMARK   16  A    between atoms: C_25  and  C_26
REMARK   17  A    between atoms: C_26  and  N_27
REMARK                            x       y       z     vdW  Elec       q    Type
REMARK                         _______ _______ _______ _____ _____    ______ ____
ROOT
ATOM      1  C   UNL     1       2.273   7.696  19.989  0.00  0.00    +0.000 C 
ENDROOT
BRANCH   1   5
ATOM      2  N   UNL     1       0.865  10.255  17.713  0.00  0.00    +0.000 N 
ATOM      3  C   UNL     1       1.565   9.139  18.094  0.00  0.00    +0.000 C 
ATOM      4  O   UNL     1       2.315   8.594  17.286  0.00  0.00    +0.000 OA
ATOM      5  N   UNL     1       1.478   8.771  19.407  0.00  0.00    +0.000 N 
ATOM      6  H   UNL     1       1.382  10.755  17.002  0.00  0.00    +0.000 HD
ATOM      7  H   UNL     1       0.772   9.205  19.984  0.00  0.00    +0.000 HD
BRANCH   2  13
ATOM      8  C   UNL     1      -1.424  10.701  18.434  0.00  0.00    +0.000 A 
ATOM      9  C   UNL     1      -2.281  11.396  19.311  0.00  0.00    +0.000 A 
ATOM     10  C   UNL     1      -1.807  12.382  20.166  0.00  0.00    +0.000 A 
ATOM     11  C   UNL     1      -0.458  12.715  20.156  0.00  0.00    +0.000 A 
ATOM     12  C   UNL     1       0.460  12.025  19.344  0.00  0.00    +0.000 A 
ATOM     13  C   UNL     1      -0.034  10.978  18.512  0.00  0.00    +0.000 A 
BRANCH   8  15
ATOM     14  C   UNL     1      -3.470   9.400  17.846  0.00  0.00    +0.000 C 
ATOM     15  C   UNL     1      -2.137   9.937  17.305  0.00  0.00    +0.000 C 
ATOM     16  C   UNL     1      -2.369  10.581  15.940  0.00  0.00    +0.000 C 
ENDBRANCH   8  15
BRANCH  12  17
ATOM     17  C   UNL     1       1.933  12.452  19.365  0.00  0.00    +0.000 C 
ATOM     18  C   UNL     1       2.264  13.250  18.097  0.00  0.00    +0.000 C 
ATOM     19  C   UNL     1       2.352  13.276  20.596  0.00  0.00    +0.000 C 
ENDBRANCH  12  17
ENDBRANCH   2  13
ENDBRANCH   1   5
BRANCH   1  20
ATOM     20  C   UNL     1       2.690   6.582  18.973  0.00  0.00    +0.000 C 
BRANCH  20  21
ATOM     21  C   UNL     1       2.054   5.200  19.179  0.00  0.00    +0.000 A 
ATOM     22  C   UNL     1       1.682   4.718  20.440  0.00  0.00    +0.000 A 
ATOM     23  C   UNL     1       1.008   3.510  20.614  0.00  0.00    +0.000 A 
ATOM     24  C   UNL     1       0.753   2.704  19.516  0.00  0.00    +0.000 A 
ATOM     25  C   UNL     1       1.165   3.121  18.252  0.00  0.00    +0.000 A 
ATOM     26  C   UNL     1       1.793   4.362  18.079  0.00  0.00    +0.000 A 
ENDBRANCH  20  21
BRANCH  20  27
ATOM     27  N   UNL     1       4.145   6.451  18.939  0.00  0.00    +0.000 N 
ATOM     28  C   UNL     1       4.846   6.269  17.771  0.00  0.00    +0.000 C 
ATOM     29  O   UNL     1       4.306   6.183  16.673  0.00  0.00    +0.000 OA
ATOM     30  H   UNL     1       4.653   6.601  19.804  0.00  0.00    +0.000 HD
BRANCH  28  31
ATOM     31  C   UNL     1       6.343   6.143  17.942  0.00  0.00    +0.000 C 
BRANCH  31  32
ATOM     32  C   UNL     1       7.088   7.337  17.346  0.00  0.00    +0.000 C 
BRANCH  32  33
ATOM     33  C   UNL     1       8.122   7.914  18.316  0.00  0.00    +0.000 C 
BRANCH  33  34
ATOM     34  C   UNL     1       8.372   9.397  18.042  0.00  0.00    +0.000 C 
BRANCH  34  35
ATOM     35  C   UNL     1       9.203  10.024  19.159  0.00  0.00    +0.000 C 
BRANCH  35  36
ATOM     36  N   UNL     1       9.522  11.407  18.825  0.00  0.00    +0.000 NA
ATOM     37  H   UNL     1       8.690  11.873  18.469  0.00  0.00    +0.000 HD
ATOM     38  H   UNL     1      10.204  11.421  18.068  0.00  0.00    +0.000 HD
ENDBRANCH  35  36
ENDBRANCH  34  35
ENDBRANCH  33  34
ENDBRANCH  32  33
ENDBRANCH  31  32
ENDBRANCH  28  31
ENDBRANCH  20  27
ENDBRANCH   1  20
TORSDOF 13
ENDMDL
MODEL 3
REMARK VINA RESULT:      -7.8      1.769      2.449
REMARK  Name = 
REMARK  17 active torsions:
REMARK  status: ('A' for Active; 'I' for Inactive)
REMARK    1  A    between atoms: C_1  and  C_2
REMARK    2  A    between atoms: C_2  and  C_3
REMARK    3  A    between atoms: C_2  and  C_4
REMARK    4  A    between atoms: C_8  and  C_9
REMARK    5  A    between atoms: C_9  and  C_10
REMARK    6  A    between atoms: C_9  and  C_11
REMARK    7  A    between atoms: C_12  and  N_13
REMARK    8  A    between atoms: N_16  and  C_17
REMARK    9  A    between atoms: C_17  and  C_18
REMARK   10  A    between atoms: C_18  and  N_19
REMARK   11  A    between atoms: C_18  and  C_28
REMARK   12  A    between atoms: C_20  and  C_22
REMARK   13  A    between atoms: C_22  and  C_23
REMARK   14  A    between atoms: C_23  and  C_24
REMARK   15  A    between atoms: C_24  and  C_25
REMARK   16  A    between atoms: C_25  and  C_26
REMARK   17  A    between atoms: C_26  and  N_27
REMARK                            x       y       z     vdW  Elec       q    Type
REMARK                         _______ _______ _______ _____ _____    ______ ____
ROOT
ATOM      1  C   UNL     1       2.224   7.593  19.602  0.00  0.00    +0.000 C 
ENDROOT
BRANCH   1   5
ATOM      2  N   UNL     1       1.014  10.568  17.759  0.00  0.00    +0.000 N 
ATOM      3  C   UNL     1       1.656   9.374  17.965  0.00  0.00    +0.000 C 
ATOM      4  O   UNL     1       2.421   8.945  17.102  0.00  0.00    +0.000 OA
ATOM      5  N   UNL     1       1.496   8.787  19.188  0.00  0.00    +0.000 N 
ATOM      6  H   UNL     1       1.581  11.162  17.167  0.00  0.00    +0.000 HD
ATOM      7  H   UNL     1       0.781   9.144  19.805  0.00  0.00    +0.000 HD
BRANCH   2  13
ATOM      8  C   UNL     1      -1.266  10.821  18.593  0.00  0.00    +0.000 A 
ATOM      9  C   UNL     1      -2.126  11.402  19.546  0.00  0.00    +0.000 A 
ATOM     10  C   UNL     1      -1.678  12.359  20.447  0.00  0.00    +0.000 A 
ATOM     11  C   UNL     1      -0.353  12.777  20.408  0.00  0.00    +0.000 A 
ATOM     12  C   UNL     1       0.571  12.201  19.518  0.00  0.00    +0.000 A 
ATOM     13  C   UNL     1       0.107  11.180  18.638  0.00  0.00    +0.000 A 
BRANCH   8  15
ATOM     14  C   UNL     1      -3.260   9.447  17.994  0.00  0.00    +0.000 C 
ATOM     15  C   UNL     1      -1.977  10.087  17.444  0.00  0.00    +0.000 C 
ATOM     16  C   UNL     1      -2.290  10.797  16.129  0.00  0.00    +0.000 C 
ENDBRANCH   8  15
BRANCH  12  17
ATOM     17  C   UNL     1       2.014  12.718  19.512  0.00  0.00    +0.000 C 
ATOM     18  C   UNL     1       2.236  13.636  18.302  0.00  0.00    +0.000 C 
ATOM     19  C   UNL     1       2.441  13.466  20.788  0.00  0.00    +0.000 C 
ENDBRANCH  12  17
ENDBRANCH   2  13
ENDBRANCH   1   5
BRANCH   1  20
ATOM     20  C   UNL     1       2.148   6.409  18.584  0.00  0.00    +0.000 C 
BRANCH  20  21
ATOM     21  C   UNL     1       1.832   5.026  19.171  0.00  0.00    +0.000 A 
ATOM     22  C   UNL     1       1.626   3.893  18.373  0.00  0.00    +0.000 A 
ATOM     23  C   UNL     1       1.446   2.619  18.910  0.00  0.00    +0.000 A 
ATOM     24  C   UNL     1       1.391   2.457  20.285  0.00  0.00    +0.000 A 
ATOM     25  C   UNL     1       1.527   3.571  21.111  0.00  0.00    +0.000 A 
ATOM     26  C   UNL     1       1.763   4.840  20.564  0.00  0.00    +0.000 A 
ENDBRANCH  20  21
BRANCH  20  27
ATOM     27  N   UNL     1       3.382   6.337  17.802  0.00  0.00    +0.000 N 
ATOM     28  C   UNL     1       4.574   5.912  18.336  0.00  0.00    +0.000 C 
ATOM     29  O   UNL     1       4.700   5.580  19.510  0.00  0.00    +0.000 OA
ATOM     30  H   UNL     1       3.319   6.516  16.805  0.00  0.00    +0.000 HD
BRANCH  28  31
ATOM     31  C   UNL     1       5.739   5.919  17.373  0.00  0.00    +0.000 C 
BRANCH  31  32
ATOM     32  C   UNL     1       5.302   5.589  15.946  0.00  0.00    +0.000 C 
BRANCH  32  33
ATOM     33  C   UNL     1       6.428   4.944  15.133  0.00  0.00    +0.000 C 
BRANCH  33  34
ATOM     34  C   UNL     1       5.902   3.798  14.271  0.00  0.00    +0.000 C 
BRANCH  34  35
ATOM     35  C   UNL     1       6.471   3.875  12.856  0.00  0.00    +0.000 C 
BRANCH  35  36
ATOM     36  N   UNL     1       6.284   2.600  12.174  0.00  0.00    +0.000 NA
ATOM     37  H   UNL     1       7.147   2.061  12.215  0.00  0.00    +0.000 HD
ATOM     38  H   UNL     1       6.102   2.771  11.186  0.00  0.00    +0.000 HD
ENDBRANCH  35  36
ENDBRANCH  34  35
ENDBRANCH  33  34
ENDBRANCH  32  33
ENDBRANCH  31  32
ENDBRANCH  28  31
ENDBRANCH  20  27
ENDBRANCH   1  20
TORSDOF 13
ENDMDL
MODEL 4
REMARK VINA RESULT:      -7.7      0.908      1.331
REMARK  Name = 
REMARK  17 active torsions:
REMARK  status: ('A' for Active; 'I' for Inactive)
REMARK    1  A    between atoms: C_1  and  C_2
REMARK    2  A    between atoms: C_2  and  C_3
REMARK    3  A    between atoms: C_2  and  C_4
REMARK    4  A    between atoms: C_8  and  C_9
REMARK    5  A    between atoms: C_9  and  C_10
REMARK    6  A    between atoms: C_9  and  C_11
REMARK    7  A    between atoms: C_12  and  N_13
REMARK    8  A    between atoms: N_16  and  C_17
REMARK    9  A    between atoms: C_17  and  C_18
REMARK   10  A    between atoms: C_18  and  N_19
REMARK   11  A    between atoms: C_18  and  C_28
REMARK   12  A    between atoms: C_20  and  C_22
REMARK   13  A    between atoms: C_22  and  C_23
REMARK   14  A    between atoms: C_23  and  C_24
REMARK   15  A    between atoms: C_24  and  C_25
REMARK   16  A    between atoms: C_25  and  C_26
REMARK   17  A    between atoms: C_26  and  N_27
REMARK                            x       y       z     vdW  Elec       q    Type
REMARK                         _______ _______ _______ _____ _____    ______ ____
ROOT
ATOM      1  C   UNL     1       2.175   7.479  19.727  0.00  0.00    +0.000 C 
ENDROOT
BRANCH   1   5
ATOM      2  N   UNL     1       1.006  10.407  17.786  0.00  0.00    +0.000 N 
ATOM      3  C   UNL     1       1.633   9.213  18.032  0.00  0.00    +0.000 C 
ATOM      4  O   UNL     1       2.397   8.749  17.187  0.00  0.00    +0.000 OA
ATOM      5  N   UNL     1       1.462   8.667  19.273  0.00  0.00    +0.000 N 
ATOM      6  H   UNL     1       1.582  10.976  17.178  0.00  0.00    +0.000 HD
ATOM      7  H   UNL     1       0.749   9.051  19.875  0.00  0.00    +0.000 HD
BRANCH   2  13
ATOM      8  C   UNL     1      -1.279  10.735  18.579  0.00  0.00    +0.000 A 
ATOM      9  C   UNL     1      -2.138  11.353  19.509  0.00  0.00    +0.000 A 
ATOM     10  C   UNL     1      -1.678  12.310  20.404  0.00  0.00    +0.000 A 
ATOM     11  C   UNL     1      -0.342  12.691  20.382  0.00  0.00    +0.000 A 
ATOM     12  C   UNL     1       0.580  12.076  19.516  0.00  0.00    +0.000 A 
ATOM     13  C   UNL     1       0.102  11.057  18.642  0.00  0.00    +0.000 A 
BRANCH   8  15
ATOM     14  C   UNL     1      -3.309   9.423  17.960  0.00  0.00    +0.000 C 
ATOM     15  C   UNL     1      -1.992  10.005  17.428  0.00  0.00    +0.000 C 
ATOM     16  C   UNL     1      -2.251  10.701  16.093  0.00  0.00    +0.000 C 
ENDBRANCH   8  15
BRANCH  12  17
ATOM     17  C   UNL     1       2.037  12.553  19.526  0.00  0.00    +0.000 C 
ATOM     18  C   UNL     1       2.335  13.357  18.254  0.00  0.00    +0.000 C 
ATOM     19  C   UNL     1       2.435  13.396  20.752  0.00  0.00    +0.000 C 
ENDBRANCH  12  17
ENDBRANCH   2  13
ENDBRANCH   1   5
BRANCH   1  20
ATOM     20  C   UNL     1       1.833   6.179  18.927  0.00  0.00    +0.000 C 
BRANCH  20  21
ATOM     21  C   UNL     1       1.722   4.885  19.747  0.00  0.00    +0.000 A 
ATOM     22  C   UNL     1       1.191   3.700  19.223  0.00  0.00    +0.000 A 
ATOM     23  C   UNL     1       1.191   2.500  19.933  0.00  0.00    +0.000 A 
ATOM     24  C   UNL     1       1.661   2.474  21.236  0.00  0.00    +0.000 A 
ATOM     25  C   UNL     1       2.138   3.648  21.813  0.00  0.00    +0.000 A 
ATOM     26  C   UNL     1       2.187   4.838  21.074  0.00  0.00    +0.000 A 
ENDBRANCH  20  21
BRANCH  20  27
ATOM     27  N   UNL     1       2.794   5.989  17.842  0.00  0.00    +0.000 N 
ATOM     28  C   UNL     1       4.119   5.707  18.066  0.00  0.00    +0.000 C 
ATOM     29  O   UNL     1       4.603   5.613  19.189  0.00  0.00    +0.000 OA
ATOM     30  H   UNL     1       2.435   5.968  16.893  0.00  0.00    +0.000 HD
BRANCH  28  31
ATOM     31  C   UNL     1       4.957   5.557  16.816  0.00  0.00    +0.000 C 
BRANCH  31  32
ATOM     32  C   UNL     1       5.929   6.722  16.637  0.00  0.00    +0.000 C 
BRANCH  32  33
ATOM     33  C   UNL     1       7.352   6.358  17.069  0.00  0.00    +0.000 C 
BRANCH  33  34
ATOM     34  C   UNL     1       7.847   7.279  18.183  0.00  0.00    +0.000 C 
BRANCH  34  35
ATOM     35  C   UNL     1       7.898   8.729  17.708  0.00  0.00    +0.000 C 
BRANCH  35  36
ATOM     36  N   UNL     1       8.774   9.506  18.577  0.00  0.00    +0.000 NA
ATOM     37  H   UNL     1       9.597   9.802  18.055  0.00  0.00    +0.000 HD
ATOM     38  H   UNL     1       9.113   8.912  19.332  0.00  0.00    +0.000 HD
ENDBRANCH  35  36
ENDBRANCH  34  35
ENDBRANCH  33  34
ENDBRANCH  32  33
ENDBRANCH  31  32
ENDBRANCH  28  31
ENDBRANCH  20  27
ENDBRANCH   1  20
TORSDOF 13
ENDMDL
MODEL 5
REMARK VINA RESULT:      -7.6      1.510      1.935
REMARK  Name = 
REMARK  17 active torsions:
REMARK  status: ('A' for Active; 'I' for Inactive)
REMARK    1  A    between atoms: C_1  and  C_2
REMARK    2  A    between atoms: C_2  and  C_3
REMARK    3  A    between atoms: C_2  and  C_4
REMARK    4  A    between atoms: C_8  and  C_9
REMARK    5  A    between atoms: C_9  and  C_10
REMARK    6  A    between atoms: C_9  and  C_11
REMARK    7  A    between atoms: C_12  and  N_13
REMARK    8  A    between atoms: N_16  and  C_17
REMARK    9  A    between atoms: C_17  and  C_18
REMARK   10  A    between atoms: C_18  and  N_19
REMARK   11  A    between atoms: C_18  and  C_28
REMARK   12  A    between atoms: C_20  and  C_22
REMARK   13  A    between atoms: C_22  and  C_23
REMARK   14  A    between atoms: C_23  and  C_24
REMARK   15  A    between atoms: C_24  and  C_25
REMARK   16  A    between atoms: C_25  and  C_26
REMARK   17  A    between atoms: C_26  and  N_27
REMARK                            x       y       z     vdW  Elec       q    Type
REMARK                         _______ _______ _______ _____ _____    ______ ____
ROOT
ATOM      1  C   UNL     1       2.020   7.812  20.185  0.00  0.00    +0.000 C 
ENDROOT
BRANCH   1   5
ATOM      2  N   UNL     1       0.800  10.326  17.756  0.00  0.00    +0.000 N 
ATOM      3  C   UNL     1       1.444   9.204  18.209  0.00  0.00    +0.000 C 
ATOM      4  O   UNL     1       2.209   8.604  17.455  0.00  0.00    +0.000 OA
ATOM      5  N   UNL     1       1.287   8.890  19.529  0.00  0.00    +0.000 N 
ATOM      6  H   UNL     1       1.364  10.782  17.051  0.00  0.00    +0.000 HD
ATOM      7  H   UNL     1       0.573   9.368  20.058  0.00  0.00    +0.000 HD
BRANCH   2  13
ATOM      8  C   UNL     1      -1.500  10.854  18.380  0.00  0.00    +0.000 A 
ATOM      9  C   UNL     1      -2.369  11.612  19.192  0.00  0.00    +0.000 A 
ATOM     10  C   UNL     1      -1.900  12.633  20.008  0.00  0.00    +0.000 A 
ATOM     11  C   UNL     1      -0.545  12.939  20.022  0.00  0.00    +0.000 A 
ATOM     12  C   UNL     1       0.383  12.189  19.277  0.00  0.00    +0.000 A 
ATOM     13  C   UNL     1      -0.108  11.109  18.488  0.00  0.00    +0.000 A 
BRANCH   8  15
ATOM     14  C   UNL     1      -3.485   9.439  17.845  0.00  0.00    +0.000 C 
ATOM     15  C   UNL     1      -2.194  10.045  17.272  0.00  0.00    +0.000 C 
ATOM     16  C   UNL     1      -2.491  10.666  15.909  0.00  0.00    +0.000 C 
ENDBRANCH   8  15
BRANCH  12  17
ATOM     17  C   UNL     1       1.863  12.588  19.321  0.00  0.00    +0.000 C 
ATOM     18  C   UNL     1       2.198  13.489  18.126  0.00  0.00    +0.000 C 
ATOM     19  C   UNL     1       2.306  13.294  20.616  0.00  0.00    +0.000 C 
ENDBRANCH  12  17
ENDBRANCH   2  13
ENDBRANCH   1   5
BRANCH   1  20
ATOM     20  C   UNL     1       2.434   6.643  19.233  0.00  0.00    +0.000 C 
BRANCH  20  21
ATOM     21  C   UNL     1       2.093   5.224  19.708  0.00  0.00    +0.000 A 
ATOM     22  C   UNL     1       2.328   4.787  21.018  0.00  0.00    +0.000 A 
ATOM     23  C   UNL     1       1.919   3.536  21.477  0.00  0.00    +0.000 A 
ATOM     24  C   UNL     1       1.323   2.645  20.599  0.00  0.00    +0.000 A 
ATOM     25  C   UNL     1       1.130   3.020  19.271  0.00  0.00    +0.000 A 
ATOM     26  C   UNL     1       1.493   4.301  18.832  0.00  0.00    +0.000 A 
ENDBRANCH  20  21
BRANCH  20  27
ATOM     27  N   UNL     1       3.861   6.726  18.925  0.00  0.00    +0.000 N 
ATOM     28  C   UNL     1       4.389   6.285  17.736  0.00  0.00    +0.000 C 
ATOM     29  O   UNL     1       3.711   5.771  16.853  0.00  0.00    +0.000 OA
ATOM     30  H   UNL     1       4.457   7.221  19.580  0.00  0.00    +0.000 HD
BRANCH  28  31
ATOM     31  C   UNL     1       5.887   6.444  17.609  0.00  0.00    +0.000 C 
BRANCH  31  32
ATOM     32  C   UNL     1       6.635   5.194  18.070  0.00  0.00    +0.000 C 
BRANCH  32  33
ATOM     33  C   UNL     1       6.868   4.206  16.923  0.00  0.00    +0.000 C 
BRANCH  33  34
ATOM     34  C   UNL     1       6.899   4.920  15.573  0.00  0.00    +0.000 C 
BRANCH  34  35
ATOM     35  C   UNL     1       5.881   4.311  14.612  0.00  0.00    +0.000 C 
BRANCH  35  36
ATOM     36  N   UNL     1       6.571   3.642  13.515  0.00  0.00    +0.000 NA
ATOM     37  H   UNL     1       6.918   2.739  13.832  0.00  0.00    +0.000 HD
ATOM     38  H   UNL     1       7.391   4.187  13.251  0.00  0.00    +0.000 HD
ENDBRANCH  35  36
ENDBRANCH  34  35
ENDBRANCH  33  34
ENDBRANCH  32  33
ENDBRANCH  31  32
ENDBRANCH  28  31
ENDBRANCH  20  27
ENDBRANCH   1  20
TORSDOF 13
ENDMDL
MODEL 6
REMARK VINA RESULT:      -7.5      1.057      1.317
REMARK  Name = 
REMARK  17 active torsions:
REMARK  status: ('A' for Active; 'I' for Inactive)
REMARK    1  A    between atoms: C_1  and  C_2
REMARK    2  A    between atoms: C_2  and  C_3
REMARK    3  A    between atoms: C_2  and  C_4
REMARK    4  A    between atoms: C_8  and  C_9
REMARK    5  A    between atoms: C_9  and  C_10
REMARK    6  A    between atoms: C_9  and  C_11
REMARK    7  A    between atoms: C_12  and  N_13
REMARK    8  A    between atoms: N_16  and  C_17
REMARK    9  A    between atoms: C_17  and  C_18
REMARK   10  A    between atoms: C_18  and  N_19
REMARK   11  A    between atoms: C_18  and  C_28
REMARK   12  A    between atoms: C_20  and  C_22
REMARK   13  A    between atoms: C_22  and  C_23
REMARK   14  A    between atoms: C_23  and  C_24
REMARK   15  A    between atoms: C_24  and  C_25
REMARK   16  A    between atoms: C_25  and  C_26
REMARK   17  A    between atoms: C_26  and  N_27
REMARK                            x       y       z     vdW  Elec       q    Type
REMARK                         _______ _______ _______ _____ _____    ______ ____
ROOT
ATOM      1  C   UNL     1       2.068   7.697  20.070  0.00  0.00    +0.000 C 
ENDROOT
BRANCH   1   5
ATOM      2  N   UNL     1       0.873  10.330  17.758  0.00  0.00    +0.000 N 
ATOM      3  C   UNL     1       1.516   9.188  18.161  0.00  0.00    +0.000 C 
ATOM      4  O   UNL     1       2.294   8.630  17.388  0.00  0.00    +0.000 OA
ATOM      5  N   UNL     1       1.341   8.804  19.461  0.00  0.00    +0.000 N 
ATOM      6  H   UNL     1       1.446  10.824  17.086  0.00  0.00    +0.000 HD
ATOM      7  H   UNL     1       0.617   9.252  20.003  0.00  0.00    +0.000 HD
BRANCH   2  13
ATOM      8  C   UNL     1      -1.434  10.782  18.413  0.00  0.00    +0.000 A 
ATOM      9  C   UNL     1      -2.315  11.497  19.250  0.00  0.00    +0.000 A 
ATOM     10  C   UNL     1      -1.866  12.510  20.088  0.00  0.00    +0.000 A 
ATOM     11  C   UNL     1      -0.519  12.850  20.099  0.00  0.00    +0.000 A 
ATOM     12  C   UNL     1       0.422  12.144  19.328  0.00  0.00    +0.000 A 
ATOM     13  C   UNL     1      -0.048  11.071  18.516  0.00  0.00    +0.000 A 
BRANCH   8  15
ATOM     14  C   UNL     1      -3.403   9.357  17.851  0.00  0.00    +0.000 C 
ATOM     15  C   UNL     1      -2.117   9.982  17.291  0.00  0.00    +0.000 C 
ATOM     16  C   UNL     1      -2.414  10.620  15.936  0.00  0.00    +0.000 C 
ENDBRANCH   8  15
BRANCH  12  17
ATOM     17  C   UNL     1       1.891  12.580  19.370  0.00  0.00    +0.000 C 
ATOM     18  C   UNL     1       2.209  13.465  18.158  0.00  0.00    +0.000 C 
ATOM     19  C   UNL     1       2.311  13.322  20.652  0.00  0.00    +0.000 C 
ENDBRANCH  12  17
ENDBRANCH   2  13
ENDBRANCH   1   5
BRANCH   1  20
ATOM     20  C   UNL     1       2.012   6.364  19.254  0.00  0.00    +0.000 C 
BRANCH  20  21
ATOM     21  C   UNL     1       1.765   5.081  20.060  0.00  0.00    +0.000 A 
ATOM     22  C   UNL     1       0.753   4.168  19.741  0.00  0.00    +0.000 A 
ATOM     23  C   UNL     1       0.600   2.953  20.407  0.00  0.00    +0.000 A 
ATOM     24  C   UNL     1       1.424   2.651  21.479  0.00  0.00    +0.000 A 
ATOM     25  C   UNL     1       2.402   3.564  21.868  0.00  0.00    +0.000 A 
ATOM     26  C   UNL     1       2.585   4.759  21.157  0.00  0.00    +0.000 A 
ENDBRANCH  20  21
BRANCH  20  27
ATOM     27  N   UNL     1       3.226   6.213  18.453  0.00  0.00    +0.000 N 
ATOM     28  C   UNL     1       3.353   5.259  17.472  0.00  0.00    +0.000 C 
ATOM     29  O   UNL     1       2.469   4.451  17.207  0.00  0.00    +0.000 OA
ATOM     30  H   UNL     1       3.956   6.907  18.568  0.00  0.00    +0.000 HD
BRANCH  28  31
ATOM     31  C   UNL     1       4.688   5.251  16.763  0.00  0.00    +0.000 C 
BRANCH  31  32
ATOM     32  C   UNL     1       5.289   6.653  16.664  0.00  0.00    +0.000 C 
BRANCH  32  33
ATOM     33  C   UNL     1       6.552   6.801  17.516  0.00  0.00    +0.000 C 
BRANCH  33  34
ATOM     34  C   UNL     1       6.665   5.672  18.540  0.00  0.00    +0.000 C 
BRANCH  34  35
ATOM     35  C   UNL     1       7.991   4.931  18.389  0.00  0.00    +0.000 C 
BRANCH  35  36
ATOM     36  N   UNL     1       7.995   4.164  17.149  0.00  0.00    +0.000 NA
ATOM     37  H   UNL     1       8.384   4.731  16.398  0.00  0.00    +0.000 HD
ATOM     38  H   UNL     1       7.034   3.955  16.880  0.00  0.00    +0.000 HD
ENDBRANCH  35  36
ENDBRANCH  34  35
ENDBRANCH  33  34
ENDBRANCH  32  33
ENDBRANCH  31  32
ENDBRANCH  28  31
ENDBRANCH  20  27
ENDBRANCH   1  20
TORSDOF 13
ENDMDL
MODEL 7
REMARK VINA RESULT:      -7.5      2.660      8.680
REMARK  Name = 
REMARK  17 active torsions:
REMARK  status: ('A' for Active; 'I' for Inactive)
REMARK    1  A    between atoms: C_1  and  C_2
REMARK    2  A    between atoms: C_2  and  C_3
REMARK    3  A    between atoms: C_2  and  C_4
REMARK    4  A    between atoms: C_8  and  C_9
REMARK    5  A    between atoms: C_9  and  C_10
REMARK    6  A    between atoms: C_9  and  C_11
REMARK    7  A    between atoms: C_12  and  N_13
REMARK    8  A    between atoms: N_16  and  C_17
REMARK    9  A    between atoms: C_17  and  C_18
REMARK   10  A    between atoms: C_18  and  N_19
REMARK   11  A    between atoms: C_18  and  C_28
REMARK   12  A    between atoms: C_20  and  C_22
REMARK   13  A    between atoms: C_22  and  C_23
REMARK   14  A    between atoms: C_23  and  C_24
REMARK   15  A    between atoms: C_24  and  C_25
REMARK   16  A    between atoms: C_25  and  C_26
REMARK   17  A    between atoms: C_26  and  N_27
REMARK                            x       y       z     vdW  Elec       q    Type
REMARK                         _______ _______ _______ _____ _____    ______ ____
ROOT
ATOM      1  C   UNL     1       1.294   9.136  18.597  0.00  0.00    +0.000 C 
ENDROOT
BRANCH   1   5
ATOM      2  N   UNL     1       2.975   6.140  19.976  0.00  0.00    +0.000 N 
ATOM      3  C   UNL     1       2.317   7.342  19.979  0.00  0.00    +0.000 C 
ATOM      4  O   UNL     1       2.244   7.987  21.024  0.00  0.00    +0.000 OA
ATOM      5  N   UNL     1       1.882   7.813  18.772  0.00  0.00    +0.000 N 
ATOM      6  H   UNL     1       3.700   6.147  20.682  0.00  0.00    +0.000 HD
ATOM      7  H   UNL     1       1.891   7.190  17.979  0.00  0.00    +0.000 HD
BRANCH   2  13
ATOM      8  C   UNL     1       2.148   4.299  18.602  0.00  0.00    +0.000 A 
ATOM      9  C   UNL     1       2.307   3.518  17.440  0.00  0.00    +0.000 A 
ATOM     10  C   UNL     1       3.425   3.640  16.625  0.00  0.00    +0.000 A 
ATOM     11  C   UNL     1       4.430   4.539  16.962  0.00  0.00    +0.000 A 
ATOM     12  C   UNL     1       4.312   5.385  18.078  0.00  0.00    +0.000 A 
ATOM     13  C   UNL     1       3.132   5.286  18.872  0.00  0.00    +0.000 A 
BRANCH   8  15
ATOM     14  C   UNL     1       0.447   2.518  18.996  0.00  0.00    +0.000 C 
ATOM     15  C   UNL     1       1.079   3.789  19.582  0.00  0.00    +0.000 C 
ATOM     16  C   UNL     1       1.405   3.557  21.055  0.00  0.00    +0.000 C 
ENDBRANCH   8  15
BRANCH  12  17
ATOM     17  C   UNL     1       5.463   6.343  18.407  0.00  0.00    +0.000 C 
ATOM     18  C   UNL     1       6.550   5.603  19.197  0.00  0.00    +0.000 C 
ATOM     19  C   UNL     1       6.111   7.021  17.186  0.00  0.00    +0.000 C 
ENDBRANCH  12  17
ENDBRANCH   2  13
ENDBRANCH   1   5
BRANCH   1  20
ATOM     20  C   UNL     1      -0.134   9.292  19.216  0.00  0.00    +0.000 C 
BRANCH  20  21
ATOM     21  C   UNL     1      -1.183   9.993  18.341  0.00  0.00    +0.000 A 
ATOM     22  C   UNL     1      -1.881  11.132  18.762  0.00  0.00    +0.000 A 
ATOM     23  C   UNL     1      -2.752  11.829  17.926  0.00  0.00    +0.000 A 
ATOM     24  C   UNL     1      -3.009  11.351  16.651  0.00  0.00    +0.000 A 
ATOM     25  C   UNL     1      -2.381  10.184  16.220  0.00  0.00    +0.000 A 
ATOM     26  C   UNL     1      -1.464   9.520  17.046  0.00  0.00    +0.000 A 
ENDBRANCH  20  21
BRANCH  20  27
ATOM     27  N   UNL     1      -0.050   9.964  20.512  0.00  0.00    +0.000 N 
ATOM     28  C   UNL     1      -0.411   9.353  21.688  0.00  0.00    +0.000 C 
ATOM     29  O   UNL     1      -0.849   8.208  21.741  0.00  0.00    +0.000 OA
ATOM     30  H   UNL     1       0.386  10.880  20.541  0.00  0.00    +0.000 HD
BRANCH  28  31
ATOM     31  C   UNL     1      -0.265  10.215  22.922  0.00  0.00    +0.000 C 
BRANCH  31  32
ATOM     32  C   UNL     1      -0.930  11.580  22.747  0.00  0.00    +0.000 C 
BRANCH  32  33
ATOM     33  C   UNL     1      -2.305  11.641  23.417  0.00  0.00    +0.000 C 
BRANCH  33  34
ATOM     34  C   UNL     1      -3.007  12.966  23.123  0.00  0.00    +0.000 C 
BRANCH  34  35
ATOM     35  C   UNL     1      -4.461  12.927  23.585  0.00  0.00    +0.000 C 
BRANCH  35  36
ATOM     36  N   UNL     1      -4.631  11.900  24.606  0.00  0.00    +0.000 NA
ATOM     37  H   UNL     1      -4.141  12.178  25.454  0.00  0.00    +0.000 HD
ATOM     38  H   UNL     1      -4.192  11.037  24.292  0.00  0.00    +0.000 HD
ENDBRANCH  35  36
ENDBRANCH  34  35
ENDBRANCH  33  34
ENDBRANCH  32  33
ENDBRANCH  31  32
ENDBRANCH  28  31
ENDBRANCH  20  27
ENDBRANCH   1  20
TORSDOF 13
ENDMDL
MODEL 8
REMARK VINA RESULT:      -7.5      3.876      7.484
REMARK  Name = 
REMARK  17 active torsions:
REMARK  status: ('A' for Active; 'I' for Inactive)
REMARK    1  A    between atoms: C_1  and  C_2
REMARK    2  A    between atoms: C_2  and  C_3
REMARK    3  A    between atoms: C_2  and  C_4
REMARK    4  A    between atoms: C_8  and  C_9
REMARK    5  A    between atoms: C_9  and  C_10
REMARK    6  A    between atoms: C_9  and  C_11
REMARK    7  A    between atoms: C_12  and  N_13
REMARK    8  A    between atoms: N_16  and  C_17
REMARK    9  A    between atoms: C_17  and  C_18
REMARK   10  A    between atoms: C_18  and  N_19
REMARK   11  A    between atoms: C_18  and  C_28
REMARK   12  A    between atoms: C_20  and  C_22
REMARK   13  A    between atoms: C_22  and  C_23
REMARK   14  A    between atoms: C_23  and  C_24
REMARK   15  A    between atoms: C_24  and  C_25
REMARK   16  A    between atoms: C_25  and  C_26
REMARK   17  A    between atoms: C_26  and  N_27
REMARK                            x       y       z     vdW  Elec       q    Type
REMARK                         _______ _______ _______ _____ _____    ______ ____
ROOT
ATOM      1  C   UNL     1       6.386   4.187  17.086  0.00  0.00    +0.000 C 
ENDROOT
BRANCH   1   5
ATOM      2  N   UNL     1       4.637   4.985  20.250  0.00  0.00    +0.000 N 
ATOM      3  C   UNL     1       5.632   5.006  19.307  0.00  0.00    +0.000 C 
ATOM      4  O   UNL     1       6.725   5.490  19.596  0.00  0.00    +0.000 OA
ATOM      5  N   UNL     1       5.379   4.368  18.125  0.00  0.00    +0.000 N 
ATOM      6  H   UNL     1       5.045   4.934  21.175  0.00  0.00    +0.000 HD
ATOM      7  H   UNL     1       4.433   4.082  17.924  0.00  0.00    +0.000 HD
BRANCH   2  13
ATOM      8  C   UNL     1       3.140   3.081  19.945  0.00  0.00    +0.000 A 
ATOM      9  C   UNL     1       1.814   2.615  19.844  0.00  0.00    +0.000 A 
ATOM     10  C   UNL     1       0.735   3.488  19.782  0.00  0.00    +0.000 A 
ATOM     11  C   UNL     1       0.956   4.860  19.800  0.00  0.00    +0.000 A 
ATOM     12  C   UNL     1       2.249   5.392  19.952  0.00  0.00    +0.000 A 
ATOM     13  C   UNL     1       3.339   4.481  20.070  0.00  0.00    +0.000 A 
BRANCH   8  15
ATOM     14  C   UNL     1       4.736   1.440  20.937  0.00  0.00    +0.000 C 
ATOM     15  C   UNL     1       4.219   2.034  19.619  0.00  0.00    +0.000 C 
ATOM     16  C   UNL     1       3.948   0.904  18.628  0.00  0.00    +0.000 C 
ENDBRANCH   8  15
BRANCH  12  17
ATOM     17  C   UNL     1       2.428   6.914  19.947  0.00  0.00    +0.000 C 
ATOM     18  C   UNL     1       2.369   7.444  18.508  0.00  0.00    +0.000 C 
ATOM     19  C   UNL     1       1.411   7.690  20.804  0.00  0.00    +0.000 C 
ENDBRANCH  12  17
ENDBRANCH   2  13
ENDBRANCH   1   5
BRANCH   1  20
ATOM     20  C   UNL     1       6.453   5.353  16.045  0.00  0.00    +0.000 C 
BRANCH  20  21
ATOM     21  C   UNL     1       6.627   4.944  14.576  0.00  0.00    +0.000 A 
ATOM     22  C   UNL     1       7.607   5.502  13.745  0.00  0.00    +0.000 A 
ATOM     23  C   UNL     1       7.833   5.053  12.445  0.00  0.00    +0.000 A 
ATOM     24  C   UNL     1       7.017   4.069  11.908  0.00  0.00    +0.000 A 
ATOM     25  C   UNL     1       5.990   3.535  12.683  0.00  0.00    +0.000 A 
ATOM     26  C   UNL     1       5.806   3.952  14.008  0.00  0.00    +0.000 A 
ENDBRANCH  20  21
BRANCH  20  27
ATOM     27  N   UNL     1       7.504   6.299  16.417  0.00  0.00    +0.000 N 
ATOM     28  C   UNL     1       7.245   7.467  17.091  0.00  0.00    +0.000 C 
ATOM     29  O   UNL     1       6.114   7.816  17.415  0.00  0.00    +0.000 OA
ATOM     30  H   UNL     1       8.467   6.023  16.253  0.00  0.00    +0.000 HD
BRANCH  28  31
ATOM     31  C   UNL     1       8.461   8.320  17.375  0.00  0.00    +0.000 C 
BRANCH  31  32
ATOM     32  C   UNL     1       8.097   9.601  18.124  0.00  0.00    +0.000 C 
BRANCH  32  33
ATOM     33  C   UNL     1       9.171   9.999  19.141  0.00  0.00    +0.000 C 
BRANCH  33  34
ATOM     34  C   UNL     1       9.611  11.449  18.944  0.00  0.00    +0.000 C 
BRANCH  34  35
ATOM     35  C   UNL     1      10.439  11.599  17.670  0.00  0.00    +0.000 C 
BRANCH  35  36
ATOM     36  N   UNL     1      11.855  11.436  17.975  0.00  0.00    +0.000 NA
ATOM     37  H   UNL     1      12.050  10.457  18.178  0.00  0.00    +0.000 HD
ATOM     38  H   UNL     1      12.078  11.953  18.824  0.00  0.00    +0.000 HD
ENDBRANCH  35  36
ENDBRANCH  34  35
ENDBRANCH  33  34
ENDBRANCH  32  33
ENDBRANCH  31  32
ENDBRANCH  28  31
ENDBRANCH  20  27
ENDBRANCH   1  20
TORSDOF 13
ENDMDL
MODEL 9
REMARK VINA RESULT:      -7.4      0.972      1.107
REMARK  Name = 
REMARK  17 active torsions:
REMARK  status: ('A' for Active; 'I' for Inactive)
REMARK    1  A    between atoms: C_1  and  C_2
REMARK    2  A    between atoms: C_2  and  C_3
REMARK    3  A    between atoms: C_2  and  C_4
REMARK    4  A    between atoms: C_8  and  C_9
REMARK    5  A    between atoms: C_9  and  C_10
REMARK    6  A    between atoms: C_9  and  C_11
REMARK    7  A    between atoms: C_12  and  N_13
REMARK    8  A    between atoms: N_16  and  C_17
REMARK    9  A    between atoms: C_17  and  C_18
REMARK   10  A    between atoms: C_18  and  N_19
REMARK   11  A    between atoms: C_18  and  C_28
REMARK   12  A    between atoms: C_20  and  C_22
REMARK   13  A    between atoms: C_22  and  C_23
REMARK   14  A    between atoms: C_23  and  C_24
REMARK   15  A    between atoms: C_24  and  C_25
REMARK   16  A    between atoms: C_25  and  C_26
REMARK   17  A    between atoms: C_26  and  N_27
REMARK                            x       y       z     vdW  Elec       q    Type
REMARK                         _______ _______ _______ _____ _____    ______ ____
ROOT
ATOM      1  C   UNL     1       2.117   7.706  20.026  0.00  0.00    +0.000 C 
ENDROOT
BRANCH   1   5
ATOM      2  N   UNL     1       0.835  10.343  17.764  0.00  0.00    +0.000 N 
ATOM      3  C   UNL     1       1.506   9.209  18.144  0.00  0.00    +0.000 C 
ATOM      4  O   UNL     1       2.283   8.676  17.352  0.00  0.00    +0.000 OA
ATOM      5  N   UNL     1       1.359   8.807  19.441  0.00  0.00    +0.000 N 
ATOM      6  H   UNL     1       1.388  10.856  17.089  0.00  0.00    +0.000 HD
ATOM      7  H   UNL     1       0.635   9.234  20.000  0.00  0.00    +0.000 HD
BRANCH   2  13
ATOM      8  C   UNL     1      -1.473  10.760  18.442  0.00  0.00    +0.000 A 
ATOM      9  C   UNL     1      -2.355  11.445  19.301  0.00  0.00    +0.000 A 
ATOM     10  C   UNL     1      -1.910  12.440  20.161  0.00  0.00    +0.000 A 
ATOM     11  C   UNL     1      -0.565  12.791  20.175  0.00  0.00    +0.000 A 
ATOM     12  C   UNL     1       0.377  12.112  19.382  0.00  0.00    +0.000 A 
ATOM     13  C   UNL     1      -0.088  11.056  18.545  0.00  0.00    +0.000 A 
BRANCH   8  15
ATOM     14  C   UNL     1      -3.466   9.387  17.835  0.00  0.00    +0.000 C 
ATOM     15  C   UNL     1      -2.154   9.983  17.303  0.00  0.00    +0.000 C 
ATOM     16  C   UNL     1      -2.410  10.635  15.946  0.00  0.00    +0.000 C 
ENDBRANCH   8  15
BRANCH  12  17
ATOM     17  C   UNL     1       1.843  12.559  19.428  0.00  0.00    +0.000 C 
ATOM     18  C   UNL     1       2.154  13.460  18.226  0.00  0.00    +0.000 C 
ATOM     19  C   UNL     1       2.257  13.291  20.718  0.00  0.00    +0.000 C 
ENDBRANCH  12  17
ENDBRANCH   2  13
ENDBRANCH   1   5
BRANCH   1  20
ATOM     20  C   UNL     1       2.146   6.410  19.152  0.00  0.00    +0.000 C 
BRANCH  20  21
ATOM     21  C   UNL     1       1.923   5.084  19.893  0.00  0.00    +0.000 A 
ATOM     22  C   UNL     1       2.612   4.745  21.064  0.00  0.00    +0.000 A 
ATOM     23  C   UNL     1       2.330   3.591  21.794  0.00  0.00    +0.000 A 
ATOM     24  C   UNL     1       1.387   2.694  21.319  0.00  0.00    +0.000 A 
ATOM     25  C   UNL     1       0.726   2.965  20.124  0.00  0.00    +0.000 A 
ATOM     26  C   UNL     1       0.975   4.155  19.425  0.00  0.00    +0.000 A 
ENDBRANCH  20  21
BRANCH  20  27
ATOM     27  N   UNL     1       3.395   6.342  18.394  0.00  0.00    +0.000 N 
ATOM     28  C   UNL     1       3.625   5.392  17.429  0.00  0.00    +0.000 C 
ATOM     29  O   UNL     1       2.813   4.518  17.143  0.00  0.00    +0.000 OA
ATOM     30  H   UNL     1       4.068   7.090  18.526  0.00  0.00    +0.000 HD
BRANCH  28  31
ATOM     31  C   UNL     1       4.981   5.477  16.765  0.00  0.00    +0.000 C 
BRANCH  31  32
ATOM     32  C   UNL     1       5.818   4.223  17.013  0.00  0.00    +0.000 C 
BRANCH  32  33
ATOM     33  C   UNL     1       7.207   4.556  17.562  0.00  0.00    +0.000 C 
BRANCH  33  34
ATOM     34  C   UNL     1       7.443   6.066  17.595  0.00  0.00    +0.000 C 
BRANCH  34  35
ATOM     35  C   UNL     1       8.065   6.491  18.923  0.00  0.00    +0.000 C 
BRANCH  35  36
ATOM     36  N   UNL     1       8.554   7.861  18.827  0.00  0.00    +0.000 NA
ATOM     37  H   UNL     1       9.499   7.860  18.447  0.00  0.00    +0.000 HD
ATOM     38  H   UNL     1       8.624   8.259  19.763  0.00  0.00    +0.000 HD
ENDBRANCH  35  36
ENDBRANCH  34  35
ENDBRANCH  33  34
ENDBRANCH  32  33
ENDBRANCH  31  32
ENDBRANCH  28  31
ENDBRANCH  20  27
ENDBRANCH   1  20
TORSDOF 13
ENDMDL
