MODEL 1
REMARK VINA RESULT:      -7.3      0.000      0.000
REMARK  Name = 
REMARK  11 active torsions:
REMARK  status: ('A' for Active; 'I' for Inactive)
REMARK    1  A    between atoms: C_1  and  C_2
REMARK    2  A    between atoms: C_2  and  C_3
REMARK    3  A    between atoms: C_3  and  C_4
REMARK    4  A    between atoms: C_4  and  N_5
REMARK    5  A    between atoms: N_5  and  C_6
REMARK    6  A    between atoms: N_5  and  S_7
REMARK    7  A    between atoms: S_7  and  N_10
REMARK    8  A    between atoms: N_10  and  C_11
REMARK    9  A    between atoms: C_11  and  C_12
REMARK   10  A    between atoms: C_19  and  C_20
REMARK   11  A    between atoms: N_21  and  C_22
REMARK                            x       y       z     vdW  Elec       q    Type
REMARK                         _______ _______ _______ _____ _____    ______ ____
ROOT
ATOM      1  C   UNL     1       2.753   7.570  18.313  0.00  0.00    +0.000 A 
ATOM      2  C   UNL     1       2.258   8.693  17.634  0.00  0.00    +0.000 A 
ATOM      3  C   UNL     1       1.395   9.610  18.249  0.00  0.00    +0.000 A 
ATOM      4  C   UNL     1       1.032   9.371  19.584  0.00  0.00    +0.000 A 
ATOM      5  C   UNL     1       1.513   8.262  20.280  0.00  0.00    +0.000 A 
ATOM      6  C   UNL     1       2.377   7.355  19.648  0.00  0.00    +0.000 A 
ATOM      7  N   UNL     1       1.024   8.217  21.558  0.00  0.00    +0.000 NA
ATOM      8  C   UNL     1       0.237   9.269  21.674  0.00  0.00    +0.000 A 
ATOM      9  C   UNL     1      -0.555   9.598  22.885  0.00  0.00    +0.000 C 
ATOM     10  N   UNL     1       0.228  10.007  20.506  0.00  0.00    +0.000 N 
ENDROOT
BRANCH  10  11
ATOM     11  C   UNL     1      -0.554  11.223  20.333  0.00  0.00    +0.000 C 
ATOM     12  C   UNL     1      -0.406  12.168  19.156  0.00  0.00    +0.000 C 
ATOM     13  C   UNL     1      -1.640  11.338  19.278  0.00  0.00    +0.000 C 
ENDBRANCH  10  11
BRANCH   1  14
ATOM     14  C   UNL     1       3.668   6.592  17.615  0.00  0.00    +0.000 C 
BRANCH  14  15
ATOM     15  N   UNL     1       3.111   5.235  17.697  0.00  0.00    +0.000 NA
ATOM     16  H   UNL     1       2.353   5.183  18.379  0.00  0.00    +0.000 HD
BRANCH  15  17
ATOM     17  S   UNL     1       4.193   4.009  18.015  0.00  0.00    +0.000 S 
ATOM     18  O   UNL     1       5.051   4.481  19.071  0.00  0.00    +0.000 OA
ATOM     19  O   UNL     1       4.729   3.552  16.754  0.00  0.00    +0.000 OA
BRANCH  17  20
ATOM     20  N   UNL     1       3.185   2.793  18.647  0.00  0.00    +0.000 NA
ATOM     21  C   UNL     1       3.626   1.414  18.332  0.00  0.00    +0.000 C 
BRANCH  20  22
ATOM     22  C   UNL     1       1.759   3.044  18.250  0.00  0.00    +0.000 C 
BRANCH  22  23
ATOM     23  C   UNL     1       0.764   2.889  19.399  0.00  0.00    +0.000 C 
BRANCH  23  25
ATOM     24  C   UNL     1       1.567   2.816  21.779  0.00  0.00    +0.000 C 
ATOM     25  C   UNL     1       1.138   3.713  20.629  0.00  0.00    +0.000 C 
ENDBRANCH  23  25
ENDBRANCH  22  23
ENDBRANCH  20  22
ENDBRANCH  17  20
ENDBRANCH  15  17
ENDBRANCH  14  15
ENDBRANCH   1  14
TORSDOF 8
ENDMDL
MODEL 2
REMARK VINA RESULT:      -6.9      2.236      3.758
REMARK  Name = 
REMARK  11 active torsions:
REMARK  status: ('A' for Active; 'I' for Inactive)
REMARK    1  A    between atoms: C_1  and  C_2
REMARK    2  A    between atoms: C_2  and  C_3
REMARK    3  A    between atoms: C_3  and  C_4
REMARK    4  A    between atoms: C_4  and  N_5
REMARK    5  A    between atoms: N_5  and  C_6
REMARK    6  A    between atoms: N_5  and  S_7
REMARK    7  A    between atoms: S_7  and  N_10
REMARK    8  A    between atoms: N_10  and  C_11
REMARK    9  A    between atoms: C_11  and  C_12
REMARK   10  A    between atoms: C_19  and  C_20
REMARK   11  A    between atoms: N_21  and  C_22
REMARK                            x       y       z     vdW  Elec       q    Type
REMARK                         _______ _______ _______ _____ _____    ______ ____
ROOT
ATOM      1  C   UNL     1       2.426   7.415  18.519  0.00  0.00    +0.000 A 
ATOM      2  C   UNL     1       2.054   8.556  17.793  0.00  0.00    +0.000 A 
ATOM      3  C   UNL     1       1.344   9.610  18.381  0.00  0.00    +0.000 A 
ATOM      4  C   UNL     1       1.008   9.494  19.739  0.00  0.00    +0.000 A 
ATOM      5  C   UNL     1       1.369   8.370  20.483  0.00  0.00    +0.000 A 
ATOM      6  C   UNL     1       2.081   7.324  19.877  0.00  0.00    +0.000 A 
ATOM      7  N   UNL     1       0.931   8.460  21.776  0.00  0.00    +0.000 NA
ATOM      8  C   UNL     1       0.293   9.611  21.857  0.00  0.00    +0.000 A 
ATOM      9  C   UNL     1      -0.399  10.107  23.073  0.00  0.00    +0.000 C 
ATOM     10  N   UNL     1       0.333  10.280  20.648  0.00  0.00    +0.000 N 
ENDROOT
BRANCH  10  11
ATOM     11  C   UNL     1      -0.291  11.578  20.431  0.00  0.00    +0.000 C 
ATOM     12  C   UNL     1      -0.416  12.243  19.073  0.00  0.00    +0.000 C 
ATOM     13  C   UNL     1      -1.639  11.717  19.746  0.00  0.00    +0.000 C 
ENDBRANCH  10  11
BRANCH   1  14
ATOM     14  C   UNL     1       3.176   6.288  17.849  0.00  0.00    +0.000 C 
BRANCH  14  15
ATOM     15  N   UNL     1       4.317   5.878  18.679  0.00  0.00    +0.000 NA
ATOM     16  H   UNL     1       4.979   6.644  18.808  0.00  0.00    +0.000 HD
BRANCH  15  17
ATOM     17  S   UNL     1       5.157   4.533  18.170  0.00  0.00    +0.000 S 
ATOM     18  O   UNL     1       4.411   3.972  17.073  0.00  0.00    +0.000 OA
ATOM     19  O   UNL     1       5.488   3.748  19.337  0.00  0.00    +0.000 OA
BRANCH  17  20
ATOM     20  N   UNL     1       6.588   5.214  17.552  0.00  0.00    +0.000 NA
ATOM     21  C   UNL     1       7.165   4.476  16.405  0.00  0.00    +0.000 C 
BRANCH  20  22
ATOM     22  C   UNL     1       7.581   5.423  18.658  0.00  0.00    +0.000 C 
BRANCH  22  23
ATOM     23  C   UNL     1       8.177   6.830  18.693  0.00  0.00    +0.000 C 
BRANCH  23  25
ATOM     24  C   UNL     1       8.054   9.181  17.815  0.00  0.00    +0.000 C 
ATOM     25  C   UNL     1       7.622   7.740  17.598  0.00  0.00    +0.000 C 
ENDBRANCH  23  25
ENDBRANCH  22  23
ENDBRANCH  20  22
ENDBRANCH  17  20
ENDBRANCH  15  17
ENDBRANCH  14  15
ENDBRANCH   1  14
TORSDOF 8
ENDMDL
MODEL 3
REMARK VINA RESULT:      -6.9      1.185      1.259
REMARK  Name = 
REMARK  11 active torsions:
REMARK  status: ('A' for Active; 'I' for Inactive)
REMARK    1  A    between atoms: C_1  and  C_2
REMARK    2  A    between atoms: C_2  and  C_3
REMARK    3  A    between atoms: C_3  and  C_4
REMARK    4  A    between atoms: C_4  and  N_5
REMARK    5  A    between atoms: N_5  and  C_6
REMARK    6  A    between atoms: N_5  and  S_7
REMARK    7  A    between atoms: S_7  and  N_10
REMARK    8  A    between atoms: N_10  and  C_11
REMARK    9  A    between atoms: C_11  and  C_12
REMARK   10  A    between atoms: C_19  and  C_20
REMARK   11  A    between atoms: N_21  and  C_22
REMARK                            x       y       z     vdW  Elec       q    Type
REMARK                         _______ _______ _______ _____ _____    ______ ____
ROOT
ATOM      1  C   UNL     1       2.393   7.596  18.671  0.00  0.00    +0.000 A 
ATOM      2  C   UNL     1       1.996   8.663  17.852  0.00  0.00    +0.000 A 
ATOM      3  C   UNL     1       1.210   9.717  18.336  0.00  0.00    +0.000 A 
ATOM      4  C   UNL     1       0.824   9.677  19.685  0.00  0.00    +0.000 A 
ATOM      5  C   UNL     1       1.208   8.628  20.520  0.00  0.00    +0.000 A 
ATOM      6  C   UNL     1       1.995   7.581  20.018  0.00  0.00    +0.000 A 
ATOM      7  N   UNL     1       0.712   8.783  21.786  0.00  0.00    +0.000 NA
ATOM      8  C   UNL     1       0.016   9.903  21.759  0.00  0.00    +0.000 A 
ATOM      9  C   UNL     1      -0.751  10.444  22.910  0.00  0.00    +0.000 C 
ATOM     10  N   UNL     1       0.073  10.487  20.509  0.00  0.00    +0.000 N 
ENDROOT
BRANCH  10  11
ATOM     11  C   UNL     1      -0.604  11.733  20.176  0.00  0.00    +0.000 C 
ATOM     12  C   UNL     1      -0.710  12.292  18.770  0.00  0.00    +0.000 C 
ATOM     13  C   UNL     1      -1.931  11.754  19.438  0.00  0.00    +0.000 C 
ENDBRANCH  10  11
BRANCH   1  14
ATOM     14  C   UNL     1       3.225   6.466  18.113  0.00  0.00    +0.000 C 
BRANCH  14  15
ATOM     15  N   UNL     1       4.067   5.890  19.169  0.00  0.00    +0.000 NA
ATOM     16  H   UNL     1       4.373   6.603  19.834  0.00  0.00    +0.000 HD
BRANCH  15  17
ATOM     17  S   UNL     1       5.402   5.030  18.666  0.00  0.00    +0.000 S 
ATOM     18  O   UNL     1       6.343   5.053  19.756  0.00  0.00    +0.000 OA
ATOM     19  O   UNL     1       5.762   5.500  17.349  0.00  0.00    +0.000 OA
BRANCH  17  20
ATOM     20  N   UNL     1       4.782   3.452  18.526  0.00  0.00    +0.000 NA
ATOM     21  C   UNL     1       4.137   3.165  17.224  0.00  0.00    +0.000 C 
BRANCH  20  22
ATOM     22  C   UNL     1       3.887   3.142  19.691  0.00  0.00    +0.000 C 
BRANCH  22  23
ATOM     23  C   UNL     1       2.495   2.658  19.285  0.00  0.00    +0.000 C 
BRANCH  23  25
ATOM     24  C   UNL     1       1.887   4.012  21.312  0.00  0.00    +0.000 C 
ATOM     25  C   UNL     1       1.373   3.378  20.029  0.00  0.00    +0.000 C 
ENDBRANCH  23  25
ENDBRANCH  22  23
ENDBRANCH  20  22
ENDBRANCH  17  20
ENDBRANCH  15  17
ENDBRANCH  14  15
ENDBRANCH   1  14
TORSDOF 8
ENDMDL
MODEL 4
REMARK VINA RESULT:      -6.8      1.692      2.891
REMARK  Name = 
REMARK  11 active torsions:
REMARK  status: ('A' for Active; 'I' for Inactive)
REMARK    1  A    between atoms: C_1  and  C_2
REMARK    2  A    between atoms: C_2  and  C_3
REMARK    3  A    between atoms: C_3  and  C_4
REMARK    4  A    between atoms: C_4  and  N_5
REMARK    5  A    between atoms: N_5  and  C_6
REMARK    6  A    between atoms: N_5  and  S_7
REMARK    7  A    between atoms: S_7  and  N_10
REMARK    8  A    between atoms: N_10  and  C_11
REMARK    9  A    between atoms: C_11  and  C_12
REMARK   10  A    between atoms: C_19  and  C_20
REMARK   11  A    between atoms: N_21  and  C_22
REMARK                            x       y       z     vdW  Elec       q    Type
REMARK                         _______ _______ _______ _____ _____    ______ ____
ROOT
ATOM      1  C   UNL     1       2.349   7.686  18.730  0.00  0.00    +0.000 A 
ATOM      2  C   UNL     1       1.883   8.704  17.886  0.00  0.00    +0.000 A 
ATOM      3  C   UNL     1       1.054   9.733  18.353  0.00  0.00    +0.000 A 
ATOM      4  C   UNL     1       0.693   9.716  19.709  0.00  0.00    +0.000 A 
ATOM      5  C   UNL     1       1.145   8.714  20.568  0.00  0.00    +0.000 A 
ATOM      6  C   UNL     1       1.976   7.693  20.084  0.00  0.00    +0.000 A 
ATOM      7  N   UNL     1       0.664   8.885  21.838  0.00  0.00    +0.000 NA
ATOM      8  C   UNL     1      -0.089   9.966  21.791  0.00  0.00    +0.000 A 
ATOM      9  C   UNL     1      -0.861  10.505  22.938  0.00  0.00    +0.000 C 
ATOM     10  N   UNL     1      -0.083  10.513  20.522  0.00  0.00    +0.000 N 
ENDROOT
BRANCH  10  11
ATOM     11  C   UNL     1      -0.829  11.712  20.164  0.00  0.00    +0.000 C 
ATOM     12  C   UNL     1      -0.796  12.354  18.790  0.00  0.00    +0.000 C 
ATOM     13  C   UNL     1      -2.037  11.663  19.246  0.00  0.00    +0.000 C 
ENDBRANCH  10  11
BRANCH   1  14
ATOM     14  C   UNL     1       3.227   6.581  18.191  0.00  0.00    +0.000 C 
BRANCH  14  15
ATOM     15  N   UNL     1       3.913   5.898  19.295  0.00  0.00    +0.000 NA
ATOM     16  H   UNL     1       4.814   6.332  19.501  0.00  0.00    +0.000 HD
BRANCH  15  17
ATOM     17  S   UNL     1       4.144   4.257  19.121  0.00  0.00    +0.000 S 
ATOM     18  O   UNL     1       3.168   3.613  19.962  0.00  0.00    +0.000 OA
ATOM     19  O   UNL     1       5.556   3.990  19.263  0.00  0.00    +0.000 OA
BRANCH  17  20
ATOM     20  N   UNL     1       3.705   4.002  17.498  0.00  0.00    +0.000 NA
ATOM     21  C   UNL     1       2.626   3.004  17.310  0.00  0.00    +0.000 C 
BRANCH  20  22
ATOM     22  C   UNL     1       4.922   3.693  16.675  0.00  0.00    +0.000 C 
BRANCH  22  23
ATOM     23  C   UNL     1       5.419   4.876  15.844  0.00  0.00    +0.000 C 
BRANCH  23  25
ATOM     24  C   UNL     1       6.900   6.471  17.099  0.00  0.00    +0.000 C 
ATOM     25  C   UNL     1       6.859   5.269  16.169  0.00  0.00    +0.000 C 
ENDBRANCH  23  25
ENDBRANCH  22  23
ENDBRANCH  20  22
ENDBRANCH  17  20
ENDBRANCH  15  17
ENDBRANCH  14  15
ENDBRANCH   1  14
TORSDOF 8
ENDMDL
MODEL 5
REMARK VINA RESULT:      -6.8      2.290      3.774
REMARK  Name = 
REMARK  11 active torsions:
REMARK  status: ('A' for Active; 'I' for Inactive)
REMARK    1  A    between atoms: C_1  and  C_2
REMARK    2  A    between atoms: C_2  and  C_3
REMARK    3  A    between atoms: C_3  and  C_4
REMARK    4  A    between atoms: C_4  and  N_5
REMARK    5  A    between atoms: N_5  and  C_6
REMARK    6  A    between atoms: N_5  and  S_7
REMARK    7  A    between atoms: S_7  and  N_10
REMARK    8  A    between atoms: N_10  and  C_11
REMARK    9  A    between atoms: C_11  and  C_12
REMARK   10  A    between atoms: C_19  and  C_20
REMARK   11  A    between atoms: N_21  and  C_22
REMARK                            x       y       z     vdW  Elec       q    Type
REMARK                         _______ _______ _______ _____ _____    ______ ____
ROOT
ATOM      1  C   UNL     1       2.410   6.989  19.341  0.00  0.00    +0.000 A 
ATOM      2  C   UNL     1       2.354   7.881  18.261  0.00  0.00    +0.000 A 
ATOM      3  C   UNL     1       1.721   9.127  18.360  0.00  0.00    +0.000 A 
ATOM      4  C   UNL     1       1.132   9.464  19.588  0.00  0.00    +0.000 A 
ATOM      5  C   UNL     1       1.176   8.594  20.678  0.00  0.00    +0.000 A 
ATOM      6  C   UNL     1       1.816   7.351  20.561  0.00  0.00    +0.000 A 
ATOM      7  N   UNL     1       0.531   9.117  21.766  0.00  0.00    +0.000 NA
ATOM      8  C   UNL     1       0.075  10.291  21.379  0.00  0.00    +0.000 A 
ATOM      9  C   UNL     1      -0.740  11.198  22.226  0.00  0.00    +0.000 C 
ATOM     10  N   UNL     1       0.433  10.550  20.070  0.00  0.00    +0.000 N 
ENDROOT
BRANCH  10  11
ATOM     11  C   UNL     1       0.066  11.771  19.366  0.00  0.00    +0.000 C 
ATOM     12  C   UNL     1       0.345  13.168  19.887  0.00  0.00    +0.000 C 
ATOM     13  C   UNL     1       1.104  12.662  18.707  0.00  0.00    +0.000 C 
ENDBRANCH  10  11
BRANCH   1  14
ATOM     14  C   UNL     1       3.085   5.646  19.196  0.00  0.00    +0.000 C 
BRANCH  14  15
ATOM     15  N   UNL     1       4.103   5.705  18.138  0.00  0.00    +0.000 NA
ATOM     16  H   UNL     1       3.694   5.968  17.240  0.00  0.00    +0.000 HD
BRANCH  15  17
ATOM     17  S   UNL     1       5.024   4.334  17.919  0.00  0.00    +0.000 S 
ATOM     18  O   UNL     1       4.283   3.479  17.028  0.00  0.00    +0.000 OA
ATOM     19  O   UNL     1       5.455   3.877  19.219  0.00  0.00    +0.000 OA
BRANCH  17  20
ATOM     20  N   UNL     1       6.376   4.938  17.082  0.00  0.00    +0.000 NA
ATOM     21  C   UNL     1       6.671   4.231  15.814  0.00  0.00    +0.000 C 
BRANCH  20  22
ATOM     22  C   UNL     1       7.566   5.000  17.995  0.00  0.00    +0.000 C 
BRANCH  22  23
ATOM     23  C   UNL     1       7.842   6.396  18.553  0.00  0.00    +0.000 C 
BRANCH  23  25
ATOM     24  C   UNL     1       8.182   8.808  17.942  0.00  0.00    +0.000 C 
ATOM     25  C   UNL     1       7.478   7.511  17.577  0.00  0.00    +0.000 C 
ENDBRANCH  23  25
ENDBRANCH  22  23
ENDBRANCH  20  22
ENDBRANCH  17  20
ENDBRANCH  15  17
ENDBRANCH  14  15
ENDBRANCH   1  14
TORSDOF 8
ENDMDL
MODEL 6
REMARK VINA RESULT:      -6.7      3.442      7.653
REMARK  Name = 
REMARK  11 active torsions:
REMARK  status: ('A' for Active; 'I' for Inactive)
REMARK    1  A    between atoms: C_1  and  C_2
REMARK    2  A    between atoms: C_2  and  C_3
REMARK    3  A    between atoms: C_3  and  C_4
REMARK    4  A    between atoms: C_4  and  N_5
REMARK    5  A    between atoms: N_5  and  C_6
REMARK    6  A    between atoms: N_5  and  S_7
REMARK    7  A    between atoms: S_7  and  N_10
REMARK    8  A    between atoms: N_10  and  C_11
REMARK    9  A    between atoms: C_11  and  C_12
REMARK   10  A    between atoms: C_19  and  C_20
REMARK   11  A    between atoms: N_21  and  C_22
REMARK                            x       y       z     vdW  Elec       q    Type
REMARK                         _______ _______ _______ _____ _____    ______ ____
ROOT
ATOM      1  C   UNL     1       2.367   8.028  18.492  0.00  0.00    +0.000 A 
ATOM      2  C   UNL     1       1.975   7.633  19.779  0.00  0.00    +0.000 A 
ATOM      3  C   UNL     1       2.085   6.306  20.213  0.00  0.00    +0.000 A 
ATOM      4  C   UNL     1       2.605   5.365  19.311  0.00  0.00    +0.000 A 
ATOM      5  C   UNL     1       3.003   5.733  18.026  0.00  0.00    +0.000 A 
ATOM      6  C   UNL     1       2.886   7.068  17.609  0.00  0.00    +0.000 A 
ATOM      7  N   UNL     1       3.465   4.660  17.314  0.00  0.00    +0.000 NA
ATOM      8  C   UNL     1       3.356   3.624  18.122  0.00  0.00    +0.000 A 
ATOM      9  C   UNL     1       3.695   2.227  17.751  0.00  0.00    +0.000 C 
ATOM     10  N   UNL     1       2.856   4.010  19.351  0.00  0.00    +0.000 N 
ENDROOT
BRANCH  10  11
ATOM     11  C   UNL     1       2.621   3.081  20.447  0.00  0.00    +0.000 C 
ATOM     12  C   UNL     1       2.174   3.500  21.835  0.00  0.00    +0.000 C 
ATOM     13  C   UNL     1       1.222   2.767  20.950  0.00  0.00    +0.000 C 
ENDBRANCH  10  11
BRANCH   1  14
ATOM     14  C   UNL     1       2.218   9.464  18.049  0.00  0.00    +0.000 C 
BRANCH  14  15
ATOM     15  N   UNL     1       0.795   9.806  17.916  0.00  0.00    +0.000 NA
ATOM     16  H   UNL     1       0.602  10.259  17.021  0.00  0.00    +0.000 HD
BRANCH  15  17
ATOM     17  S   UNL     1       0.141  10.738  19.132  0.00  0.00    +0.000 S 
ATOM     18  O   UNL     1       1.222  11.516  19.681  0.00  0.00    +0.000 OA
ATOM     19  O   UNL     1      -0.667   9.878  19.964  0.00  0.00    +0.000 OA
BRANCH  17  20
ATOM     20  N   UNL     1      -0.889  11.783  18.271  0.00  0.00    +0.000 NA
ATOM     21  C   UNL     1      -0.504  13.211  18.345  0.00  0.00    +0.000 C 
BRANCH  20  22
ATOM     22  C   UNL     1      -2.316  11.551  18.675  0.00  0.00    +0.000 C 
BRANCH  22  23
ATOM     23  C   UNL     1      -3.130  10.774  17.641  0.00  0.00    +0.000 C 
BRANCH  23  25
ATOM     24  C   UNL     1      -2.921   9.774  15.345  0.00  0.00    +0.000 C 
ATOM     25  C   UNL     1      -2.642  10.993  16.210  0.00  0.00    +0.000 C 
ENDBRANCH  23  25
ENDBRANCH  22  23
ENDBRANCH  20  22
ENDBRANCH  17  20
ENDBRANCH  15  17
ENDBRANCH  14  15
ENDBRANCH   1  14
TORSDOF 8
ENDMDL
MODEL 7
REMARK VINA RESULT:      -6.7      2.239      4.138
REMARK  Name = 
REMARK  11 active torsions:
REMARK  status: ('A' for Active; 'I' for Inactive)
REMARK    1  A    between atoms: C_1  and  C_2
REMARK    2  A    between atoms: C_2  and  C_3
REMARK    3  A    between atoms: C_3  and  C_4
REMARK    4  A    between atoms: C_4  and  N_5
REMARK    5  A    between atoms: N_5  and  C_6
REMARK    6  A    between atoms: N_5  and  S_7
REMARK    7  A    between atoms: S_7  and  N_10
REMARK    8  A    between atoms: N_10  and  C_11
REMARK    9  A    between atoms: C_11  and  C_12
REMARK   10  A    between atoms: C_19  and  C_20
REMARK   11  A    between atoms: N_21  and  C_22
REMARK                            x       y       z     vdW  Elec       q    Type
REMARK                         _______ _______ _______ _____ _____    ______ ____
ROOT
ATOM      1  C   UNL     1       2.768   7.576  18.522  0.00  0.00    +0.000 A 
ATOM      2  C   UNL     1       2.404   7.118  19.796  0.00  0.00    +0.000 A 
ATOM      3  C   UNL     1       1.460   7.790  20.584  0.00  0.00    +0.000 A 
ATOM      4  C   UNL     1       0.879   8.954  20.056  0.00  0.00    +0.000 A 
ATOM      5  C   UNL     1       1.224   9.428  18.791  0.00  0.00    +0.000 A 
ATOM      6  C   UNL     1       2.171   8.742  18.016  0.00  0.00    +0.000 A 
ATOM      7  N   UNL     1       0.550  10.578  18.482  0.00  0.00    +0.000 NA
ATOM      8  C   UNL     1      -0.203  10.841  19.532  0.00  0.00    +0.000 A 
ATOM      9  C   UNL     1      -1.075  12.035  19.665  0.00  0.00    +0.000 C 
ATOM     10  N   UNL     1      -0.048   9.870  20.503  0.00  0.00    +0.000 N 
ENDROOT
BRANCH  10  11
ATOM     11  C   UNL     1      -0.750   9.895  21.779  0.00  0.00    +0.000 C 
ATOM     12  C   UNL     1      -0.093   9.604  23.115  0.00  0.00    +0.000 C 
ATOM     13  C   UNL     1      -0.524  10.997  22.799  0.00  0.00    +0.000 C 
ENDBRANCH  10  11
BRANCH   1  14
ATOM     14  C   UNL     1       3.803   6.838  17.706  0.00  0.00    +0.000 C 
BRANCH  14  15
ATOM     15  N   UNL     1       3.464   5.410  17.634  0.00  0.00    +0.000 NA
ATOM     16  H   UNL     1       2.699   5.176  18.269  0.00  0.00    +0.000 HD
BRANCH  15  17
ATOM     17  S   UNL     1       4.712   4.339  17.890  0.00  0.00    +0.000 S 
ATOM     18  O   UNL     1       4.374   3.133  17.178  0.00  0.00    +0.000 OA
ATOM     19  O   UNL     1       5.000   4.323  19.305  0.00  0.00    +0.000 OA
BRANCH  17  20
ATOM     20  N   UNL     1       6.007   5.093  17.084  0.00  0.00    +0.000 NA
ATOM     21  C   UNL     1       6.240   4.590  15.710  0.00  0.00    +0.000 C 
BRANCH  20  22
ATOM     22  C   UNL     1       7.244   5.044  17.931  0.00  0.00    +0.000 C 
BRANCH  22  23
ATOM     23  C   UNL     1       7.642   6.398  18.518  0.00  0.00    +0.000 C 
BRANCH  23  25
ATOM     24  C   UNL     1       8.241   8.783  18.005  0.00  0.00    +0.000 C 
ATOM     25  C   UNL     1       7.507   7.544  17.519  0.00  0.00    +0.000 C 
ENDBRANCH  23  25
ENDBRANCH  22  23
ENDBRANCH  20  22
ENDBRANCH  17  20
ENDBRANCH  15  17
ENDBRANCH  14  15
ENDBRANCH   1  14
TORSDOF 8
ENDMDL
MODEL 8
REMARK VINA RESULT:      -6.7      1.166      2.264
REMARK  Name = 
REMARK  11 active torsions:
REMARK  status: ('A' for Active; 'I' for Inactive)
REMARK    1  A    between atoms: C_1  and  C_2
REMARK    2  A    between atoms: C_2  and  C_3
REMARK    3  A    between atoms: C_3  and  C_4
REMARK    4  A    between atoms: C_4  and  N_5
REMARK    5  A    between atoms: N_5  and  C_6
REMARK    6  A    between atoms: N_5  and  S_7
REMARK    7  A    between atoms: S_7  and  N_10
REMARK    8  A    between atoms: N_10  and  C_11
REMARK    9  A    between atoms: C_11  and  C_12
REMARK   10  A    between atoms: C_19  and  C_20
REMARK   11  A    between atoms: N_21  and  C_22
REMARK                            x       y       z     vdW  Elec       q    Type
REMARK                         _______ _______ _______ _____ _____    ______ ____
ROOT
ATOM      1  C   UNL     1       2.273   7.384  18.888  0.00  0.00    +0.000 A 
ATOM      2  C   UNL     1       2.044   7.214  20.261  0.00  0.00    +0.000 A 
ATOM      3  C   UNL     1       1.440   8.210  21.041  0.00  0.00    +0.000 A 
ATOM      4  C   UNL     1       1.065   9.401  20.402  0.00  0.00    +0.000 A 
ATOM      5  C   UNL     1       1.281   9.593  19.037  0.00  0.00    +0.000 A 
ATOM      6  C   UNL     1       1.886   8.585  18.272  0.00  0.00    +0.000 A 
ATOM      7  N   UNL     1       0.852  10.826  18.627  0.00  0.00    +0.000 NA
ATOM      8  C   UNL     1       0.382  11.416  19.708  0.00  0.00    +0.000 A 
ATOM      9  C   UNL     1      -0.147  12.803  19.748  0.00  0.00    +0.000 C 
ATOM     10  N   UNL     1       0.474  10.580  20.804  0.00  0.00    +0.000 N 
ENDROOT
BRANCH  10  11
ATOM     11  C   UNL     1       0.037  10.960  22.140  0.00  0.00    +0.000 C 
ATOM     12  C   UNL     1      -1.406  11.247  22.512  0.00  0.00    +0.000 C 
ATOM     13  C   UNL     1      -0.748  10.012  23.029  0.00  0.00    +0.000 C 
ENDBRANCH  10  11
BRANCH   1  14
ATOM     14  C   UNL     1       2.943   6.298  18.080  0.00  0.00    +0.000 C 
BRANCH  14  15
ATOM     15  N   UNL     1       3.707   5.409  18.966  0.00  0.00    +0.000 NA
ATOM     16  H   UNL     1       4.232   5.938  19.664  0.00  0.00    +0.000 HD
BRANCH  15  17
ATOM     17  S   UNL     1       4.744   4.337  18.224  0.00  0.00    +0.000 S 
ATOM     18  O   UNL     1       5.809   4.080  19.160  0.00  0.00    +0.000 OA
ATOM     19  O   UNL     1       5.013   4.829  16.893  0.00  0.00    +0.000 OA
BRANCH  17  20
ATOM     20  N   UNL     1       3.787   2.936  18.101  0.00  0.00    +0.000 NA
ATOM     21  C   UNL     1       2.719   3.019  17.078  0.00  0.00    +0.000 C 
BRANCH  20  22
ATOM     22  C   UNL     1       3.261   2.548  19.451  0.00  0.00    +0.000 C 
BRANCH  22  23
ATOM     23  C   UNL     1       1.741   2.393  19.498  0.00  0.00    +0.000 C 
BRANCH  23  25
ATOM     24  C   UNL     1       2.112   3.570  21.687  0.00  0.00    +0.000 C 
ATOM     25  C   UNL     1       1.093   3.201  20.620  0.00  0.00    +0.000 C 
ENDBRANCH  23  25
ENDBRANCH  22  23
ENDBRANCH  20  22
ENDBRANCH  17  20
ENDBRANCH  15  17
ENDBRANCH  14  15
ENDBRANCH   1  14
TORSDOF 8
ENDMDL
MODEL 9
REMARK VINA RESULT:      -6.7      1.252      1.545
REMARK  Name = 
REMARK  11 active torsions:
REMARK  status: ('A' for Active; 'I' for Inactive)
REMARK    1  A    between atoms: C_1  and  C_2
REMARK    2  A    between atoms: C_2  and  C_3
REMARK    3  A    between atoms: C_3  and  C_4
REMARK    4  A    between atoms: C_4  and  N_5
REMARK    5  A    between atoms: N_5  and  C_6
REMARK    6  A    between atoms: N_5  and  S_7
REMARK    7  A    between atoms: S_7  and  N_10
REMARK    8  A    between atoms: N_10  and  C_11
REMARK    9  A    between atoms: C_11  and  C_12
REMARK   10  A    between atoms: C_19  and  C_20
REMARK   11  A    between atoms: N_21  and  C_22
REMARK                            x       y       z     vdW  Elec       q    Type
REMARK                         _______ _______ _______ _____ _____    ______ ____
ROOT
ATOM      1  C   UNL     1       2.322   7.716  18.753  0.00  0.00    +0.000 A 
ATOM      2  C   UNL     1       1.770   8.671  17.886  0.00  0.00    +0.000 A 
ATOM      3  C   UNL     1       0.900   9.670  18.342  0.00  0.00    +0.000 A 
ATOM      4  C   UNL     1       0.590   9.691  19.711  0.00  0.00    +0.000 A 
ATOM      5  C   UNL     1       1.127   8.754  20.592  0.00  0.00    +0.000 A 
ATOM      6  C   UNL     1       1.998   7.760  20.118  0.00  0.00    +0.000 A 
ATOM      7  N   UNL     1       0.683   8.951  21.871  0.00  0.00    +0.000 NA
ATOM      8  C   UNL     1      -0.131   9.986  21.809  0.00  0.00    +0.000 A 
ATOM      9  C   UNL     1      -0.892  10.529  22.962  0.00  0.00    +0.000 C 
ATOM     10  N   UNL     1      -0.202  10.478  20.520  0.00  0.00    +0.000 N 
ENDROOT
BRANCH  10  11
ATOM     11  C   UNL     1      -1.027  11.617  20.142  0.00  0.00    +0.000 C 
ATOM     12  C   UNL     1      -0.781  13.038  20.615  0.00  0.00    +0.000 C 
ATOM     13  C   UNL     1      -0.531  12.688  19.187  0.00  0.00    +0.000 C 
ENDBRANCH  10  11
BRANCH   1  14
ATOM     14  C   UNL     1       3.242   6.641  18.226  0.00  0.00    +0.000 C 
BRANCH  14  15
ATOM     15  N   UNL     1       2.456   5.512  17.710  0.00  0.00    +0.000 NA
ATOM     16  H   UNL     1       1.629   5.340  18.284  0.00  0.00    +0.000 HD
BRANCH  15  17
ATOM     17  S   UNL     1       3.270   4.073  17.511  0.00  0.00    +0.000 S 
ATOM     18  O   UNL     1       4.303   4.315  16.537  0.00  0.00    +0.000 OA
ATOM     19  O   UNL     1       2.288   3.030  17.326  0.00  0.00    +0.000 OA
BRANCH  17  20
ATOM     20  N   UNL     1       4.004   3.860  19.031  0.00  0.00    +0.000 NA
ATOM     21  C   UNL     1       5.475   4.039  19.025  0.00  0.00    +0.000 C 
BRANCH  20  22
ATOM     22  C   UNL     1       3.587   2.548  19.629  0.00  0.00    +0.000 C 
BRANCH  22  23
ATOM     23  C   UNL     1       2.849   2.685  20.960  0.00  0.00    +0.000 C 
BRANCH  23  25
ATOM     24  C   UNL     1       0.930   4.248  20.529  0.00  0.00    +0.000 C 
ATOM     25  C   UNL     1       1.336   2.807  20.794  0.00  0.00    +0.000 C 
ENDBRANCH  23  25
ENDBRANCH  22  23
ENDBRANCH  20  22
ENDBRANCH  17  20
ENDBRANCH  15  17
ENDBRANCH  14  15
ENDBRANCH   1  14
TORSDOF 8
ENDMDL
