MODEL 1
REMARK VINA RESULT:      -7.6      0.000      0.000
REMARK  Name = 
REMARK  5 active torsions:
REMARK  status: ('A' for Active; 'I' for Inactive)
REMARK    1  A    between atoms: C_1  and  C_2
REMARK    2  A    between atoms: C_3  and  C_4
REMARK    3  A    between atoms: C_4  and  O_6
REMARK    4  A    between atoms: N_13  and  C_14
REMARK    5  A    between atoms: C_14  and  C_15
REMARK                            x       y       z     vdW  Elec       q    Type
REMARK                         _______ _______ _______ _____ _____    ______ ____
ROOT
ATOM      1  C   UNL     1       4.372   2.362  19.375  0.00  0.00    +0.000 C 
ATOM      2  C   UNL     1       3.606   3.650  19.467  0.00  0.00    +0.000 A 
ATOM      3  C   UNL     1       2.571   3.904  20.372  0.00  0.00    +0.000 A 
ATOM      4  S   UNL     1       1.967   5.498  20.194  0.00  0.00    +0.000 S 
ATOM      5  C   UNL     1       3.055   5.868  18.951  0.00  0.00    +0.000 A 
ATOM      6  N   UNL     1       3.036   7.091  18.403  0.00  0.00    +0.000 NA
ATOM      7  C   UNL     1       3.950   7.228  17.444  0.00  0.00    +0.000 A 
ATOM      8  N   UNL     1       4.819   6.305  17.010  0.00  0.00    +0.000 NA
ATOM      9  C   UNL     1       4.793   5.066  17.557  0.00  0.00    +0.000 A 
ATOM     10  N   UNL     1       5.613   4.097  17.011  0.00  0.00    +0.000 N 
ATOM     11  C   UNL     1       3.881   4.809  18.614  0.00  0.00    +0.000 A 
ATOM     12  H   UNL     1       5.671   3.219  17.509  0.00  0.00    +0.000 HD
ENDROOT
BRANCH   3  13
ATOM     13  C   UNL     1       1.997   3.018  21.382  0.00  0.00    +0.000 C 
ATOM     14  O   UNL     1       2.598   2.492  22.308  0.00  0.00    +0.000 OA
BRANCH  13  15
ATOM     15  O   UNL     1       0.663   2.803  21.218  0.00  0.00    +0.000 OA
ATOM     16  H   UNL     1       0.137   3.598  21.433  0.00  0.00    +0.000 HD
ENDBRANCH  13  15
ENDBRANCH   3  13
BRANCH  10  17
ATOM     17  C   UNL     1       6.924   4.497  16.530  0.00  0.00    +0.000 C 
BRANCH  17  18
ATOM     18  C   UNL     1       6.951   4.511  15.027  0.00  0.00    +0.000 A 
ATOM     19  N   UNL     1       7.649   5.340  14.268  0.00  0.00    +0.000 NA
ATOM     20  C   UNL     1       7.422   4.939  12.978  0.00  0.00    +0.000 A 
ATOM     21  C   UNL     1       6.561   3.869  12.947  0.00  0.00    +0.000 A 
ATOM     22  N   UNL     1       6.264   3.609  14.255  0.00  0.00    +0.000 N 
ATOM     23  H   UNL     1       5.668   2.867  14.599  0.00  0.00    +0.000 HD
ENDBRANCH  17  18
ENDBRANCH  10  17
TORSDOF 4
ENDMDL
MODEL 2
REMARK VINA RESULT:      -7.3      1.739      2.595
REMARK  Name = 
REMARK  5 active torsions:
REMARK  status: ('A' for Active; 'I' for Inactive)
REMARK    1  A    between atoms: C_1  and  C_2
REMARK    2  A    between atoms: C_3  and  C_4
REMARK    3  A    between atoms: C_4  and  O_6
REMARK    4  A    between atoms: N_13  and  C_14
REMARK    5  A    between atoms: C_14  and  C_15
REMARK                            x       y       z     vdW  Elec       q    Type
REMARK                         _______ _______ _______ _____ _____    ______ ____
ROOT
ATOM      1  C   UNL     1       4.029   2.834  18.881  0.00  0.00    +0.000 C 
ATOM      2  C   UNL     1       3.254   4.044  19.313  0.00  0.00    +0.000 A 
ATOM      3  C   UNL     1       2.401   4.097  20.420  0.00  0.00    +0.000 A 
ATOM      4  S   UNL     1       1.723   5.660  20.609  0.00  0.00    +0.000 S 
ATOM      5  C   UNL     1       2.544   6.276  19.263  0.00  0.00    +0.000 A 
ATOM      6  N   UNL     1       2.383   7.564  18.928  0.00  0.00    +0.000 NA
ATOM      7  C   UNL     1       3.094   7.899  17.853  0.00  0.00    +0.000 A 
ATOM      8  N   UNL     1       3.894   7.106  17.128  0.00  0.00    +0.000 NA
ATOM      9  C   UNL     1       4.012   5.799  17.467  0.00  0.00    +0.000 A 
ATOM     10  N   UNL     1       4.744   4.974  16.635  0.00  0.00    +0.000 N 
ATOM     11  C   UNL     1       3.325   5.332  18.618  0.00  0.00    +0.000 A 
ATOM     12  H   UNL     1       4.924   4.037  16.969  0.00  0.00    +0.000 HD
ENDROOT
BRANCH   3  13
ATOM     13  C   UNL     1       2.057   3.036  21.364  0.00  0.00    +0.000 C 
ATOM     14  O   UNL     1       2.837   2.430  22.086  0.00  0.00    +0.000 OA
BRANCH  13  15
ATOM     15  O   UNL     1       0.727   2.750  21.395  0.00  0.00    +0.000 OA
ATOM     16  H   UNL     1       0.259   3.266  22.080  0.00  0.00    +0.000 HD
ENDBRANCH  13  15
ENDBRANCH   3  13
BRANCH  10  17
ATOM     17  C   UNL     1       5.928   5.521  15.993  0.00  0.00    +0.000 C 
BRANCH  17  18
ATOM     18  C   UNL     1       6.780   6.249  16.994  0.00  0.00    +0.000 A 
ATOM     19  N   UNL     1       7.361   5.716  18.056  0.00  0.00    +0.000 NA
ATOM     20  C   UNL     1       8.085   6.728  18.629  0.00  0.00    +0.000 A 
ATOM     21  C   UNL     1       7.928   7.896  17.923  0.00  0.00    +0.000 A 
ATOM     22  N   UNL     1       7.092   7.580  16.889  0.00  0.00    +0.000 N 
ATOM     23  H   UNL     1       6.779   8.206  16.157  0.00  0.00    +0.000 HD
ENDBRANCH  17  18
ENDBRANCH  10  17
TORSDOF 4
ENDMDL
MODEL 3
REMARK VINA RESULT:      -6.9      2.854      5.853
REMARK  Name = 
REMARK  5 active torsions:
REMARK  status: ('A' for Active; 'I' for Inactive)
REMARK    1  A    between atoms: C_1  and  C_2
REMARK    2  A    between atoms: C_3  and  C_4
REMARK    3  A    between atoms: C_4  and  O_6
REMARK    4  A    between atoms: N_13  and  C_14
REMARK    5  A    between atoms: C_14  and  C_15
REMARK                            x       y       z     vdW  Elec       q    Type
REMARK                         _______ _______ _______ _____ _____    ______ ____
ROOT
ATOM      1  C   UNL     1       1.360   5.928  20.757  0.00  0.00    +0.000 C 
ATOM      2  C   UNL     1       2.376   5.135  19.989  0.00  0.00    +0.000 A 
ATOM      3  C   UNL     1       2.704   3.799  20.235  0.00  0.00    +0.000 A 
ATOM      4  S   UNL     1       3.883   3.233  19.127  0.00  0.00    +0.000 S 
ATOM      5  C   UNL     1       3.962   4.717  18.316  0.00  0.00    +0.000 A 
ATOM      6  N   UNL     1       4.784   4.848  17.264  0.00  0.00    +0.000 NA
ATOM      7  C   UNL     1       4.731   6.068  16.733  0.00  0.00    +0.000 A 
ATOM      8  N   UNL     1       3.983   7.102  17.141  0.00  0.00    +0.000 NA
ATOM      9  C   UNL     1       3.188   6.953  18.228  0.00  0.00    +0.000 A 
ATOM     10  N   UNL     1       2.520   8.065  18.703  0.00  0.00    +0.000 N 
ATOM     11  C   UNL     1       3.135   5.684  18.861  0.00  0.00    +0.000 A 
ATOM     12  H   UNL     1       1.839   7.908  19.434  0.00  0.00    +0.000 HD
ENDROOT
BRANCH   3  13
ATOM     13  C   UNL     1       2.181   2.900  21.262  0.00  0.00    +0.000 C 
ATOM     14  O   UNL     1       2.837   2.320  22.116  0.00  0.00    +0.000 OA
BRANCH  13  15
ATOM     15  O   UNL     1       0.831   2.741  21.205  0.00  0.00    +0.000 OA
ATOM     16  H   UNL     1       0.417   2.829  22.086  0.00  0.00    +0.000 HD
ENDBRANCH  13  15
ENDBRANCH   3  13
BRANCH  10  17
ATOM     17  C   UNL     1       2.018   9.029  17.738  0.00  0.00    +0.000 C 
BRANCH  17  18
ATOM     18  C   UNL     1       0.876   9.812  18.324  0.00  0.00    +0.000 A 
ATOM     19  N   UNL     1       0.874  10.428  19.495  0.00  0.00    +0.000 NA
ATOM     20  C   UNL     1      -0.338  11.062  19.576  0.00  0.00    +0.000 A 
ATOM     21  C   UNL     1      -1.091  10.815  18.454  0.00  0.00    +0.000 A 
ATOM     22  N   UNL     1      -0.310  10.015  17.667  0.00  0.00    +0.000 N 
ATOM     23  H   UNL     1      -0.550   9.658  16.751  0.00  0.00    +0.000 HD
ENDBRANCH  17  18
ENDBRANCH  10  17
TORSDOF 4
ENDMDL
MODEL 4
REMARK VINA RESULT:      -6.8      2.670      5.668
REMARK  Name = 
REMARK  5 active torsions:
REMARK  status: ('A' for Active; 'I' for Inactive)
REMARK    1  A    between atoms: C_1  and  C_2
REMARK    2  A    between atoms: C_3  and  C_4
REMARK    3  A    between atoms: C_4  and  O_6
REMARK    4  A    between atoms: N_13  and  C_14
REMARK    5  A    between atoms: C_14  and  C_15
REMARK                            x       y       z     vdW  Elec       q    Type
REMARK                         _______ _______ _______ _____ _____    ______ ____
ROOT
ATOM      1  C   UNL     1       1.491   5.890  20.704  0.00  0.00    +0.000 C 
ATOM      2  C   UNL     1       2.466   5.036  19.948  0.00  0.00    +0.000 A 
ATOM      3  C   UNL     1       2.748   3.697  20.234  0.00  0.00    +0.000 A 
ATOM      4  S   UNL     1       3.888   3.050  19.129  0.00  0.00    +0.000 S 
ATOM      5  C   UNL     1       4.010   4.503  18.268  0.00  0.00    +0.000 A 
ATOM      6  N   UNL     1       4.819   4.569  17.201  0.00  0.00    +0.000 NA
ATOM      7  C   UNL     1       4.804   5.772  16.630  0.00  0.00    +0.000 A 
ATOM      8  N   UNL     1       4.102   6.846  17.014  0.00  0.00    +0.000 NA
ATOM      9  C   UNL     1       3.319   6.763  18.116  0.00  0.00    +0.000 A 
ATOM     10  N   UNL     1       2.699   7.915  18.563  0.00  0.00    +0.000 N 
ATOM     11  C   UNL     1       3.227   5.518  18.792  0.00  0.00    +0.000 A 
ATOM     12  H   UNL     1       2.024   7.807  19.308  0.00  0.00    +0.000 HD
ENDROOT
BRANCH   3  13
ATOM     13  C   UNL     1       2.208   2.852  21.297  0.00  0.00    +0.000 C 
ATOM     14  O   UNL     1       2.852   2.293  22.174  0.00  0.00    +0.000 OA
BRANCH  13  15
ATOM     15  O   UNL     1       0.854   2.721  21.249  0.00  0.00    +0.000 OA
ATOM     16  H   UNL     1       0.580   1.974  20.683  0.00  0.00    +0.000 HD
ENDBRANCH  13  15
ENDBRANCH   3  13
BRANCH  10  17
ATOM     17  C   UNL     1       2.219   8.865  17.574  0.00  0.00    +0.000 C 
BRANCH  17  18
ATOM     18  C   UNL     1       1.741  10.123  18.243  0.00  0.00    +0.000 A 
ATOM     19  N   UNL     1       0.891  10.193  19.255  0.00  0.00    +0.000 NA
ATOM     20  C   UNL     1       0.808  11.522  19.576  0.00  0.00    +0.000 A 
ATOM     21  C   UNL     1       1.598  12.273  18.740  0.00  0.00    +0.000 A 
ATOM     22  N   UNL     1       2.182  11.374  17.894  0.00  0.00    +0.000 N 
ATOM     23  H   UNL     1       2.845  11.585  17.158  0.00  0.00    +0.000 HD
ENDBRANCH  17  18
ENDBRANCH  10  17
TORSDOF 4
ENDMDL
MODEL 5
REMARK VINA RESULT:      -6.7      0.885      1.162
REMARK  Name = 
REMARK  5 active torsions:
REMARK  status: ('A' for Active; 'I' for Inactive)
REMARK    1  A    between atoms: C_1  and  C_2
REMARK    2  A    between atoms: C_3  and  C_4
REMARK    3  A    between atoms: C_4  and  O_6
REMARK    4  A    between atoms: N_13  and  C_14
REMARK    5  A    between atoms: C_14  and  C_15
REMARK                            x       y       z     vdW  Elec       q    Type
REMARK                         _______ _______ _______ _____ _____    ______ ____
ROOT
ATOM      1  C   UNL     1       3.845   2.224  18.731  0.00  0.00    +0.000 C 
ATOM      2  C   UNL     1       3.348   3.599  19.068  0.00  0.00    +0.000 A 
ATOM      3  C   UNL     1       2.556   3.916  20.176  0.00  0.00    +0.000 A 
ATOM      4  S   UNL     1       2.220   5.595  20.242  0.00  0.00    +0.000 S 
ATOM      5  C   UNL     1       3.112   5.919  18.840  0.00  0.00    +0.000 A 
ATOM      6  N   UNL     1       3.210   7.181  18.399  0.00  0.00    +0.000 NA
ATOM      7  C   UNL     1       3.944   7.274  17.292  0.00  0.00    +0.000 A 
ATOM      8  N   UNL     1       4.543   6.277  16.627  0.00  0.00    +0.000 NA
ATOM      9  C   UNL     1       4.399   5.006  17.073  0.00  0.00    +0.000 A 
ATOM     10  N   UNL     1       4.922   3.983  16.305  0.00  0.00    +0.000 N 
ATOM     11  C   UNL     1       3.663   4.785  18.267  0.00  0.00    +0.000 A 
ATOM     12  H   UNL     1       4.914   3.059  16.715  0.00  0.00    +0.000 HD
ENDROOT
BRANCH   3  13
ATOM     13  C   UNL     1       2.027   3.028  21.210  0.00  0.00    +0.000 C 
ATOM     14  O   UNL     1       2.671   2.498  22.105  0.00  0.00    +0.000 OA
BRANCH  13  15
ATOM     15  O   UNL     1       0.686   2.819  21.110  0.00  0.00    +0.000 OA
ATOM     16  H   UNL     1       0.175   3.496  21.594  0.00  0.00    +0.000 HD
ENDBRANCH  13  15
ENDBRANCH   3  13
BRANCH  10  17
ATOM     17  C   UNL     1       6.174   4.220  15.606  0.00  0.00    +0.000 C 
BRANCH  17  18
ATOM     18  C   UNL     1       6.033   3.884  14.148  0.00  0.00    +0.000 A 
ATOM     19  N   UNL     1       4.895   3.781  13.479  0.00  0.00    +0.000 NA
ATOM     20  C   UNL     1       5.252   3.534  12.180  0.00  0.00    +0.000 A 
ATOM     21  C   UNL     1       6.619   3.465  12.057  0.00  0.00    +0.000 A 
ATOM     22  N   UNL     1       7.104   3.684  13.315  0.00  0.00    +0.000 N 
ATOM     23  H   UNL     1       8.079   3.722  13.585  0.00  0.00    +0.000 HD
ENDBRANCH  17  18
ENDBRANCH  10  17
TORSDOF 4
ENDMDL
MODEL 6
REMARK VINA RESULT:      -6.5      2.179      2.931
REMARK  Name = 
REMARK  5 active torsions:
REMARK  status: ('A' for Active; 'I' for Inactive)
REMARK    1  A    between atoms: C_1  and  C_2
REMARK    2  A    between atoms: C_3  and  C_4
REMARK    3  A    between atoms: C_4  and  O_6
REMARK    4  A    between atoms: N_13  and  C_14
REMARK    5  A    between atoms: C_14  and  C_15
REMARK                            x       y       z     vdW  Elec       q    Type
REMARK                         _______ _______ _______ _____ _____    ______ ____
ROOT
ATOM      1  C   UNL     1       2.885   3.357  16.249  0.00  0.00    +0.000 C 
ATOM      2  C   UNL     1       3.706   3.646  17.472  0.00  0.00    +0.000 A 
ATOM      3  C   UNL     1       3.286   3.432  18.788  0.00  0.00    +0.000 A 
ATOM      4  S   UNL     1       4.514   3.850  19.909  0.00  0.00    +0.000 S 
ATOM      5  C   UNL     1       5.599   4.297  18.689  0.00  0.00    +0.000 A 
ATOM      6  N   UNL     1       6.824   4.726  19.025  0.00  0.00    +0.000 NA
ATOM      7  C   UNL     1       7.559   5.036  17.958  0.00  0.00    +0.000 A 
ATOM      8  N   UNL     1       7.195   4.967  16.671  0.00  0.00    +0.000 NA
ATOM      9  C   UNL     1       5.939   4.565  16.361  0.00  0.00    +0.000 A 
ATOM     10  N   UNL     1       5.546   4.618  15.037  0.00  0.00    +0.000 N 
ATOM     11  C   UNL     1       5.071   4.175  17.415  0.00  0.00    +0.000 A 
ATOM     12  H   UNL     1       4.654   4.198  14.811  0.00  0.00    +0.000 HD
ENDROOT
BRANCH   3  13
ATOM     13  C   UNL     1       2.004   2.922  19.271  0.00  0.00    +0.000 C 
ATOM     14  O   UNL     1       1.148   3.565  19.863  0.00  0.00    +0.000 OA
BRANCH  13  15
ATOM     15  O   UNL     1       1.809   1.603  18.999  0.00  0.00    +0.000 OA
ATOM     16  H   UNL     1       1.221   1.179  19.654  0.00  0.00    +0.000 HD
ENDBRANCH  13  15
ENDBRANCH   3  13
BRANCH  10  17
ATOM     17  C   UNL     1       6.530   4.302  14.015  0.00  0.00    +0.000 C 
BRANCH  17  18
ATOM     18  C   UNL     1       5.893   3.533  12.892  0.00  0.00    +0.000 A 
ATOM     19  N   UNL     1       4.678   3.726  12.406  0.00  0.00    +0.000 NA
ATOM     20  C   UNL     1       4.556   2.853  11.358  0.00  0.00    +0.000 A 
ATOM     21  C   UNL     1       5.699   2.105  11.215  0.00  0.00    +0.000 A 
ATOM     22  N   UNL     1       6.540   2.542  12.198  0.00  0.00    +0.000 N 
ATOM     23  H   UNL     1       7.483   2.217  12.371  0.00  0.00    +0.000 HD
ENDBRANCH  17  18
ENDBRANCH  10  17
TORSDOF 4
ENDMDL
MODEL 7
REMARK VINA RESULT:      -6.4      4.031      7.118
REMARK  Name = 
REMARK  5 active torsions:
REMARK  status: ('A' for Active; 'I' for Inactive)
REMARK    1  A    between atoms: C_1  and  C_2
REMARK    2  A    between atoms: C_3  and  C_4
REMARK    3  A    between atoms: C_4  and  O_6
REMARK    4  A    between atoms: N_13  and  C_14
REMARK    5  A    between atoms: C_14  and  C_15
REMARK                            x       y       z     vdW  Elec       q    Type
REMARK                         _______ _______ _______ _____ _____    ______ ____
ROOT
ATOM      1  C   UNL     1       4.285   6.774  17.528  0.00  0.00    +0.000 C 
ATOM      2  C   UNL     1       3.901   5.355  17.832  0.00  0.00    +0.000 A 
ATOM      3  C   UNL     1       4.449   4.227  17.216  0.00  0.00    +0.000 A 
ATOM      4  S   UNL     1       3.781   2.782  17.853  0.00  0.00    +0.000 S 
ATOM      5  C   UNL     1       2.788   3.617  18.941  0.00  0.00    +0.000 A 
ATOM      6  N   UNL     1       1.993   2.925  19.770  0.00  0.00    +0.000 NA
ATOM      7  C   UNL     1       1.278   3.720  20.564  0.00  0.00    +0.000 A 
ATOM      8  N   UNL     1       1.283   5.059  20.593  0.00  0.00    +0.000 NA
ATOM      9  C   UNL     1       2.069   5.735  19.720  0.00  0.00    +0.000 A 
ATOM     10  N   UNL     1       1.967   7.113  19.684  0.00  0.00    +0.000 N 
ATOM     11  C   UNL     1       2.904   4.994  18.843  0.00  0.00    +0.000 A 
ATOM     12  H   UNL     1       2.647   7.603  19.119  0.00  0.00    +0.000 HD
ENDROOT
BRANCH   3  13
ATOM     13  C   UNL     1       5.461   4.156  16.163  0.00  0.00    +0.000 C 
ATOM     14  O   UNL     1       5.263   4.268  14.962  0.00  0.00    +0.000 OA
BRANCH  13  15
ATOM     15  O   UNL     1       6.720   3.947  16.636  0.00  0.00    +0.000 OA
ATOM     16  H   UNL     1       6.788   3.109  17.133  0.00  0.00    +0.000 HD
ENDBRANCH  13  15
ENDBRANCH   3  13
BRANCH  10  17
ATOM     17  C   UNL     1       1.741   7.817  20.935  0.00  0.00    +0.000 C 
BRANCH  17  18
ATOM     18  C   UNL     1       0.858   9.013  20.712  0.00  0.00    +0.000 A 
ATOM     19  N   UNL     1       0.092   9.597  21.619  0.00  0.00    +0.000 NA
ATOM     20  C   UNL     1      -0.468  10.677  20.991  0.00  0.00    +0.000 A 
ATOM     21  C   UNL     1      -0.057  10.743  19.681  0.00  0.00    +0.000 A 
ATOM     22  N   UNL     1       0.781   9.678  19.514  0.00  0.00    +0.000 N 
ATOM     23  H   UNL     1       1.281   9.434  18.668  0.00  0.00    +0.000 HD
ENDBRANCH  17  18
ENDBRANCH  10  17
TORSDOF 4
ENDMDL
MODEL 8
REMARK VINA RESULT:      -6.4      3.986      6.844
REMARK  Name = 
REMARK  5 active torsions:
REMARK  status: ('A' for Active; 'I' for Inactive)
REMARK    1  A    between atoms: C_1  and  C_2
REMARK    2  A    between atoms: C_3  and  C_4
REMARK    3  A    between atoms: C_4  and  O_6
REMARK    4  A    between atoms: N_13  and  C_14
REMARK    5  A    between atoms: C_14  and  C_15
REMARK                            x       y       z     vdW  Elec       q    Type
REMARK                         _______ _______ _______ _____ _____    ______ ____
ROOT
ATOM      1  C   UNL     1       4.714   7.083  16.996  0.00  0.00    +0.000 C 
ATOM      2  C   UNL     1       4.497   5.858  17.836  0.00  0.00    +0.000 A 
ATOM      3  C   UNL     1       5.237   4.676  17.736  0.00  0.00    +0.000 A 
ATOM      4  S   UNL     1       4.717   3.517  18.886  0.00  0.00    +0.000 S 
ATOM      5  C   UNL     1       3.539   4.550  19.527  0.00  0.00    +0.000 A 
ATOM      6  N   UNL     1       2.779   4.127  20.548  0.00  0.00    +0.000 NA
ATOM      7  C   UNL     1       1.904   5.051  20.941  0.00  0.00    +0.000 A 
ATOM      8  N   UNL     1       1.730   6.277  20.430  0.00  0.00    +0.000 NA
ATOM      9  C   UNL     1       2.487   6.666  19.375  0.00  0.00    +0.000 A 
ATOM     10  N   UNL     1       2.207   7.885  18.788  0.00  0.00    +0.000 N 
ATOM     11  C   UNL     1       3.480   5.777  18.887  0.00  0.00    +0.000 A 
ATOM     12  H   UNL     1       2.859   8.211  18.087  0.00  0.00    +0.000 HD
ENDROOT
BRANCH   3  13
ATOM     13  C   UNL     1       6.330   4.353  16.821  0.00  0.00    +0.000 C 
ATOM     14  O   UNL     1       7.453   4.839  16.836  0.00  0.00    +0.000 OA
BRANCH  13  15
ATOM     15  O   UNL     1       6.000   3.413  15.894  0.00  0.00    +0.000 OA
ATOM     16  H   UNL     1       6.786   3.070  15.427  0.00  0.00    +0.000 HD
ENDBRANCH  13  15
ENDBRANCH   3  13
BRANCH  10  17
ATOM     17  C   UNL     1       1.790   8.982  19.645  0.00  0.00    +0.000 C 
BRANCH  17  18
ATOM     18  C   UNL     1       0.507   9.583  19.144  0.00  0.00    +0.000 A 
ATOM     19  N   UNL     1      -0.489  10.030  19.892  0.00  0.00    +0.000 NA
ATOM     20  C   UNL     1      -1.405  10.547  19.016  0.00  0.00    +0.000 A 
ATOM     21  C   UNL     1      -0.977  10.397  17.720  0.00  0.00    +0.000 A 
ATOM     22  N   UNL     1       0.238   9.778  17.813  0.00  0.00    +0.000 N 
ATOM     23  H   UNL     1       0.847   9.531  17.043  0.00  0.00    +0.000 HD
ENDBRANCH  17  18
ENDBRANCH  10  17
TORSDOF 4
ENDMDL
MODEL 9
REMARK VINA RESULT:      -6.3      1.751      2.854
REMARK  Name = 
REMARK  5 active torsions:
REMARK  status: ('A' for Active; 'I' for Inactive)
REMARK    1  A    between atoms: C_1  and  C_2
REMARK    2  A    between atoms: C_3  and  C_4
REMARK    3  A    between atoms: C_4  and  O_6
REMARK    4  A    between atoms: N_13  and  C_14
REMARK    5  A    between atoms: C_14  and  C_15
REMARK                            x       y       z     vdW  Elec       q    Type
REMARK                         _______ _______ _______ _____ _____    ______ ____
ROOT
ATOM      1  C   UNL     1       3.601   2.182  17.810  0.00  0.00    +0.000 C 
ATOM      2  C   UNL     1       2.959   3.497  18.145  0.00  0.00    +0.000 A 
ATOM      3  C   UNL     1       1.813   3.652  18.930  0.00  0.00    +0.000 A 
ATOM      4  S   UNL     1       1.405   5.307  19.116  0.00  0.00    +0.000 S 
ATOM      5  C   UNL     1       2.723   5.827  18.190  0.00  0.00    +0.000 A 
ATOM      6  N   UNL     1       2.917   7.141  18.004  0.00  0.00    +0.000 NA
ATOM      7  C   UNL     1       3.993   7.391  17.259  0.00  0.00    +0.000 A 
ATOM      8  N   UNL     1       4.830   6.498  16.713  0.00  0.00    +0.000 NA
ATOM      9  C   UNL     1       4.590   5.176  16.887  0.00  0.00    +0.000 A 
ATOM     10  N   UNL     1       5.395   4.275  16.216  0.00  0.00    +0.000 N 
ATOM     11  C   UNL     1       3.489   4.786  17.693  0.00  0.00    +0.000 A 
ATOM     12  H   UNL     1       5.280   3.299  16.455  0.00  0.00    +0.000 HD
ENDROOT
BRANCH   3  13
ATOM     13  C   UNL     1       0.989   2.625  19.564  0.00  0.00    +0.000 C 
ATOM     14  O   UNL     1       0.181   1.898  19.003  0.00  0.00    +0.000 OA
BRANCH  13  15
ATOM     15  O   UNL     1       1.193   2.520  20.906  0.00  0.00    +0.000 OA
ATOM     16  H   UNL     1       0.854   3.298  21.388  0.00  0.00    +0.000 HD
ENDBRANCH  13  15
ENDBRANCH   3  13
BRANCH  10  17
ATOM     17  C   UNL     1       6.802   4.598  16.054  0.00  0.00    +0.000 C 
BRANCH  17  18
ATOM     18  C   UNL     1       7.335   5.263  17.292  0.00  0.00    +0.000 A 
ATOM     19  N   UNL     1       7.601   4.666  18.443  0.00  0.00    +0.000 NA
ATOM     20  C   UNL     1       8.127   5.640  19.251  0.00  0.00    +0.000 A 
ATOM     21  C   UNL     1       8.163   6.846  18.595  0.00  0.00    +0.000 A 
ATOM     22  N   UNL     1       7.652   6.595  17.353  0.00  0.00    +0.000 N 
ATOM     23  H   UNL     1       7.551   7.263  16.599  0.00  0.00    +0.000 HD
ENDBRANCH  17  18
ENDBRANCH  10  17
TORSDOF 4
ENDMDL
