MODEL 1
REMARK VINA RESULT:      -9.3      0.000      0.000
REMARK  Name = 
REMARK  9 active torsions:
REMARK  status: ('A' for Active; 'I' for Inactive)
REMARK    1  A    between atoms: C_1  and  O_2
REMARK    2  A    between atoms: O_2  and  C_3
REMARK    3  A    between atoms: C_6  and  C_7
REMARK    4  A    between atoms: C_7  and  O_9
REMARK    5  A    between atoms: C_10  and  N_11
REMARK    6  A    between atoms: N_11  and  C_12
REMARK    7  A    between atoms: C_21  and  N_22
REMARK    8  A    between atoms: N_22  and  S_23
REMARK    9  A    between atoms: S_23  and  C_26
REMARK                            x       y       z     vdW  Elec       q    Type
REMARK                         _______ _______ _______ _____ _____    ______ ____
ROOT
ATOM      1  C   UNL     1       3.789   7.323  17.621  0.00  0.00    +0.000 A 
ATOM      2  N   UNL     1       2.981   8.395  17.492  0.00  0.00    +0.000 NA
ATOM      3  C   UNL     1       2.033   8.556  18.439  0.00  0.00    +0.000 A 
ATOM      4  C   UNL     1       0.969   9.426  18.269  0.00  0.00    +0.000 A 
ATOM      5  C   UNL     1       0.068   9.650  19.300  0.00  0.00    +0.000 A 
ATOM      6  C   UNL     1       0.350   9.149  20.569  0.00  0.00    +0.000 A 
ATOM      7  C   UNL     1       1.384   8.226  20.720  0.00  0.00    +0.000 A 
ATOM      8  C   UNL     1       2.084   7.787  19.608  0.00  0.00    +0.000 A 
ATOM      9  N   UNL     1       2.717   6.595  19.588  0.00  0.00    +0.000 NA
ATOM     10  C   UNL     1       3.363   6.284  18.446  0.00  0.00    +0.000 A 
ENDROOT
BRANCH   1  11
ATOM     11  N   UNL     1       5.170   7.399  17.268  0.00  0.00    +0.000 N 
ATOM     12  H   UNL     1       5.680   7.606  18.141  0.00  0.00    +0.000 HD
BRANCH  11  17
ATOM     13  C   UNL     1       5.802   4.681  14.853  0.00  0.00    +0.000 A 
ATOM     14  C   UNL     1       6.779   3.944  15.506  0.00  0.00    +0.000 A 
ATOM     15  C   UNL     1       7.387   4.467  16.650  0.00  0.00    +0.000 A 
ATOM     16  C   UNL     1       6.972   5.698  17.176  0.00  0.00    +0.000 A 
ATOM     17  C   UNL     1       5.897   6.390  16.568  0.00  0.00    +0.000 A 
ATOM     18  C   UNL     1       5.396   5.917  15.352  0.00  0.00    +0.000 A 
BRANCH  13  20
ATOM     19  C   UNL     1       6.059   3.592  12.843  0.00  0.00    +0.000 C 
ATOM     20  O   UNL     1       5.162   4.242  13.733  0.00  0.00    +0.000 OA
ENDBRANCH  13  20
BRANCH  16  21
ATOM     21  C   UNL     1       7.756   6.220  18.343  0.00  0.00    +0.000 C 
ATOM     22  O   UNL     1       8.133   7.388  18.407  0.00  0.00    +0.000 OA
BRANCH  21  23
ATOM     23  O   UNL     1       7.945   5.350  19.343  0.00  0.00    +0.000 OA
ATOM     24  H   UNL     1       8.828   4.920  19.329  0.00  0.00    +0.000 HD
ENDBRANCH  21  23
ENDBRANCH  16  21
ENDBRANCH  11  17
ENDBRANCH   1  11
BRANCH  10  25
ATOM     25  N   UNL     1       2.629   5.244  17.770  0.00  0.00    +0.000 N 
ATOM     26  H   UNL     1       2.180   5.502  16.885  0.00  0.00    +0.000 HD
BRANCH  25  27
ATOM     27  S   UNL     1       3.164   3.689  17.883  0.00  0.00    +0.000 S 
ATOM     28  O   UNL     1       2.461   2.944  16.847  0.00  0.00    +0.000 OA
ATOM     29  O   UNL     1       4.600   3.684  17.966  0.00  0.00    +0.000 OA
BRANCH  27  30
ATOM     30  C   UNL     1       2.481   3.189  19.438  0.00  0.00    +0.000 A 
ATOM     31  C   UNL     1       1.127   3.324  19.729  0.00  0.00    +0.000 A 
ATOM     32  C   UNL     1       0.692   3.037  21.026  0.00  0.00    +0.000 A 
ATOM     33  C   UNL     1       1.626   2.645  21.974  0.00  0.00    +0.000 A 
ATOM     34  N   UNL     1       2.941   2.498  21.707  0.00  0.00    +0.000 NA
ATOM     35  C   UNL     1       3.340   2.772  20.442  0.00  0.00    +0.000 A 
ENDBRANCH  27  30
ENDBRANCH  25  27
ENDBRANCH  10  25
TORSDOF 8
ENDMDL
MODEL 2
REMARK VINA RESULT:      -8.8      0.525      1.029
REMARK  Name = 
REMARK  9 active torsions:
REMARK  status: ('A' for Active; 'I' for Inactive)
REMARK    1  A    between atoms: C_1  and  O_2
REMARK    2  A    between atoms: O_2  and  C_3
REMARK    3  A    between atoms: C_6  and  C_7
REMARK    4  A    between atoms: C_7  and  O_9
REMARK    5  A    between atoms: C_10  and  N_11
REMARK    6  A    between atoms: N_11  and  C_12
REMARK    7  A    between atoms: C_21  and  N_22
REMARK    8  A    between atoms: N_22  and  S_23
REMARK    9  A    between atoms: S_23  and  C_26
REMARK                            x       y       z     vdW  Elec       q    Type
REMARK                         _______ _______ _______ _____ _____    ______ ____
ROOT
ATOM      1  C   UNL     1       3.795   7.384  17.606  0.00  0.00    +0.000 A 
ATOM      2  N   UNL     1       3.031   8.486  17.470  0.00  0.00    +0.000 NA
ATOM      3  C   UNL     1       2.052   8.660  18.383  0.00  0.00    +0.000 A 
ATOM      4  C   UNL     1       1.026   9.571  18.192  0.00  0.00    +0.000 A 
ATOM      5  C   UNL     1       0.092   9.804  19.192  0.00  0.00    +0.000 A 
ATOM      6  C   UNL     1       0.308   9.267  20.460  0.00  0.00    +0.000 A 
ATOM      7  C   UNL     1       1.303   8.305  20.630  0.00  0.00    +0.000 A 
ATOM      8  C   UNL     1       2.030   7.865  19.535  0.00  0.00    +0.000 A 
ATOM      9  N   UNL     1       2.623   6.653  19.513  0.00  0.00    +0.000 NA
ATOM     10  C   UNL     1       3.302   6.343  18.390  0.00  0.00    +0.000 A 
ENDROOT
BRANCH   1  11
ATOM     11  N   UNL     1       5.191   7.419  17.308  0.00  0.00    +0.000 N 
ATOM     12  H   UNL     1       5.674   7.572  18.207  0.00  0.00    +0.000 HD
BRANCH  11  17
ATOM     13  C   UNL     1       5.804   4.756  14.828  0.00  0.00    +0.000 A 
ATOM     14  C   UNL     1       6.744   3.972  15.481  0.00  0.00    +0.000 A 
ATOM     15  C   UNL     1       7.337   4.443  16.655  0.00  0.00    +0.000 A 
ATOM     16  C   UNL     1       6.945   5.669  17.208  0.00  0.00    +0.000 A 
ATOM     17  C   UNL     1       5.906   6.410  16.595  0.00  0.00    +0.000 A 
ATOM     18  C   UNL     1       5.422   5.988  15.355  0.00  0.00    +0.000 A 
BRANCH  13  20
ATOM     19  C   UNL     1       6.010   3.522  12.898  0.00  0.00    +0.000 C 
ATOM     20  O   UNL     1       5.180   4.369  13.681  0.00  0.00    +0.000 OA
ENDBRANCH  13  20
BRANCH  16  21
ATOM     21  C   UNL     1       7.714   6.134  18.408  0.00  0.00    +0.000 C 
ATOM     22  O   UNL     1       8.009   5.378  19.330  0.00  0.00    +0.000 OA
BRANCH  21  23
ATOM     23  O   UNL     1       8.125   7.408  18.368  0.00  0.00    +0.000 OA
ATOM     24  H   UNL     1       9.103   7.506  18.348  0.00  0.00    +0.000 HD
ENDBRANCH  21  23
ENDBRANCH  16  21
ENDBRANCH  11  17
ENDBRANCH   1  11
BRANCH  10  25
ATOM     25  N   UNL     1       2.560   5.345  17.663  0.00  0.00    +0.000 N 
ATOM     26  H   UNL     1       2.181   5.628  16.754  0.00  0.00    +0.000 HD
BRANCH  25  27
ATOM     27  S   UNL     1       3.009   3.764  17.798  0.00  0.00    +0.000 S 
ATOM     28  O   UNL     1       2.172   3.025  16.863  0.00  0.00    +0.000 OA
ATOM     29  O   UNL     1       4.444   3.671  17.754  0.00  0.00    +0.000 OA
BRANCH  27  30
ATOM     30  C   UNL     1       2.442   3.370  19.429  0.00  0.00    +0.000 A 
ATOM     31  C   UNL     1       3.310   2.944  20.430  0.00  0.00    +0.000 A 
ATOM     32  C   UNL     1       2.766   2.519  21.646  0.00  0.00    +0.000 A 
ATOM     33  C   UNL     1       1.388   2.525  21.802  0.00  0.00    +0.000 A 
ATOM     34  N   UNL     1       0.533   2.944  20.846  0.00  0.00    +0.000 NA
ATOM     35  C   UNL     1       1.080   3.361  19.679  0.00  0.00    +0.000 A 
ENDBRANCH  27  30
ENDBRANCH  25  27
ENDBRANCH  10  25
TORSDOF 8
ENDMDL
MODEL 3
REMARK VINA RESULT:      -8.4      1.678      2.087
REMARK  Name = 
REMARK  9 active torsions:
REMARK  status: ('A' for Active; 'I' for Inactive)
REMARK    1  A    between atoms: C_1  and  O_2
REMARK    2  A    between atoms: O_2  and  C_3
REMARK    3  A    between atoms: C_6  and  C_7
REMARK    4  A    between atoms: C_7  and  O_9
REMARK    5  A    between atoms: C_10  and  N_11
REMARK    6  A    between atoms: N_11  and  C_12
REMARK    7  A    between atoms: C_21  and  N_22
REMARK    8  A    between atoms: N_22  and  S_23
REMARK    9  A    between atoms: S_23  and  C_26
REMARK                            x       y       z     vdW  Elec       q    Type
REMARK                         _______ _______ _______ _____ _____    ______ ____
ROOT
ATOM      1  C   UNL     1       3.306   6.123  18.714  0.00  0.00    +0.000 A 
ATOM      2  N   UNL     1       3.081   7.290  18.076  0.00  0.00    +0.000 NA
ATOM      3  C   UNL     1       2.188   8.128  18.643  0.00  0.00    +0.000 A 
ATOM      4  C   UNL     1       1.652   9.202  17.952  0.00  0.00    +0.000 A 
ATOM      5  C   UNL     1       0.817  10.108  18.593  0.00  0.00    +0.000 A 
ATOM      6  C   UNL     1       0.681  10.044  19.978  0.00  0.00    +0.000 A 
ATOM      7  C   UNL     1       1.170   8.928  20.657  0.00  0.00    +0.000 A 
ATOM      8  C   UNL     1       1.740   7.884  19.947  0.00  0.00    +0.000 A 
ATOM      9  N   UNL     1       1.777   6.626  20.434  0.00  0.00    +0.000 NA
ATOM     10  C   UNL     1       2.361   5.700  19.647  0.00  0.00    +0.000 A 
ENDROOT
BRANCH   1  11
ATOM     11  N   UNL     1       4.610   5.545  18.747  0.00  0.00    +0.000 N 
ATOM     12  H   UNL     1       4.503   4.615  19.180  0.00  0.00    +0.000 HD
BRANCH  11  17
ATOM     13  C   UNL     1       5.724   4.501  15.387  0.00  0.00    +0.000 A 
ATOM     14  C   UNL     1       7.092   4.367  15.572  0.00  0.00    +0.000 A 
ATOM     15  C   UNL     1       7.677   4.832  16.752  0.00  0.00    +0.000 A 
ATOM     16  C   UNL     1       6.884   5.374  17.773  0.00  0.00    +0.000 A 
ATOM     17  C   UNL     1       5.477   5.404  17.621  0.00  0.00    +0.000 A 
ATOM     18  C   UNL     1       4.927   5.058  16.384  0.00  0.00    +0.000 A 
BRANCH  13  20
ATOM     19  C   UNL     1       5.997   3.714  13.243  0.00  0.00    +0.000 C 
ATOM     20  O   UNL     1       5.078   4.073  14.266  0.00  0.00    +0.000 OA
ENDBRANCH  13  20
BRANCH  16  21
ATOM     21  C   UNL     1       7.615   5.939  18.953  0.00  0.00    +0.000 C 
ATOM     22  O   UNL     1       8.320   6.942  18.867  0.00  0.00    +0.000 OA
BRANCH  21  23
ATOM     23  O   UNL     1       7.382   5.325  20.120  0.00  0.00    +0.000 OA
ATOM     24  H   UNL     1       8.200   5.077  20.605  0.00  0.00    +0.000 HD
ENDBRANCH  21  23
ENDBRANCH  16  21
ENDBRANCH  11  17
ENDBRANCH   1  11
BRANCH  10  25
ATOM     25  N   UNL     1       1.336   4.838  19.113  0.00  0.00    +0.000 N 
ATOM     26  H   UNL     1       1.185   4.880  18.099  0.00  0.00    +0.000 HD
BRANCH  25  27
ATOM     27  S   UNL     1       1.081   3.372  19.821  0.00  0.00    +0.000 S 
ATOM     28  O   UNL     1       0.983   3.626  21.252  0.00  0.00    +0.000 OA
ATOM     29  O   UNL     1       0.044   2.673  19.111  0.00  0.00    +0.000 OA
BRANCH  27  30
ATOM     30  C   UNL     1       2.633   2.565  19.541  0.00  0.00    +0.000 A 
ATOM     31  C   UNL     1       2.891   1.840  18.382  0.00  0.00    +0.000 A 
ATOM     32  C   UNL     1       4.085   1.118  18.299  0.00  0.00    +0.000 A 
ATOM     33  C   UNL     1       4.957   1.141  19.377  0.00  0.00    +0.000 A 
ATOM     34  N   UNL     1       4.729   1.847  20.504  0.00  0.00    +0.000 NA
ATOM     35  C   UNL     1       3.571   2.547  20.561  0.00  0.00    +0.000 A 
ENDBRANCH  27  30
ENDBRANCH  25  27
ENDBRANCH  10  25
TORSDOF 8
ENDMDL
MODEL 4
REMARK VINA RESULT:      -8.3      1.199      1.717
REMARK  Name = 
REMARK  9 active torsions:
REMARK  status: ('A' for Active; 'I' for Inactive)
REMARK    1  A    between atoms: C_1  and  O_2
REMARK    2  A    between atoms: O_2  and  C_3
REMARK    3  A    between atoms: C_6  and  C_7
REMARK    4  A    between atoms: C_7  and  O_9
REMARK    5  A    between atoms: C_10  and  N_11
REMARK    6  A    between atoms: N_11  and  C_12
REMARK    7  A    between atoms: C_21  and  N_22
REMARK    8  A    between atoms: N_22  and  S_23
REMARK    9  A    between atoms: S_23  and  C_26
REMARK                            x       y       z     vdW  Elec       q    Type
REMARK                         _______ _______ _______ _____ _____    ______ ____
ROOT
ATOM      1  C   UNL     1       3.268   6.048  18.665  0.00  0.00    +0.000 A 
ATOM      2  N   UNL     1       3.121   7.315  18.228  0.00  0.00    +0.000 NA
ATOM      3  C   UNL     1       2.214   8.076  18.875  0.00  0.00    +0.000 A 
ATOM      4  C   UNL     1       1.757   9.274  18.351  0.00  0.00    +0.000 A 
ATOM      5  C   UNL     1       0.905  10.087  19.086  0.00  0.00    +0.000 A 
ATOM      6  C   UNL     1       0.672   9.790  20.427  0.00  0.00    +0.000 A 
ATOM      7  C   UNL     1       1.081   8.556  20.930  0.00  0.00    +0.000 A 
ATOM      8  C   UNL     1       1.671   7.628  20.086  0.00  0.00    +0.000 A 
ATOM      9  N   UNL     1       1.639   6.304  20.346  0.00  0.00    +0.000 NA
ATOM     10  C   UNL     1       2.249   5.506  19.447  0.00  0.00    +0.000 A 
ENDROOT
BRANCH   1  11
ATOM     11  N   UNL     1       4.551   5.421  18.678  0.00  0.00    +0.000 N 
ATOM     12  H   UNL     1       4.396   4.453  19.000  0.00  0.00    +0.000 HD
BRANCH  11  17
ATOM     13  C   UNL     1       5.792   4.638  15.293  0.00  0.00    +0.000 A 
ATOM     14  C   UNL     1       7.156   4.512  15.513  0.00  0.00    +0.000 A 
ATOM     15  C   UNL     1       7.693   4.901  16.743  0.00  0.00    +0.000 A 
ATOM     16  C   UNL     1       6.858   5.356  17.772  0.00  0.00    +0.000 A 
ATOM     17  C   UNL     1       5.456   5.375  17.576  0.00  0.00    +0.000 A 
ATOM     18  C   UNL     1       4.953   5.110  16.300  0.00  0.00    +0.000 A 
BRANCH  13  20
ATOM     19  C   UNL     1       6.124   3.712  13.213  0.00  0.00    +0.000 C 
ATOM     20  O   UNL     1       5.192   4.280  14.123  0.00  0.00    +0.000 OA
ENDBRANCH  13  20
BRANCH  16  21
ATOM     21  C   UNL     1       7.540   5.848  19.014  0.00  0.00    +0.000 C 
ATOM     22  O   UNL     1       7.439   5.264  20.090  0.00  0.00    +0.000 OA
BRANCH  21  23
ATOM     23  O   UNL     1       8.329   6.917  18.850  0.00  0.00    +0.000 OA
ATOM     24  H   UNL     1       9.135   6.735  18.318  0.00  0.00    +0.000 HD
ENDBRANCH  21  23
ENDBRANCH  16  21
ENDBRANCH  11  17
ENDBRANCH   1  11
BRANCH  10  25
ATOM     25  N   UNL     1       1.241   4.791  18.706  0.00  0.00    +0.000 N 
ATOM     26  H   UNL     1       0.684   5.340  18.044  0.00  0.00    +0.000 HD
BRANCH  25  27
ATOM     27  S   UNL     1       1.527   3.223  18.284  0.00  0.00    +0.000 S 
ATOM     28  O   UNL     1       0.283   2.505  18.531  0.00  0.00    +0.000 OA
ATOM     29  O   UNL     1       2.171   3.185  16.999  0.00  0.00    +0.000 OA
BRANCH  27  30
ATOM     30  C   UNL     1       2.675   2.720  19.535  0.00  0.00    +0.000 A 
ATOM     31  C   UNL     1       3.939   2.228  19.224  0.00  0.00    +0.000 A 
ATOM     32  C   UNL     1       4.730   1.722  20.259  0.00  0.00    +0.000 A 
ATOM     33  C   UNL     1       4.222   1.717  21.550  0.00  0.00    +0.000 A 
ATOM     34  N   UNL     1       3.004   2.200  21.871  0.00  0.00    +0.000 NA
ATOM     35  C   UNL     1       2.256   2.694  20.855  0.00  0.00    +0.000 A 
ENDBRANCH  27  30
ENDBRANCH  25  27
ENDBRANCH  10  25
TORSDOF 8
ENDMDL
MODEL 5
REMARK VINA RESULT:      -8.3      2.375      4.895
REMARK  Name = 
REMARK  9 active torsions:
REMARK  status: ('A' for Active; 'I' for Inactive)
REMARK    1  A    between atoms: C_1  and  O_2
REMARK    2  A    between atoms: O_2  and  C_3
REMARK    3  A    between atoms: C_6  and  C_7
REMARK    4  A    between atoms: C_7  and  O_9
REMARK    5  A    between atoms: C_10  and  N_11
REMARK    6  A    between atoms: N_11  and  C_12
REMARK    7  A    between atoms: C_21  and  N_22
REMARK    8  A    between atoms: N_22  and  S_23
REMARK    9  A    between atoms: S_23  and  C_26
REMARK                            x       y       z     vdW  Elec       q    Type
REMARK                         _______ _______ _______ _____ _____    ______ ____
ROOT
ATOM      1  C   UNL     1       3.822   6.535  18.735  0.00  0.00    +0.000 A 
ATOM      2  N   UNL     1       3.939   5.489  19.577  0.00  0.00    +0.000 NA
ATOM      3  C   UNL     1       2.899   4.630  19.622  0.00  0.00    +0.000 A 
ATOM      4  C   UNL     1       2.762   3.699  20.639  0.00  0.00    +0.000 A 
ATOM      5  C   UNL     1       1.740   2.759  20.603  0.00  0.00    +0.000 A 
ATOM      6  C   UNL     1       0.978   2.630  19.445  0.00  0.00    +0.000 A 
ATOM      7  C   UNL     1       1.077   3.605  18.453  0.00  0.00    +0.000 A 
ATOM      8  C   UNL     1       1.894   4.707  18.650  0.00  0.00    +0.000 A 
ATOM      9  N   UNL     1       1.680   5.876  18.012  0.00  0.00    +0.000 NA
ATOM     10  C   UNL     1       2.546   6.872  18.288  0.00  0.00    +0.000 A 
ENDROOT
BRANCH   1  11
ATOM     11  N   UNL     1       4.954   7.027  18.017  0.00  0.00    +0.000 N 
ATOM     12  H   UNL     1       5.539   7.524  18.706  0.00  0.00    +0.000 HD
BRANCH  11  17
ATOM     13  C   UNL     1       5.971   4.814  15.245  0.00  0.00    +0.000 A 
ATOM     14  C   UNL     1       7.026   4.115  15.814  0.00  0.00    +0.000 A 
ATOM     15  C   UNL     1       7.542   4.529  17.044  0.00  0.00    +0.000 A 
ATOM     16  C   UNL     1       6.963   5.602  17.734  0.00  0.00    +0.000 A 
ATOM     17  C   UNL     1       5.817   6.238  17.199  0.00  0.00    +0.000 A 
ATOM     18  C   UNL     1       5.400   5.897  15.910  0.00  0.00    +0.000 A 
BRANCH  13  20
ATOM     19  C   UNL     1       6.336   3.783  13.222  0.00  0.00    +0.000 C 
ATOM     20  O   UNL     1       5.411   4.474  14.050  0.00  0.00    +0.000 OA
ENDBRANCH  13  20
BRANCH  16  21
ATOM     21  C   UNL     1       7.654   6.034  18.993  0.00  0.00    +0.000 C 
ATOM     22  O   UNL     1       7.558   5.402  20.042  0.00  0.00    +0.000 OA
BRANCH  21  23
ATOM     23  O   UNL     1       8.444   7.108  18.873  0.00  0.00    +0.000 OA
ATOM     24  H   UNL     1       8.001   7.880  18.456  0.00  0.00    +0.000 HD
ENDBRANCH  21  23
ENDBRANCH  16  21
ENDBRANCH  11  17
ENDBRANCH   1  11
BRANCH  10  25
ATOM     25  N   UNL     1       1.871   7.860  19.093  0.00  0.00    +0.000 N 
ATOM     26  H   UNL     1       2.169   7.934  20.071  0.00  0.00    +0.000 HD
BRANCH  25  27
ATOM     27  S   UNL     1       1.372   9.260  18.380  0.00  0.00    +0.000 S 
ATOM     28  O   UNL     1       2.582  10.010  18.071  0.00  0.00    +0.000 OA
ATOM     29  O   UNL     1       0.398   8.958  17.366  0.00  0.00    +0.000 OA
BRANCH  27  30
ATOM     30  C   UNL     1       0.579  10.085  19.732  0.00  0.00    +0.000 A 
ATOM     31  C   UNL     1      -0.303  11.143  19.537  0.00  0.00    +0.000 A 
ATOM     32  C   UNL     1      -0.777  11.831  20.658  0.00  0.00    +0.000 A 
ATOM     33  C   UNL     1      -0.340  11.442  21.916  0.00  0.00    +0.000 A 
ATOM     34  N   UNL     1       0.507  10.412  22.124  0.00  0.00    +0.000 NA
ATOM     35  C   UNL     1       0.947   9.753  21.026  0.00  0.00    +0.000 A 
ENDBRANCH  27  30
ENDBRANCH  25  27
ENDBRANCH  10  25
TORSDOF 8
ENDMDL
MODEL 6
REMARK VINA RESULT:      -8.2      2.405      4.903
REMARK  Name = 
REMARK  9 active torsions:
REMARK  status: ('A' for Active; 'I' for Inactive)
REMARK    1  A    between atoms: C_1  and  O_2
REMARK    2  A    between atoms: O_2  and  C_3
REMARK    3  A    between atoms: C_6  and  C_7
REMARK    4  A    between atoms: C_7  and  O_9
REMARK    5  A    between atoms: C_10  and  N_11
REMARK    6  A    between atoms: N_11  and  C_12
REMARK    7  A    between atoms: C_21  and  N_22
REMARK    8  A    between atoms: N_22  and  S_23
REMARK    9  A    between atoms: S_23  and  C_26
REMARK                            x       y       z     vdW  Elec       q    Type
REMARK                         _______ _______ _______ _____ _____    ______ ____
ROOT
ATOM      1  C   UNL     1       3.826   6.518  18.531  0.00  0.00    +0.000 A 
ATOM      2  N   UNL     1       4.042   5.476  19.359  0.00  0.00    +0.000 NA
ATOM      3  C   UNL     1       3.021   4.608  19.517  0.00  0.00    +0.000 A 
ATOM      4  C   UNL     1       3.002   3.680  20.546  0.00  0.00    +0.000 A 
ATOM      5  C   UNL     1       1.991   2.731  20.623  0.00  0.00    +0.000 A 
ATOM      6  C   UNL     1       1.110   2.590  19.553  0.00  0.00    +0.000 A 
ATOM      7  C   UNL     1       1.094   3.561  18.553  0.00  0.00    +0.000 A 
ATOM      8  C   UNL     1       1.917   4.671  18.658  0.00  0.00    +0.000 A 
ATOM      9  N   UNL     1       1.625   5.837  18.042  0.00  0.00    +0.000 NA
ATOM     10  C   UNL     1       2.506   6.841  18.222  0.00  0.00    +0.000 A 
ENDROOT
BRANCH   1  11
ATOM     11  N   UNL     1       4.870   7.017  17.694  0.00  0.00    +0.000 N 
ATOM     12  H   UNL     1       5.450   7.627  18.289  0.00  0.00    +0.000 HD
BRANCH  11  17
ATOM     13  C   UNL     1       5.933   4.734  14.996  0.00  0.00    +0.000 A 
ATOM     14  C   UNL     1       6.993   4.066  15.592  0.00  0.00    +0.000 A 
ATOM     15  C   UNL     1       7.496   4.524  16.813  0.00  0.00    +0.000 A 
ATOM     16  C   UNL     1       6.899   5.610  17.467  0.00  0.00    +0.000 A 
ATOM     17  C   UNL     1       5.748   6.214  16.906  0.00  0.00    +0.000 A 
ATOM     18  C   UNL     1       5.344   5.829  15.625  0.00  0.00    +0.000 A 
BRANCH  13  20
ATOM     19  C   UNL     1       6.323   3.648  13.007  0.00  0.00    +0.000 C 
ATOM     20  O   UNL     1       5.385   4.351  13.809  0.00  0.00    +0.000 OA
ENDBRANCH  13  20
BRANCH  16  21
ATOM     21  C   UNL     1       7.576   6.089  18.715  0.00  0.00    +0.000 C 
ATOM     22  O   UNL     1       8.348   7.044  18.715  0.00  0.00    +0.000 OA
BRANCH  21  23
ATOM     23  O   UNL     1       7.219   5.456  19.840  0.00  0.00    +0.000 OA
ATOM     24  H   UNL     1       7.939   4.913  20.232  0.00  0.00    +0.000 HD
ENDBRANCH  21  23
ENDBRANCH  16  21
ENDBRANCH  11  17
ENDBRANCH   1  11
BRANCH  10  25
ATOM     25  N   UNL     1       1.912   7.826  19.090  0.00  0.00    +0.000 N 
ATOM     26  H   UNL     1       2.269   7.865  20.050  0.00  0.00    +0.000 HD
BRANCH  25  27
ATOM     27  S   UNL     1       1.415   9.259  18.445  0.00  0.00    +0.000 S 
ATOM     28  O   UNL     1       2.626   9.959  18.034  0.00  0.00    +0.000 OA
ATOM     29  O   UNL     1       0.339   9.019  17.522  0.00  0.00    +0.000 OA
BRANCH  27  30
ATOM     30  C   UNL     1       0.791  10.097  19.875  0.00  0.00    +0.000 A 
ATOM     31  C   UNL     1       0.707   9.476  21.118  0.00  0.00    +0.000 A 
ATOM     32  C   UNL     1       0.074  10.157  22.161  0.00  0.00    +0.000 A 
ATOM     33  C   UNL     1      -0.459  11.414  21.915  0.00  0.00    +0.000 A 
ATOM     34  N   UNL     1      -0.377  12.035  20.720  0.00  0.00    +0.000 NA
ATOM     35  C   UNL     1       0.248  11.363  19.725  0.00  0.00    +0.000 A 
ENDBRANCH  27  30
ENDBRANCH  25  27
ENDBRANCH  10  25
TORSDOF 8
ENDMDL
MODEL 7
REMARK VINA RESULT:      -8.1      1.733      2.239
REMARK  Name = 
REMARK  9 active torsions:
REMARK  status: ('A' for Active; 'I' for Inactive)
REMARK    1  A    between atoms: C_1  and  O_2
REMARK    2  A    between atoms: O_2  and  C_3
REMARK    3  A    between atoms: C_6  and  C_7
REMARK    4  A    between atoms: C_7  and  O_9
REMARK    5  A    between atoms: C_10  and  N_11
REMARK    6  A    between atoms: N_11  and  C_12
REMARK    7  A    between atoms: C_21  and  N_22
REMARK    8  A    between atoms: N_22  and  S_23
REMARK    9  A    between atoms: S_23  and  C_26
REMARK                            x       y       z     vdW  Elec       q    Type
REMARK                         _______ _______ _______ _____ _____    ______ ____
ROOT
ATOM      1  C   UNL     1       3.335   6.200  18.764  0.00  0.00    +0.000 A 
ATOM      2  N   UNL     1       3.106   7.369  18.133  0.00  0.00    +0.000 NA
ATOM      3  C   UNL     1       2.159   8.169  18.665  0.00  0.00    +0.000 A 
ATOM      4  C   UNL     1       1.625   9.238  17.964  0.00  0.00    +0.000 A 
ATOM      5  C   UNL     1       0.730  10.106  18.574  0.00  0.00    +0.000 A 
ATOM      6  C   UNL     1       0.526  10.015  19.949  0.00  0.00    +0.000 A 
ATOM      7  C   UNL     1       1.014   8.904  20.636  0.00  0.00    +0.000 A 
ATOM      8  C   UNL     1       1.654   7.890  19.941  0.00  0.00    +0.000 A 
ATOM      9  N   UNL     1       1.706   6.626  20.410  0.00  0.00    +0.000 NA
ATOM     10  C   UNL     1       2.358   5.732  19.640  0.00  0.00    +0.000 A 
ENDROOT
BRANCH   1  11
ATOM     11  N   UNL     1       4.654   5.662  18.855  0.00  0.00    +0.000 N 
ATOM     12  H   UNL     1       4.563   4.755  19.338  0.00  0.00    +0.000 HD
BRANCH  11  17
ATOM     13  C   UNL     1       5.805   4.625  15.505  0.00  0.00    +0.000 A 
ATOM     14  C   UNL     1       7.150   4.376  15.733  0.00  0.00    +0.000 A 
ATOM     15  C   UNL     1       7.726   4.760  16.947  0.00  0.00    +0.000 A 
ATOM     16  C   UNL     1       6.942   5.335  17.955  0.00  0.00    +0.000 A 
ATOM     17  C   UNL     1       5.548   5.483  17.756  0.00  0.00    +0.000 A 
ATOM     18  C   UNL     1       5.018   5.217  16.491  0.00  0.00    +0.000 A 
BRANCH  13  20
ATOM     19  C   UNL     1       6.077   3.740  13.400  0.00  0.00    +0.000 C 
ATOM     20  O   UNL     1       5.169   4.282  14.350  0.00  0.00    +0.000 OA
ENDBRANCH  13  20
BRANCH  16  21
ATOM     21  C   UNL     1       7.671   5.807  19.177  0.00  0.00    +0.000 C 
ATOM     22  O   UNL     1       7.636   5.191  20.239  0.00  0.00    +0.000 OA
BRANCH  21  23
ATOM     23  O   UNL     1       8.426   6.900  19.008  0.00  0.00    +0.000 OA
ATOM     24  H   UNL     1       7.997   7.595  18.461  0.00  0.00    +0.000 HD
ENDBRANCH  21  23
ENDBRANCH  16  21
ENDBRANCH  11  17
ENDBRANCH   1  11
BRANCH  10  25
ATOM     25  N   UNL     1       1.390   4.847  19.041  0.00  0.00    +0.000 N 
ATOM     26  H   UNL     1       1.383   4.803  18.017  0.00  0.00    +0.000 HD
BRANCH  25  27
ATOM     27  S   UNL     1       0.992   3.454  19.828  0.00  0.00    +0.000 S 
ATOM     28  O   UNL     1       0.840   3.812  21.232  0.00  0.00    +0.000 OA
ATOM     29  O   UNL     1      -0.058   2.784  19.107  0.00  0.00    +0.000 OA
BRANCH  27  30
ATOM     30  C   UNL     1       2.491   2.523  19.687  0.00  0.00    +0.000 A 
ATOM     31  C   UNL     1       3.482   2.566  20.663  0.00  0.00    +0.000 A 
ATOM     32  C   UNL     1       4.693   1.914  20.412  0.00  0.00    +0.000 A 
ATOM     33  C   UNL     1       4.865   1.265  19.198  0.00  0.00    +0.000 A 
ATOM     34  N   UNL     1       3.913   1.205  18.245  0.00  0.00    +0.000 NA
ATOM     35  C   UNL     1       2.743   1.835  18.512  0.00  0.00    +0.000 A 
ENDBRANCH  27  30
ENDBRANCH  25  27
ENDBRANCH  10  25
TORSDOF 8
ENDMDL
MODEL 8
REMARK VINA RESULT:      -7.7      1.899      2.932
REMARK  Name = 
REMARK  9 active torsions:
REMARK  status: ('A' for Active; 'I' for Inactive)
REMARK    1  A    between atoms: C_1  and  O_2
REMARK    2  A    between atoms: O_2  and  C_3
REMARK    3  A    between atoms: C_6  and  C_7
REMARK    4  A    between atoms: C_7  and  O_9
REMARK    5  A    between atoms: C_10  and  N_11
REMARK    6  A    between atoms: N_11  and  C_12
REMARK    7  A    between atoms: C_21  and  N_22
REMARK    8  A    between atoms: N_22  and  S_23
REMARK    9  A    between atoms: S_23  and  C_26
REMARK                            x       y       z     vdW  Elec       q    Type
REMARK                         _______ _______ _______ _____ _____    ______ ____
ROOT
ATOM      1  C   UNL     1       3.808   6.953  17.328  0.00  0.00    +0.000 A 
ATOM      2  N   UNL     1       3.121   8.101  17.160  0.00  0.00    +0.000 NA
ATOM      3  C   UNL     1       2.219   8.412  18.114  0.00  0.00    +0.000 A 
ATOM      4  C   UNL     1       1.255   9.387  17.919  0.00  0.00    +0.000 A 
ATOM      5  C   UNL     1       0.408   9.760  18.954  0.00  0.00    +0.000 A 
ATOM      6  C   UNL     1       0.664   9.294  20.241  0.00  0.00    +0.000 A 
ATOM      7  C   UNL     1       1.593   8.269  20.421  0.00  0.00    +0.000 A 
ATOM      8  C   UNL     1       2.213   7.700  19.320  0.00  0.00    +0.000 A 
ATOM      9  N   UNL     1       2.710   6.446  19.350  0.00  0.00    +0.000 NA
ATOM     10  C   UNL     1       3.290   6.009  18.214  0.00  0.00    +0.000 A 
ENDROOT
BRANCH   1  11
ATOM     11  N   UNL     1       5.180   6.856  16.947  0.00  0.00    +0.000 N 
ATOM     12  H   UNL     1       5.242   7.241  15.992  0.00  0.00    +0.000 HD
BRANCH  11  17
ATOM     13  C   UNL     1       7.924   9.142  17.879  0.00  0.00    +0.000 A 
ATOM     14  C   UNL     1       8.818   8.275  18.490  0.00  0.00    +0.000 A 
ATOM     15  C   UNL     1       8.418   6.970  18.789  0.00  0.00    +0.000 A 
ATOM     16  C   UNL     1       7.146   6.514  18.420  0.00  0.00    +0.000 A 
ATOM     17  C   UNL     1       6.281   7.370  17.697  0.00  0.00    +0.000 A 
ATOM     18  C   UNL     1       6.648   8.708  17.526  0.00  0.00    +0.000 A 
BRANCH  13  20
ATOM     19  C   UNL     1       9.376  10.881  18.272  0.00  0.00    +0.000 C 
ATOM     20  O   UNL     1       8.237  10.427  17.554  0.00  0.00    +0.000 OA
ENDBRANCH  13  20
BRANCH  16  21
ATOM     21  C   UNL     1       6.775   5.136  18.877  0.00  0.00    +0.000 C 
ATOM     22  O   UNL     1       6.389   4.908  20.021  0.00  0.00    +0.000 OA
BRANCH  21  23
ATOM     23  O   UNL     1       6.815   4.187  17.933  0.00  0.00    +0.000 OA
ATOM     24  H   UNL     1       6.411   4.463  17.080  0.00  0.00    +0.000 HD
ENDBRANCH  21  23
ENDBRANCH  16  21
ENDBRANCH  11  17
ENDBRANCH   1  11
BRANCH  10  25
ATOM     25  N   UNL     1       2.429   5.026  17.606  0.00  0.00    +0.000 N 
ATOM     26  H   UNL     1       1.900   5.328  16.781  0.00  0.00    +0.000 HD
BRANCH  25  27
ATOM     27  S   UNL     1       2.887   3.443  17.630  0.00  0.00    +0.000 S 
ATOM     28  O   UNL     1       1.937   2.734  16.784  0.00  0.00    +0.000 OA
ATOM     29  O   UNL     1       4.305   3.353  17.404  0.00  0.00    +0.000 OA
BRANCH  27  30
ATOM     30  C   UNL     1       2.528   2.994  19.305  0.00  0.00    +0.000 A 
ATOM     31  C   UNL     1       1.256   3.129  19.851  0.00  0.00    +0.000 A 
ATOM     32  C   UNL     1       1.086   2.886  21.217  0.00  0.00    +0.000 A 
ATOM     33  C   UNL     1       2.193   2.534  21.976  0.00  0.00    +0.000 A 
ATOM     34  N   UNL     1       3.432   2.388  21.462  0.00  0.00    +0.000 NA
ATOM     35  C   UNL     1       3.573   2.619  20.135  0.00  0.00    +0.000 A 
ENDBRANCH  27  30
ENDBRANCH  25  27
ENDBRANCH  10  25
TORSDOF 8
ENDMDL
MODEL 9
REMARK VINA RESULT:      -7.6      2.294      4.939
REMARK  Name = 
REMARK  9 active torsions:
REMARK  status: ('A' for Active; 'I' for Inactive)
REMARK    1  A    between atoms: C_1  and  O_2
REMARK    2  A    between atoms: O_2  and  C_3
REMARK    3  A    between atoms: C_6  and  C_7
REMARK    4  A    between atoms: C_7  and  O_9
REMARK    5  A    between atoms: C_10  and  N_11
REMARK    6  A    between atoms: N_11  and  C_12
REMARK    7  A    between atoms: C_21  and  N_22
REMARK    8  A    between atoms: N_22  and  S_23
REMARK    9  A    between atoms: S_23  and  C_26
REMARK                            x       y       z     vdW  Elec       q    Type
REMARK                         _______ _______ _______ _____ _____    ______ ____
ROOT
ATOM      1  C   UNL     1       3.493   6.399  18.456  0.00  0.00    +0.000 A 
ATOM      2  N   UNL     1       3.621   5.717  19.612  0.00  0.00    +0.000 NA
ATOM      3  C   UNL     1       2.770   4.688  19.805  0.00  0.00    +0.000 A 
ATOM      4  C   UNL     1       2.597   4.105  21.050  0.00  0.00    +0.000 A 
ATOM      5  C   UNL     1       1.795   2.981  21.198  0.00  0.00    +0.000 A 
ATOM      6  C   UNL     1       1.327   2.327  20.061  0.00  0.00    +0.000 A 
ATOM      7  C   UNL     1       1.450   2.949  18.820  0.00  0.00    +0.000 A 
ATOM      8  C   UNL     1       1.993   4.222  18.738  0.00  0.00    +0.000 A 
ATOM      9  N   UNL     1       1.706   5.056  17.716  0.00  0.00    +0.000 NA
ATOM     10  C   UNL     1       2.298   6.266  17.752  0.00  0.00    +0.000 A 
ENDROOT
BRANCH   1  11
ATOM     11  N   UNL     1       4.639   6.908  17.775  0.00  0.00    +0.000 N 
ATOM     12  H   UNL     1       5.200   7.404  18.484  0.00  0.00    +0.000 HD
BRANCH  11  17
ATOM     13  C   UNL     1       5.753   4.710  15.027  0.00  0.00    +0.000 A 
ATOM     14  C   UNL     1       6.810   4.032  15.619  0.00  0.00    +0.000 A 
ATOM     15  C   UNL     1       7.294   4.458  16.858  0.00  0.00    +0.000 A 
ATOM     16  C   UNL     1       6.681   5.520  17.534  0.00  0.00    +0.000 A 
ATOM     17  C   UNL     1       5.533   6.134  16.975  0.00  0.00    +0.000 A 
ATOM     18  C   UNL     1       5.149   5.783  15.679  0.00  0.00    +0.000 A 
BRANCH  13  20
ATOM     19  C   UNL     1       6.165   3.647  13.030  0.00  0.00    +0.000 C 
ATOM     20  O   UNL     1       5.224   4.357  13.823  0.00  0.00    +0.000 OA
ENDBRANCH  13  20
BRANCH  16  21
ATOM     21  C   UNL     1       7.338   5.968  18.805  0.00  0.00    +0.000 C 
ATOM     22  O   UNL     1       8.224   6.818  18.819  0.00  0.00    +0.000 OA
BRANCH  21  23
ATOM     23  O   UNL     1       6.838   5.436  19.928  0.00  0.00    +0.000 OA
ATOM     24  H   UNL     1       6.383   4.576  19.788  0.00  0.00    +0.000 HD
ENDBRANCH  21  23
ENDBRANCH  16  21
ENDBRANCH  11  17
ENDBRANCH   1  11
BRANCH  10  25
ATOM     25  N   UNL     1       1.302   7.258  18.071  0.00  0.00    +0.000 N 
ATOM     26  H   UNL     1       0.443   6.917  18.514  0.00  0.00    +0.000 HD
BRANCH  25  27
ATOM     27  S   UNL     1       1.794   8.767  18.514  0.00  0.00    +0.000 S 
ATOM     28  O   UNL     1       2.203   8.665  19.909  0.00  0.00    +0.000 OA
ATOM     29  O   UNL     1       2.680   9.294  17.510  0.00  0.00    +0.000 OA
BRANCH  27  30
ATOM     30  C   UNL     1       0.268   9.664  18.483  0.00  0.00    +0.000 A 
ATOM     31  C   UNL     1      -0.659   9.511  17.456  0.00  0.00    +0.000 A 
ATOM     32  C   UNL     1      -1.772  10.357  17.431  0.00  0.00    +0.000 A 
ATOM     33  C   UNL     1      -1.902  11.322  18.419  0.00  0.00    +0.000 A 
ATOM     34  N   UNL     1      -1.019  11.477  19.428  0.00  0.00    +0.000 NA
ATOM     35  C   UNL     1       0.047  10.642  19.439  0.00  0.00    +0.000 A 
ENDBRANCH  27  30
ENDBRANCH  25  27
ENDBRANCH  10  25
TORSDOF 8
ENDMDL
