MODEL 1
REMARK VINA RESULT:      -8.0      0.000      0.000
REMARK  Name = 
REMARK  10 active torsions:
REMARK  status: ('A' for Active; 'I' for Inactive)
REMARK    1  A    between atoms: C_1  and  C_2
REMARK    2  A    between atoms: C_2  and  C_3
REMARK    3  A    between atoms: C_2  and  N_9
REMARK    4  A    between atoms: N_9  and  C_10
REMARK    5  A    between atoms: N_9  and  C_15
REMARK    6  A    between atoms: C_10  and  C_11
REMARK    7  A    between atoms: C_11  and  C_12
REMARK    8  A    between atoms: C_12  and  C_13
REMARK    9  A    between atoms: C_13  and  N_14
REMARK   10  A    between atoms: C_15  and  C_16
REMARK                            x       y       z     vdW  Elec       q    Type
REMARK                         _______ _______ _______ _____ _____    ______ ____
ROOT
ATOM      1  N   UNL     1       7.215   5.962  16.997  0.00  0.00    +0.000 NA
ENDROOT
BRANCH   1   3
ATOM      2  C   UNL     1       4.968   6.531  15.962  0.00  0.00    +0.000 C 
ATOM      3  C   UNL     1       6.069   5.474  16.174  0.00  0.00    +0.000 C 
BRANCH   3   4
ATOM      4  C   UNL     1       6.508   4.953  14.801  0.00  0.00    +0.000 A 
ATOM      5  C   UNL     1       5.734   4.029  14.099  0.00  0.00    +0.000 A 
ATOM      6  C   UNL     1       6.153   3.625  12.835  0.00  0.00    +0.000 A 
ATOM      7  C   UNL     1       7.317   4.162  12.297  0.00  0.00    +0.000 A 
ATOM      8  C   UNL     1       8.020   5.083  13.050  0.00  0.00    +0.000 A 
ATOM      9  N   UNL     1       7.645   5.492  14.279  0.00  0.00    +0.000 NA
ENDBRANCH   3   4
ENDBRANCH   1   3
BRANCH   1  10
ATOM     10  C   UNL     1       7.267   7.437  17.104  0.00  0.00    +0.000 C 
BRANCH  10  11
ATOM     11  C   UNL     1       8.193   7.974  18.201  0.00  0.00    +0.000 C 
BRANCH  11  12
ATOM     12  C   UNL     1       8.389   9.491  18.115  0.00  0.00    +0.000 C 
BRANCH  12  13
ATOM     13  C   UNL     1       9.235   9.949  19.304  0.00  0.00    +0.000 C 
BRANCH  13  14
ATOM     14  N   UNL     1      10.196  10.968  18.910  0.00  0.00    +0.000 NA
ATOM     15  H   UNL     1       9.699  11.785  18.555  0.00  0.00    +0.000 HD
ATOM     16  H   UNL     1      10.752  10.615  18.134  0.00  0.00    +0.000 HD
ENDBRANCH  13  14
ENDBRANCH  12  13
ENDBRANCH  11  12
ENDBRANCH  10  11
ENDBRANCH   1  10
BRANCH   1  17
ATOM     17  C   UNL     1       7.222   5.292  18.325  0.00  0.00    +0.000 C 
BRANCH  17  18
ATOM     18  C   UNL     1       5.875   4.871  18.854  0.00  0.00    +0.000 A 
ATOM     19  N   UNL     1       4.916   5.625  19.353  0.00  0.00    +0.000 NA
ATOM     20  C   UNL     1       3.920   4.772  19.737  0.00  0.00    +0.000 A 
ATOM     21  C   UNL     1       2.690   5.059  20.336  0.00  0.00    +0.000 A 
ATOM     22  C   UNL     1       1.847   3.995  20.675  0.00  0.00    +0.000 A 
ATOM     23  C   UNL     1       2.220   2.675  20.404  0.00  0.00    +0.000 A 
ATOM     24  C   UNL     1       3.440   2.371  19.786  0.00  0.00    +0.000 A 
ATOM     25  C   UNL     1       4.266   3.454  19.469  0.00  0.00    +0.000 A 
ATOM     26  N   UNL     1       5.507   3.544  18.889  0.00  0.00    +0.000 N 
ATOM     27  H   UNL     1       6.070   2.767  18.573  0.00  0.00    +0.000 HD
ENDBRANCH  17  18
ENDBRANCH   1  17
TORSDOF 9
ENDMDL
MODEL 2
REMARK VINA RESULT:      -7.9      3.390      6.076
REMARK  Name = 
REMARK  10 active torsions:
REMARK  status: ('A' for Active; 'I' for Inactive)
REMARK    1  A    between atoms: C_1  and  C_2
REMARK    2  A    between atoms: C_2  and  C_3
REMARK    3  A    between atoms: C_2  and  N_9
REMARK    4  A    between atoms: N_9  and  C_10
REMARK    5  A    between atoms: N_9  and  C_15
REMARK    6  A    between atoms: C_10  and  C_11
REMARK    7  A    between atoms: C_11  and  C_12
REMARK    8  A    between atoms: C_12  and  C_13
REMARK    9  A    between atoms: C_13  and  N_14
REMARK   10  A    between atoms: C_15  and  C_16
REMARK                            x       y       z     vdW  Elec       q    Type
REMARK                         _______ _______ _______ _____ _____    ______ ____
ROOT
ATOM      1  N   UNL     1       4.132   6.034  18.007  0.00  0.00    +0.000 NA
ENDROOT
BRANCH   1   3
ATOM      2  C   UNL     1       3.941   3.776  16.864  0.00  0.00    +0.000 C 
ATOM      3  C   UNL     1       3.221   4.926  17.594  0.00  0.00    +0.000 C 
BRANCH   3   4
ATOM      4  C   UNL     1       2.439   4.334  18.772  0.00  0.00    +0.000 A 
ATOM      5  C   UNL     1       1.440   3.382  18.569  0.00  0.00    +0.000 A 
ATOM      6  C   UNL     1       0.794   2.841  19.675  0.00  0.00    +0.000 A 
ATOM      7  C   UNL     1       1.169   3.246  20.951  0.00  0.00    +0.000 A 
ATOM      8  C   UNL     1       2.177   4.183  21.069  0.00  0.00    +0.000 A 
ATOM      9  N   UNL     1       2.820   4.731  20.017  0.00  0.00    +0.000 NA
ENDBRANCH   3   4
ENDBRANCH   1   3
BRANCH   1  10
ATOM     10  C   UNL     1       5.564   5.716  17.805  0.00  0.00    +0.000 C 
BRANCH  10  11
ATOM     11  C   UNL     1       6.463   6.926  17.536  0.00  0.00    +0.000 C 
BRANCH  11  12
ATOM     12  C   UNL     1       7.797   6.847  18.286  0.00  0.00    +0.000 C 
BRANCH  12  13
ATOM     13  C   UNL     1       7.923   5.465  18.930  0.00  0.00    +0.000 C 
BRANCH  13  14
ATOM     14  N   UNL     1       8.092   5.565  20.372  0.00  0.00    +0.000 NA
ATOM     15  H   UNL     1       7.513   6.324  20.730  0.00  0.00    +0.000 HD
ATOM     16  H   UNL     1       9.056   5.823  20.574  0.00  0.00    +0.000 HD
ENDBRANCH  13  14
ENDBRANCH  12  13
ENDBRANCH  11  12
ENDBRANCH  10  11
ENDBRANCH   1  10
BRANCH   1  17
ATOM     17  C   UNL     1       3.732   7.307  17.350  0.00  0.00    +0.000 C 
BRANCH  17  18
ATOM     18  C   UNL     1       2.654   8.094  18.050  0.00  0.00    +0.000 A 
ATOM     19  N   UNL     1       1.950   9.111  17.593  0.00  0.00    +0.000 NA
ATOM     20  C   UNL     1       1.141   9.508  18.619  0.00  0.00    +0.000 A 
ATOM     21  C   UNL     1       0.211  10.551  18.661  0.00  0.00    +0.000 A 
ATOM     22  C   UNL     1      -0.477  10.786  19.857  0.00  0.00    +0.000 A 
ATOM     23  C   UNL     1      -0.249   9.985  20.980  0.00  0.00    +0.000 A 
ATOM     24  C   UNL     1       0.665   8.924  20.949  0.00  0.00    +0.000 A 
ATOM     25  C   UNL     1       1.344   8.720  19.744  0.00  0.00    +0.000 A 
ATOM     26  N   UNL     1       2.298   7.814  19.351  0.00  0.00    +0.000 N 
ATOM     27  H   UNL     1       2.697   7.088  19.928  0.00  0.00    +0.000 HD
ENDBRANCH  17  18
ENDBRANCH   1  17
TORSDOF 9
ENDMDL
MODEL 3
REMARK VINA RESULT:      -7.9      2.784      6.098
REMARK  Name = 
REMARK  10 active torsions:
REMARK  status: ('A' for Active; 'I' for Inactive)
REMARK    1  A    between atoms: C_1  and  C_2
REMARK    2  A    between atoms: C_2  and  C_3
REMARK    3  A    between atoms: C_2  and  N_9
REMARK    4  A    between atoms: N_9  and  C_10
REMARK    5  A    between atoms: N_9  and  C_15
REMARK    6  A    between atoms: C_10  and  C_11
REMARK    7  A    between atoms: C_11  and  C_12
REMARK    8  A    between atoms: C_12  and  C_13
REMARK    9  A    between atoms: C_13  and  N_14
REMARK   10  A    between atoms: C_15  and  C_16
REMARK                            x       y       z     vdW  Elec       q    Type
REMARK                         _______ _______ _______ _____ _____    ______ ____
ROOT
ATOM      1  N   UNL     1       4.031   4.244  17.521  0.00  0.00    +0.000 NA
ENDROOT
BRANCH   1   3
ATOM      2  C   UNL     1       5.535   3.995  15.492  0.00  0.00    +0.000 C 
ATOM      3  C   UNL     1       5.425   4.043  17.028  0.00  0.00    +0.000 C 
BRANCH   3   4
ATOM      4  C   UNL     1       6.394   5.112  17.547  0.00  0.00    +0.000 A 
ATOM      5  C   UNL     1       6.474   6.367  16.943  0.00  0.00    +0.000 A 
ATOM      6  C   UNL     1       7.335   7.318  17.483  0.00  0.00    +0.000 A 
ATOM      7  C   UNL     1       8.077   7.002  18.615  0.00  0.00    +0.000 A 
ATOM      8  C   UNL     1       7.931   5.742  19.162  0.00  0.00    +0.000 A 
ATOM      9  N   UNL     1       7.110   4.796  18.661  0.00  0.00    +0.000 NA
ENDBRANCH   3   4
ENDBRANCH   1   3
BRANCH   1  10
ATOM     10  C   UNL     1       3.229   2.999  17.521  0.00  0.00    +0.000 C 
BRANCH  10  11
ATOM     11  C   UNL     1       1.818   3.140  18.099  0.00  0.00    +0.000 C 
BRANCH  11  12
ATOM     12  C   UNL     1       1.511   2.084  19.167  0.00  0.00    +0.000 C 
BRANCH  12  13
ATOM     13  C   UNL     1       1.352   2.779  20.520  0.00  0.00    +0.000 C 
BRANCH  13  14
ATOM     14  N   UNL     1       0.661   4.053  20.384  0.00  0.00    +0.000 NA
ATOM     15  H   UNL     1      -0.341   3.909  20.501  0.00  0.00    +0.000 HD
ATOM     16  H   UNL     1       0.789   4.399  19.434  0.00  0.00    +0.000 HD
ENDBRANCH  13  14
ENDBRANCH  12  13
ENDBRANCH  11  12
ENDBRANCH  10  11
ENDBRANCH   1  10
BRANCH   1  17
ATOM     17  C   UNL     1       4.041   4.918  18.847  0.00  0.00    +0.000 C 
BRANCH  17  18
ATOM     18  C   UNL     1       3.212   6.173  18.950  0.00  0.00    +0.000 A 
ATOM     19  N   UNL     1       3.009   7.101  18.036  0.00  0.00    +0.000 NA
ATOM     20  C   UNL     1       2.231   8.055  18.628  0.00  0.00    +0.000 A 
ATOM     21  C   UNL     1       1.744   9.254  18.098  0.00  0.00    +0.000 A 
ATOM     22  C   UNL     1       0.991  10.094  18.927  0.00  0.00    +0.000 A 
ATOM     23  C   UNL     1       0.720   9.734  20.250  0.00  0.00    +0.000 A 
ATOM     24  C   UNL     1       1.185   8.527  20.791  0.00  0.00    +0.000 A 
ATOM     25  C   UNL     1       1.942   7.714  19.942  0.00  0.00    +0.000 A 
ATOM     26  N   UNL     1       2.561   6.502  20.118  0.00  0.00    +0.000 N 
ATOM     27  H   UNL     1       2.569   5.959  20.971  0.00  0.00    +0.000 HD
ENDBRANCH  17  18
ENDBRANCH   1  17
TORSDOF 9
ENDMDL
MODEL 4
REMARK VINA RESULT:      -7.8      2.867      6.139
REMARK  Name = 
REMARK  10 active torsions:
REMARK  status: ('A' for Active; 'I' for Inactive)
REMARK    1  A    between atoms: C_1  and  C_2
REMARK    2  A    between atoms: C_2  and  C_3
REMARK    3  A    between atoms: C_2  and  N_9
REMARK    4  A    between atoms: N_9  and  C_10
REMARK    5  A    between atoms: N_9  and  C_15
REMARK    6  A    between atoms: C_10  and  C_11
REMARK    7  A    between atoms: C_11  and  C_12
REMARK    8  A    between atoms: C_12  and  C_13
REMARK    9  A    between atoms: C_13  and  N_14
REMARK   10  A    between atoms: C_15  and  C_16
REMARK                            x       y       z     vdW  Elec       q    Type
REMARK                         _______ _______ _______ _____ _____    ______ ____
ROOT
ATOM      1  N   UNL     1       3.858   4.481  17.410  0.00  0.00    +0.000 NA
ENDROOT
BRANCH   1   3
ATOM      2  C   UNL     1       5.426   3.988  15.476  0.00  0.00    +0.000 C 
ATOM      3  C   UNL     1       5.251   4.135  17.000  0.00  0.00    +0.000 C 
BRANCH   3   4
ATOM      4  C   UNL     1       6.284   5.147  17.508  0.00  0.00    +0.000 A 
ATOM      5  C   UNL     1       6.451   6.383  16.882  0.00  0.00    +0.000 A 
ATOM      6  C   UNL     1       7.369   7.285  17.412  0.00  0.00    +0.000 A 
ATOM      7  C   UNL     1       8.080   6.942  18.556  0.00  0.00    +0.000 A 
ATOM      8  C   UNL     1       7.848   5.705  19.124  0.00  0.00    +0.000 A 
ATOM      9  N   UNL     1       6.970   4.806  18.634  0.00  0.00    +0.000 NA
ENDBRANCH   3   4
ENDBRANCH   1   3
BRANCH   1  10
ATOM     10  C   UNL     1       2.896   3.378  17.188  0.00  0.00    +0.000 C 
BRANCH  10  11
ATOM     11  C   UNL     1       2.793   2.369  18.336  0.00  0.00    +0.000 C 
BRANCH  11  12
ATOM     12  C   UNL     1       1.361   2.216  18.859  0.00  0.00    +0.000 C 
BRANCH  12  13
ATOM     13  C   UNL     1       1.306   2.713  20.304  0.00  0.00    +0.000 C 
BRANCH  13  14
ATOM     14  N   UNL     1       0.683   4.025  20.391  0.00  0.00    +0.000 NA
ATOM     15  H   UNL     1       1.398   4.730  20.570  0.00  0.00    +0.000 HD
ATOM     16  H   UNL     1       0.059   4.043  21.196  0.00  0.00    +0.000 HD
ENDBRANCH  13  14
ENDBRANCH  12  13
ENDBRANCH  11  12
ENDBRANCH  10  11
ENDBRANCH   1  10
BRANCH   1  17
ATOM     17  C   UNL     1       3.839   4.983  18.810  0.00  0.00    +0.000 C 
BRANCH  17  18
ATOM     18  C   UNL     1       3.085   6.268  19.034  0.00  0.00    +0.000 A 
ATOM     19  N   UNL     1       2.414   6.652  20.103  0.00  0.00    +0.000 NA
ATOM     20  C   UNL     1       1.870   7.866  19.797  0.00  0.00    +0.000 A 
ATOM     21  C   UNL     1       1.058   8.695  20.577  0.00  0.00    +0.000 A 
ATOM     22  C   UNL     1       0.588   9.889  20.018  0.00  0.00    +0.000 A 
ATOM     23  C   UNL     1       0.936  10.251  18.713  0.00  0.00    +0.000 A 
ATOM     24  C   UNL     1       1.764   9.441  17.925  0.00  0.00    +0.000 A 
ATOM     25  C   UNL     1       2.209   8.250  18.507  0.00  0.00    +0.000 A 
ATOM     26  N   UNL     1       3.000   7.226  18.049  0.00  0.00    +0.000 N 
ATOM     27  H   UNL     1       3.419   7.167  17.131  0.00  0.00    +0.000 HD
ENDBRANCH  17  18
ENDBRANCH   1  17
TORSDOF 9
ENDMDL
MODEL 5
REMARK VINA RESULT:      -7.7      0.809      1.392
REMARK  Name = 
REMARK  10 active torsions:
REMARK  status: ('A' for Active; 'I' for Inactive)
REMARK    1  A    between atoms: C_1  and  C_2
REMARK    2  A    between atoms: C_2  and  C_3
REMARK    3  A    between atoms: C_2  and  N_9
REMARK    4  A    between atoms: N_9  and  C_10
REMARK    5  A    between atoms: N_9  and  C_15
REMARK    6  A    between atoms: C_10  and  C_11
REMARK    7  A    between atoms: C_11  and  C_12
REMARK    8  A    between atoms: C_12  and  C_13
REMARK    9  A    between atoms: C_13  and  N_14
REMARK   10  A    between atoms: C_15  and  C_16
REMARK                            x       y       z     vdW  Elec       q    Type
REMARK                         _______ _______ _______ _____ _____    ______ ____
ROOT
ATOM      1  N   UNL     1       6.655   5.614  17.149  0.00  0.00    +0.000 NA
ENDROOT
BRANCH   1   3
ATOM      2  C   UNL     1       4.876   6.817  15.796  0.00  0.00    +0.000 C 
ATOM      3  C   UNL     1       5.613   5.496  16.087  0.00  0.00    +0.000 C 
BRANCH   3   4
ATOM      4  C   UNL     1       6.175   4.957  14.767  0.00  0.00    +0.000 A 
ATOM      5  C   UNL     1       5.469   4.019  14.012  0.00  0.00    +0.000 A 
ATOM      6  C   UNL     1       6.001   3.597  12.797  0.00  0.00    +0.000 A 
ATOM      7  C   UNL     1       7.206   4.132  12.358  0.00  0.00    +0.000 A 
ATOM      8  C   UNL     1       7.837   5.066  13.156  0.00  0.00    +0.000 A 
ATOM      9  N   UNL     1       7.352   5.492  14.341  0.00  0.00    +0.000 NA
ENDBRANCH   3   4
ENDBRANCH   1   3
BRANCH   1  10
ATOM     10  C   UNL     1       6.648   6.931  17.826  0.00  0.00    +0.000 C 
BRANCH  10  11
ATOM     11  C   UNL     1       8.023   7.590  17.971  0.00  0.00    +0.000 C 
BRANCH  11  12
ATOM     12  C   UNL     1       7.975   9.106  17.751  0.00  0.00    +0.000 C 
BRANCH  12  13
ATOM     13  C   UNL     1       8.908   9.783  18.757  0.00  0.00    +0.000 C 
BRANCH  13  14
ATOM     14  N   UNL     1       9.625  10.894  18.150  0.00  0.00    +0.000 NA
ATOM     15  H   UNL     1       9.311  11.017  17.188  0.00  0.00    +0.000 HD
ATOM     16  H   UNL     1      10.615  10.660  18.098  0.00  0.00    +0.000 HD
ENDBRANCH  13  14
ENDBRANCH  12  13
ENDBRANCH  11  12
ENDBRANCH  10  11
ENDBRANCH   1  10
BRANCH   1  17
ATOM     17  C   UNL     1       6.552   4.480  18.105  0.00  0.00    +0.000 C 
BRANCH  17  18
ATOM     18  C   UNL     1       5.166   4.174  18.613  0.00  0.00    +0.000 A 
ATOM     19  N   UNL     1       4.393   3.146  18.322  0.00  0.00    +0.000 NA
ATOM     20  C   UNL     1       3.221   3.349  18.993  0.00  0.00    +0.000 A 
ATOM     21  C   UNL     1       2.065   2.563  19.014  0.00  0.00    +0.000 A 
ATOM     22  C   UNL     1       0.966   3.009  19.757  0.00  0.00    +0.000 A 
ATOM     23  C   UNL     1       1.029   4.207  20.474  0.00  0.00    +0.000 A 
ATOM     24  C   UNL     1       2.186   4.997  20.480  0.00  0.00    +0.000 A 
ATOM     25  C   UNL     1       3.264   4.531  19.720  0.00  0.00    +0.000 A 
ATOM     26  N   UNL     1       4.520   5.028  19.478  0.00  0.00    +0.000 N 
ATOM     27  H   UNL     1       4.895   5.892  19.844  0.00  0.00    +0.000 HD
ENDBRANCH  17  18
ENDBRANCH   1  17
TORSDOF 9
ENDMDL
MODEL 6
REMARK VINA RESULT:      -7.7      3.355      6.088
REMARK  Name = 
REMARK  10 active torsions:
REMARK  status: ('A' for Active; 'I' for Inactive)
REMARK    1  A    between atoms: C_1  and  C_2
REMARK    2  A    between atoms: C_2  and  C_3
REMARK    3  A    between atoms: C_2  and  N_9
REMARK    4  A    between atoms: N_9  and  C_10
REMARK    5  A    between atoms: N_9  and  C_15
REMARK    6  A    between atoms: C_10  and  C_11
REMARK    7  A    between atoms: C_11  and  C_12
REMARK    8  A    between atoms: C_12  and  C_13
REMARK    9  A    between atoms: C_13  and  N_14
REMARK   10  A    between atoms: C_15  and  C_16
REMARK                            x       y       z     vdW  Elec       q    Type
REMARK                         _______ _______ _______ _____ _____    ______ ____
ROOT
ATOM      1  N   UNL     1       4.191   5.943  17.966  0.00  0.00    +0.000 NA
ENDROOT
BRANCH   1   3
ATOM      2  C   UNL     1       3.950   3.670  16.862  0.00  0.00    +0.000 C 
ATOM      3  C   UNL     1       3.260   4.836  17.595  0.00  0.00    +0.000 C 
BRANCH   3   4
ATOM      4  C   UNL     1       2.508   4.267  18.803  0.00  0.00    +0.000 A 
ATOM      5  C   UNL     1       1.373   3.472  18.637  0.00  0.00    +0.000 A 
ATOM      6  C   UNL     1       0.755   2.940  19.765  0.00  0.00    +0.000 A 
ATOM      7  C   UNL     1       1.291   3.198  21.022  0.00  0.00    +0.000 A 
ATOM      8  C   UNL     1       2.425   3.983  21.101  0.00  0.00    +0.000 A 
ATOM      9  N   UNL     1       3.045   4.517  20.029  0.00  0.00    +0.000 NA
ENDBRANCH   3   4
ENDBRANCH   1   3
BRANCH   1  10
ATOM     10  C   UNL     1       5.601   5.657  17.620  0.00  0.00    +0.000 C 
BRANCH  10  11
ATOM     11  C   UNL     1       6.484   6.895  17.432  0.00  0.00    +0.000 C 
BRANCH  11  12
ATOM     12  C   UNL     1       7.765   6.837  18.272  0.00  0.00    +0.000 C 
BRANCH  12  13
ATOM     13  C   UNL     1       7.869   5.457  18.922  0.00  0.00    +0.000 C 
BRANCH  13  14
ATOM     14  N   UNL     1       8.091   5.562  20.357  0.00  0.00    +0.000 NA
ATOM     15  H   UNL     1       8.308   4.641  20.736  0.00  0.00    +0.000 HD
ATOM     16  H   UNL     1       7.224   5.855  20.804  0.00  0.00    +0.000 HD
ENDBRANCH  13  14
ENDBRANCH  12  13
ENDBRANCH  11  12
ENDBRANCH  10  11
ENDBRANCH   1  10
BRANCH   1  17
ATOM     17  C   UNL     1       3.713   7.233  17.402  0.00  0.00    +0.000 C 
BRANCH  17  18
ATOM     18  C   UNL     1       2.697   7.975  18.232  0.00  0.00    +0.000 A 
ATOM     19  N   UNL     1       2.368   7.782  19.494  0.00  0.00    +0.000 NA
ATOM     20  C   UNL     1       1.368   8.671  19.767  0.00  0.00    +0.000 A 
ATOM     21  C   UNL     1       0.659   8.868  20.956  0.00  0.00    +0.000 A 
ATOM     22  C   UNL     1      -0.361   9.826  20.976  0.00  0.00    +0.000 A 
ATOM     23  C   UNL     1      -0.653  10.580  19.835  0.00  0.00    +0.000 A 
ATOM     24  C   UNL     1       0.060  10.409  18.642  0.00  0.00    +0.000 A 
ATOM     25  C   UNL     1       1.066   9.437  18.650  0.00  0.00    +0.000 A 
ATOM     26  N   UNL     1       1.939   8.989  17.690  0.00  0.00    +0.000 N 
ATOM     27  H   UNL     1       1.994   9.323  16.738  0.00  0.00    +0.000 HD
ENDBRANCH  17  18
ENDBRANCH   1  17
TORSDOF 9
ENDMDL
MODEL 7
REMARK VINA RESULT:      -7.4      2.802      6.080
REMARK  Name = 
REMARK  10 active torsions:
REMARK  status: ('A' for Active; 'I' for Inactive)
REMARK    1  A    between atoms: C_1  and  C_2
REMARK    2  A    between atoms: C_2  and  C_3
REMARK    3  A    between atoms: C_2  and  N_9
REMARK    4  A    between atoms: N_9  and  C_10
REMARK    5  A    between atoms: N_9  and  C_15
REMARK    6  A    between atoms: C_10  and  C_11
REMARK    7  A    between atoms: C_11  and  C_12
REMARK    8  A    between atoms: C_12  and  C_13
REMARK    9  A    between atoms: C_13  and  N_14
REMARK   10  A    between atoms: C_15  and  C_16
REMARK                            x       y       z     vdW  Elec       q    Type
REMARK                         _______ _______ _______ _____ _____    ______ ____
ROOT
ATOM      1  N   UNL     1       3.957   4.428  17.359  0.00  0.00    +0.000 NA
ENDROOT
BRANCH   1   3
ATOM      2  C   UNL     1       5.366   4.474  15.249  0.00  0.00    +0.000 C 
ATOM      3  C   UNL     1       5.333   4.366  16.785  0.00  0.00    +0.000 C 
BRANCH   3   4
ATOM      4  C   UNL     1       6.263   5.437  17.364  0.00  0.00    +0.000 A 
ATOM      5  C   UNL     1       7.166   5.135  18.384  0.00  0.00    +0.000 A 
ATOM      6  C   UNL     1       8.021   6.132  18.841  0.00  0.00    +0.000 A 
ATOM      7  C   UNL     1       7.970   7.394  18.261  0.00  0.00    +0.000 A 
ATOM      8  C   UNL     1       7.059   7.611  17.246  0.00  0.00    +0.000 A 
ATOM      9  N   UNL     1       6.212   6.668  16.783  0.00  0.00    +0.000 NA
ENDBRANCH   3   4
ENDBRANCH   1   3
BRANCH   1  10
ATOM     10  C   UNL     1       3.242   3.133  17.299  0.00  0.00    +0.000 C 
BRANCH  10  11
ATOM     11  C   UNL     1       1.967   3.059  18.144  0.00  0.00    +0.000 C 
BRANCH  11  12
ATOM     12  C   UNL     1       2.129   2.163  19.377  0.00  0.00    +0.000 C 
BRANCH  12  13
ATOM     13  C   UNL     1       1.147   2.623  20.456  0.00  0.00    +0.000 C 
BRANCH  13  14
ATOM     14  N   UNL     1       0.733   4.001  20.244  0.00  0.00    +0.000 NA
ATOM     15  H   UNL     1       1.409   4.471  19.641  0.00  0.00    +0.000 HD
ATOM     16  H   UNL     1       0.756   4.495  21.135  0.00  0.00    +0.000 HD
ENDBRANCH  13  14
ENDBRANCH  12  13
ENDBRANCH  11  12
ENDBRANCH  10  11
ENDBRANCH   1  10
BRANCH   1  17
ATOM     17  C   UNL     1       3.993   4.998  18.732  0.00  0.00    +0.000 C 
BRANCH  17  18
ATOM     18  C   UNL     1       3.218   6.276  18.931  0.00  0.00    +0.000 A 
ATOM     19  N   UNL     1       2.484   6.639  19.964  0.00  0.00    +0.000 NA
ATOM     20  C   UNL     1       1.950   7.855  19.645  0.00  0.00    +0.000 A 
ATOM     21  C   UNL     1       1.088   8.667  20.389  0.00  0.00    +0.000 A 
ATOM     22  C   UNL     1       0.643   9.866  19.820  0.00  0.00    +0.000 A 
ATOM     23  C   UNL     1       1.064  10.250  18.544  0.00  0.00    +0.000 A 
ATOM     24  C   UNL     1       1.942   9.457  17.793  0.00  0.00    +0.000 A 
ATOM     25  C   UNL     1       2.361   8.261  18.382  0.00  0.00    +0.000 A 
ATOM     26  N   UNL     1       3.184   7.248  17.956  0.00  0.00    +0.000 N 
ATOM     27  H   UNL     1       3.656   7.205  17.064  0.00  0.00    +0.000 HD
ENDBRANCH  17  18
ENDBRANCH   1  17
TORSDOF 9
ENDMDL
MODEL 8
REMARK VINA RESULT:      -7.3      3.248      6.472
REMARK  Name = 
REMARK  10 active torsions:
REMARK  status: ('A' for Active; 'I' for Inactive)
REMARK    1  A    between atoms: C_1  and  C_2
REMARK    2  A    between atoms: C_2  and  C_3
REMARK    3  A    between atoms: C_2  and  N_9
REMARK    4  A    between atoms: N_9  and  C_10
REMARK    5  A    between atoms: N_9  and  C_15
REMARK    6  A    between atoms: C_10  and  C_11
REMARK    7  A    between atoms: C_11  and  C_12
REMARK    8  A    between atoms: C_12  and  C_13
REMARK    9  A    between atoms: C_13  and  N_14
REMARK   10  A    between atoms: C_15  and  C_16
REMARK                            x       y       z     vdW  Elec       q    Type
REMARK                         _______ _______ _______ _____ _____    ______ ____
ROOT
ATOM      1  N   UNL     1       3.247   5.243  18.126  0.00  0.00    +0.000 NA
ENDROOT
BRANCH   1   3
ATOM      2  C   UNL     1       4.580   4.053  16.324  0.00  0.00    +0.000 C 
ATOM      3  C   UNL     1       4.540   4.588  17.768  0.00  0.00    +0.000 C 
BRANCH   3   4
ATOM      4  C   UNL     1       5.746   5.510  17.974  0.00  0.00    +0.000 A 
ATOM      5  C   UNL     1       6.736   5.204  18.909  0.00  0.00    +0.000 A 
ATOM      6  C   UNL     1       7.836   6.050  19.023  0.00  0.00    +0.000 A 
ATOM      7  C   UNL     1       7.930   7.163  18.196  0.00  0.00    +0.000 A 
ATOM      8  C   UNL     1       6.915   7.389  17.286  0.00  0.00    +0.000 A 
ATOM      9  N   UNL     1       5.834   6.592  17.153  0.00  0.00    +0.000 NA
ENDBRANCH   3   4
ENDBRANCH   1   3
BRANCH   1  10
ATOM     10  C   UNL     1       2.077   4.353  17.957  0.00  0.00    +0.000 C 
BRANCH  10  11
ATOM     11  C   UNL     1       2.216   2.972  18.605  0.00  0.00    +0.000 C 
BRANCH  11  12
ATOM     12  C   UNL     1       1.028   2.623  19.507  0.00  0.00    +0.000 C 
BRANCH  12  13
ATOM     13  C   UNL     1       1.171   3.378  20.830  0.00  0.00    +0.000 C 
BRANCH  13  14
ATOM     14  N   UNL     1       1.586   2.490  21.905  0.00  0.00    +0.000 NA
ATOM     15  H   UNL     1       1.702   3.027  22.764  0.00  0.00    +0.000 HD
ATOM     16  H   UNL     1       2.505   2.109  21.684  0.00  0.00    +0.000 HD
ENDBRANCH  13  14
ENDBRANCH  12  13
ENDBRANCH  11  12
ENDBRANCH  10  11
ENDBRANCH   1  10
BRANCH   1  17
ATOM     17  C   UNL     1       3.324   5.832  19.490  0.00  0.00    +0.000 C 
BRANCH  17  18
ATOM     18  C   UNL     1       2.439   7.027  19.738  0.00  0.00    +0.000 A 
ATOM     19  N   UNL     1       2.101   7.987  18.901  0.00  0.00    +0.000 NA
ATOM     20  C   UNL     1       1.328   8.860  19.613  0.00  0.00    +0.000 A 
ATOM     21  C   UNL     1       0.728  10.052  19.198  0.00  0.00    +0.000 A 
ATOM     22  C   UNL     1       0.008  10.800  20.137  0.00  0.00    +0.000 A 
ATOM     23  C   UNL     1      -0.120  10.356  21.456  0.00  0.00    +0.000 A 
ATOM     24  C   UNL     1       0.459   9.153  21.883  0.00  0.00    +0.000 A 
ATOM     25  C   UNL     1       1.181   8.434  20.926  0.00  0.00    +0.000 A 
ATOM     26  N   UNL     1       1.881   7.254  20.976  0.00  0.00    +0.000 N 
ATOM     27  H   UNL     1       1.996   6.669  21.792  0.00  0.00    +0.000 HD
ENDBRANCH  17  18
ENDBRANCH   1  17
TORSDOF 9
ENDMDL
MODEL 9
REMARK VINA RESULT:      -7.3      2.764      6.070
REMARK  Name = 
REMARK  10 active torsions:
REMARK  status: ('A' for Active; 'I' for Inactive)
REMARK    1  A    between atoms: C_1  and  C_2
REMARK    2  A    between atoms: C_2  and  C_3
REMARK    3  A    between atoms: C_2  and  N_9
REMARK    4  A    between atoms: N_9  and  C_10
REMARK    5  A    between atoms: N_9  and  C_15
REMARK    6  A    between atoms: C_10  and  C_11
REMARK    7  A    between atoms: C_11  and  C_12
REMARK    8  A    between atoms: C_12  and  C_13
REMARK    9  A    between atoms: C_13  and  N_14
REMARK   10  A    between atoms: C_15  and  C_16
REMARK                            x       y       z     vdW  Elec       q    Type
REMARK                         _______ _______ _______ _____ _____    ______ ____
ROOT
ATOM      1  N   UNL     1       3.991   4.260  18.208  0.00  0.00    +0.000 NA
ENDROOT
BRANCH   1   3
ATOM      2  C   UNL     1       5.065   4.130  15.912  0.00  0.00    +0.000 C 
ATOM      3  C   UNL     1       5.268   4.182  17.438  0.00  0.00    +0.000 C 
BRANCH   3   4
ATOM      4  C   UNL     1       6.221   5.339  17.758  0.00  0.00    +0.000 A 
ATOM      5  C   UNL     1       7.201   5.215  18.743  0.00  0.00    +0.000 A 
ATOM      6  C   UNL     1       8.072   6.277  18.962  0.00  0.00    +0.000 A 
ATOM      7  C   UNL     1       7.958   7.424  18.184  0.00  0.00    +0.000 A 
ATOM      8  C   UNL     1       6.971   7.464  17.219  0.00  0.00    +0.000 A 
ATOM      9  N   UNL     1       6.108   6.454  16.985  0.00  0.00    +0.000 NA
ENDBRANCH   3   4
ENDBRANCH   1   3
BRANCH   1  10
ATOM     10  C   UNL     1       3.510   2.938  18.670  0.00  0.00    +0.000 C 
BRANCH  10  11
ATOM     11  C   UNL     1       3.809   2.618  20.137  0.00  0.00    +0.000 C 
BRANCH  11  12
ATOM     12  C   UNL     1       2.549   2.619  21.009  0.00  0.00    +0.000 C 
BRANCH  12  13
ATOM     13  C   UNL     1       1.326   2.823  20.113  0.00  0.00    +0.000 C 
BRANCH  13  14
ATOM     14  N   UNL     1       0.637   4.065  20.429  0.00  0.00    +0.000 NA
ATOM     15  H   UNL     1      -0.312   3.858  20.740  0.00  0.00    +0.000 HD
ATOM     16  H   UNL     1       0.543   4.617  19.578  0.00  0.00    +0.000 HD
ENDBRANCH  13  14
ENDBRANCH  12  13
ENDBRANCH  11  12
ENDBRANCH  10  11
ENDBRANCH   1  10
BRANCH   1  17
ATOM     17  C   UNL     1       4.113   5.243  19.317  0.00  0.00    +0.000 C 
BRANCH  17  18
ATOM     18  C   UNL     1       3.173   6.420  19.255  0.00  0.00    +0.000 A 
ATOM     19  N   UNL     1       2.926   7.222  18.239  0.00  0.00    +0.000 NA
ATOM     20  C   UNL     1       2.042   8.157  18.697  0.00  0.00    +0.000 A 
ATOM     21  C   UNL     1       1.473   9.242  18.024  0.00  0.00    +0.000 A 
ATOM     22  C   UNL     1       0.614  10.092  18.731  0.00  0.00    +0.000 A 
ATOM     23  C   UNL     1       0.320   9.851  20.076  0.00  0.00    +0.000 A 
ATOM     24  C   UNL     1       0.867   8.757  20.760  0.00  0.00    +0.000 A 
ATOM     25  C   UNL     1       1.729   7.932  20.031  0.00  0.00    +0.000 A 
ATOM     26  N   UNL     1       2.446   6.809  20.358  0.00  0.00    +0.000 N 
ATOM     27  H   UNL     1       2.465   6.362  21.265  0.00  0.00    +0.000 HD
ENDBRANCH  17  18
ENDBRANCH   1  17
TORSDOF 9
ENDMDL
