MODEL 1
REMARK VINA RESULT:      -6.4      0.000      0.000
REMARK  Name = 
REMARK  8 active torsions:
REMARK  status: ('A' for Active; 'I' for Inactive)
REMARK    1  A    between atoms: C_1  and  C_2
REMARK    2  A    between atoms: C_2  and  C_3
REMARK    3  A    between atoms: C_2  and  C_4
REMARK    4  A    between atoms: C_2  and  O_5
REMARK    5  A    between atoms: O_5  and  C_6
REMARK    6  A    between atoms: C_12  and  C_13
REMARK    7  A    between atoms: C_13  and  N_14
REMARK    8  A    between atoms: N_14  and  C_15
REMARK                            x       y       z     vdW  Elec       q    Type
REMARK                         _______ _______ _______ _____ _____    ______ ____
ROOT
ATOM      1  C   UNL     1       4.676   4.310  19.208  0.00  0.00    +0.000 C 
ATOM      2  O   UNL     1       5.502   3.521  19.656  0.00  0.00    +0.000 OA
ATOM      3  N   UNL     1       5.042   5.379  18.438  0.00  0.00    +0.000 N 
ATOM      4  C   UNL     1       4.172   6.453  18.004  0.00  0.00    +0.000 C 
ATOM      5  C   UNL     1       4.949   7.095  16.871  0.00  0.00    +0.000 C 
ATOM      6  C   UNL     1       6.403   6.974  17.322  0.00  0.00    +0.000 C 
ATOM      7  C   UNL     1       6.450   5.676  18.149  0.00  0.00    +0.000 C 
ENDROOT
BRANCH   1   8
ATOM      8  O   UNL     1       3.330   4.192  19.390  0.00  0.00    +0.000 OA
BRANCH   8  10
ATOM      9  C   UNL     1       3.557   2.467  17.631  0.00  0.00    +0.000 C 
ATOM     10  C   UNL     1       2.601   3.287  18.512  0.00  0.00    +0.000 C 
ATOM     11  C   UNL     1       1.554   4.056  17.691  0.00  0.00    +0.000 C 
ATOM     12  C   UNL     1       1.851   2.294  19.417  0.00  0.00    +0.000 C 
ENDBRANCH   8  10
ENDBRANCH   1   8
BRANCH   7  13
ATOM     13  C   UNL     1       7.204   4.524  17.436  0.00  0.00    +0.000 C 
BRANCH  13  14
ATOM     14  N   UNL     1       7.347   4.771  15.994  0.00  0.00    +0.000 NA
ATOM     15  H   UNL     1       8.330   4.673  15.740  0.00  0.00    +0.000 HD
BRANCH  14  16
ATOM     16  C   UNL     1       6.516   3.869  15.189  0.00  0.00    +0.000 C 
ATOM     17  C   UNL     1       5.306   4.453  14.516  0.00  0.00    +0.000 C 
ATOM     18  C   UNL     1       6.477   4.003  13.692  0.00  0.00    +0.000 C 
ENDBRANCH  14  16
ENDBRANCH  13  14
ENDBRANCH   7  13
TORSDOF 5
ENDMDL
MODEL 2
REMARK VINA RESULT:      -6.3      1.687      2.216
REMARK  Name = 
REMARK  8 active torsions:
REMARK  status: ('A' for Active; 'I' for Inactive)
REMARK    1  A    between atoms: C_1  and  C_2
REMARK    2  A    between atoms: C_2  and  C_3
REMARK    3  A    between atoms: C_2  and  C_4
REMARK    4  A    between atoms: C_2  and  O_5
REMARK    5  A    between atoms: O_5  and  C_6
REMARK    6  A    between atoms: C_12  and  C_13
REMARK    7  A    between atoms: C_13  and  N_14
REMARK    8  A    between atoms: N_14  and  C_15
REMARK                            x       y       z     vdW  Elec       q    Type
REMARK                         _______ _______ _______ _____ _____    ______ ____
ROOT
ATOM      1  C   UNL     1       4.074   4.358  17.692  0.00  0.00    +0.000 C 
ATOM      2  O   UNL     1       3.730   3.734  16.693  0.00  0.00    +0.000 OA
ATOM      3  N   UNL     1       5.385   4.661  17.939  0.00  0.00    +0.000 N 
ATOM      4  C   UNL     1       5.910   5.241  19.158  0.00  0.00    +0.000 C 
ATOM      5  C   UNL     1       7.277   5.747  18.743  0.00  0.00    +0.000 C 
ATOM      6  C   UNL     1       7.750   4.708  17.729  0.00  0.00    +0.000 C 
ATOM      7  C   UNL     1       6.461   4.207  17.051  0.00  0.00    +0.000 C 
ENDROOT
BRANCH   1   8
ATOM      8  O   UNL     1       3.207   4.843  18.626  0.00  0.00    +0.000 OA
BRANCH   8  10
ATOM      9  C   UNL     1       3.364   2.711  19.871  0.00  0.00    +0.000 C 
ATOM     10  C   UNL     1       2.470   3.881  19.434  0.00  0.00    +0.000 C 
ATOM     11  C   UNL     1       1.204   3.414  18.697  0.00  0.00    +0.000 C 
ATOM     12  C   UNL     1       2.025   4.617  20.710  0.00  0.00    +0.000 C 
ENDBRANCH   8  10
ENDBRANCH   1   8
BRANCH   7  13
ATOM     13  C   UNL     1       6.316   4.690  15.584  0.00  0.00    +0.000 C 
BRANCH  13  14
ATOM     14  N   UNL     1       6.192   3.565  14.646  0.00  0.00    +0.000 NA
ATOM     15  H   UNL     1       5.487   2.918  15.000  0.00  0.00    +0.000 HD
BRANCH  14  16
ATOM     16  C   UNL     1       5.850   4.006  13.289  0.00  0.00    +0.000 C 
ATOM     17  C   UNL     1       6.915   3.902  12.234  0.00  0.00    +0.000 C 
ATOM     18  C   UNL     1       5.713   3.005  12.175  0.00  0.00    +0.000 C 
ENDBRANCH  14  16
ENDBRANCH  13  14
ENDBRANCH   7  13
TORSDOF 5
ENDMDL
MODEL 3
REMARK VINA RESULT:      -6.3      1.096      1.578
REMARK  Name = 
REMARK  8 active torsions:
REMARK  status: ('A' for Active; 'I' for Inactive)
REMARK    1  A    between atoms: C_1  and  C_2
REMARK    2  A    between atoms: C_2  and  C_3
REMARK    3  A    between atoms: C_2  and  C_4
REMARK    4  A    between atoms: C_2  and  O_5
REMARK    5  A    between atoms: O_5  and  C_6
REMARK    6  A    between atoms: C_12  and  C_13
REMARK    7  A    between atoms: C_13  and  N_14
REMARK    8  A    between atoms: N_14  and  C_15
REMARK                            x       y       z     vdW  Elec       q    Type
REMARK                         _______ _______ _______ _____ _____    ______ ____
ROOT
ATOM      1  C   UNL     1       4.374   4.010  18.985  0.00  0.00    +0.000 C 
ATOM      2  O   UNL     1       5.229   3.334  19.548  0.00  0.00    +0.000 OA
ATOM      3  N   UNL     1       4.691   5.149  18.298  0.00  0.00    +0.000 N 
ATOM      4  C   UNL     1       3.748   6.100  17.746  0.00  0.00    +0.000 C 
ATOM      5  C   UNL     1       4.587   6.891  16.760  0.00  0.00    +0.000 C 
ATOM      6  C   UNL     1       5.955   6.966  17.435  0.00  0.00    +0.000 C 
ATOM      7  C   UNL     1       6.066   5.659  18.242  0.00  0.00    +0.000 C 
ENDROOT
BRANCH   1   8
ATOM      8  O   UNL     1       3.049   3.690  18.949  0.00  0.00    +0.000 OA
BRANCH   8  10
ATOM      9  C   UNL     1       2.319   5.102  20.845  0.00  0.00    +0.000 C 
ATOM     10  C   UNL     1       2.311   3.705  20.204  0.00  0.00    +0.000 C 
ATOM     11  C   UNL     1       2.836   2.616  21.154  0.00  0.00    +0.000 C 
ATOM     12  C   UNL     1       0.848   3.367  19.866  0.00  0.00    +0.000 C 
ENDBRANCH   8  10
ENDBRANCH   1   8
BRANCH   7  13
ATOM     13  C   UNL     1       7.087   4.656  17.643  0.00  0.00    +0.000 C 
BRANCH  13  14
ATOM     14  N   UNL     1       7.345   4.921  16.220  0.00  0.00    +0.000 NA
ATOM     15  H   UNL     1       8.353   4.913  16.062  0.00  0.00    +0.000 HD
BRANCH  14  16
ATOM     16  C   UNL     1       6.681   3.952  15.342  0.00  0.00    +0.000 C 
ATOM     17  C   UNL     1       5.380   4.362  14.712  0.00  0.00    +0.000 C 
ATOM     18  C   UNL     1       6.604   4.195  13.860  0.00  0.00    +0.000 C 
ENDBRANCH  14  16
ENDBRANCH  13  14
ENDBRANCH   7  13
TORSDOF 5
ENDMDL
MODEL 4
REMARK VINA RESULT:      -6.2      1.683      2.391
REMARK  Name = 
REMARK  8 active torsions:
REMARK  status: ('A' for Active; 'I' for Inactive)
REMARK    1  A    between atoms: C_1  and  C_2
REMARK    2  A    between atoms: C_2  and  C_3
REMARK    3  A    between atoms: C_2  and  C_4
REMARK    4  A    between atoms: C_2  and  O_5
REMARK    5  A    between atoms: O_5  and  C_6
REMARK    6  A    between atoms: C_12  and  C_13
REMARK    7  A    between atoms: C_13  and  N_14
REMARK    8  A    between atoms: N_14  and  C_15
REMARK                            x       y       z     vdW  Elec       q    Type
REMARK                         _______ _______ _______ _____ _____    ______ ____
ROOT
ATOM      1  C   UNL     1       4.111   4.366  17.673  0.00  0.00    +0.000 C 
ATOM      2  O   UNL     1       3.785   3.751  16.663  0.00  0.00    +0.000 OA
ATOM      3  N   UNL     1       5.418   4.661  17.949  0.00  0.00    +0.000 N 
ATOM      4  C   UNL     1       5.921   5.228  19.183  0.00  0.00    +0.000 C 
ATOM      5  C   UNL     1       7.298   5.732  18.800  0.00  0.00    +0.000 C 
ATOM      6  C   UNL     1       7.788   4.699  17.787  0.00  0.00    +0.000 C 
ATOM      7  C   UNL     1       6.511   4.210  17.079  0.00  0.00    +0.000 C 
ENDROOT
BRANCH   1   8
ATOM      8  O   UNL     1       3.228   4.846  18.594  0.00  0.00    +0.000 OA
BRANCH   8  10
ATOM      9  C   UNL     1       1.982   4.510  20.704  0.00  0.00    +0.000 C 
ATOM     10  C   UNL     1       2.492   3.881  19.399  0.00  0.00    +0.000 C 
ATOM     11  C   UNL     1       3.338   2.621  19.641  0.00  0.00    +0.000 C 
ATOM     12  C   UNL     1       1.257   3.466  18.580  0.00  0.00    +0.000 C 
ENDBRANCH   8  10
ENDBRANCH   1   8
BRANCH   7  13
ATOM     13  C   UNL     1       6.396   4.705  15.614  0.00  0.00    +0.000 C 
BRANCH  13  14
ATOM     14  N   UNL     1       6.261   3.590  14.666  0.00  0.00    +0.000 NA
ATOM     15  H   UNL     1       5.562   2.938  15.023  0.00  0.00    +0.000 HD
BRANCH  14  16
ATOM     16  C   UNL     1       5.900   4.043  13.318  0.00  0.00    +0.000 C 
ATOM     17  C   UNL     1       6.915   3.858  12.227  0.00  0.00    +0.000 C 
ATOM     18  C   UNL     1       5.653   3.047  12.220  0.00  0.00    +0.000 C 
ENDBRANCH  14  16
ENDBRANCH  13  14
ENDBRANCH   7  13
TORSDOF 5
ENDMDL
MODEL 5
REMARK VINA RESULT:      -6.2      2.073      5.450
REMARK  Name = 
REMARK  8 active torsions:
REMARK  status: ('A' for Active; 'I' for Inactive)
REMARK    1  A    between atoms: C_1  and  C_2
REMARK    2  A    between atoms: C_2  and  C_3
REMARK    3  A    between atoms: C_2  and  C_4
REMARK    4  A    between atoms: C_2  and  O_5
REMARK    5  A    between atoms: O_5  and  C_6
REMARK    6  A    between atoms: C_12  and  C_13
REMARK    7  A    between atoms: C_13  and  N_14
REMARK    8  A    between atoms: N_14  and  C_15
REMARK                            x       y       z     vdW  Elec       q    Type
REMARK                         _______ _______ _______ _____ _____    ______ ____
ROOT
ATOM      1  C   UNL     1       5.269   4.630  18.673  0.00  0.00    +0.000 C 
ATOM      2  O   UNL     1       6.029   4.499  19.626  0.00  0.00    +0.000 OA
ATOM      3  N   UNL     1       4.339   3.679  18.354  0.00  0.00    +0.000 N 
ATOM      4  C   UNL     1       3.516   3.659  17.162  0.00  0.00    +0.000 C 
ATOM      5  C   UNL     1       2.414   2.680  17.516  0.00  0.00    +0.000 C 
ATOM      6  C   UNL     1       3.125   1.638  18.378  0.00  0.00    +0.000 C 
ATOM      7  C   UNL     1       4.236   2.421  19.102  0.00  0.00    +0.000 C 
ENDROOT
BRANCH   1   8
ATOM      8  O   UNL     1       5.239   5.728  17.865  0.00  0.00    +0.000 OA
BRANCH   8  10
ATOM      9  C   UNL     1       5.662   6.204  15.475  0.00  0.00    +0.000 C 
ATOM     10  C   UNL     1       6.268   5.849  16.842  0.00  0.00    +0.000 C 
ATOM     11  C   UNL     1       7.133   4.580  16.793  0.00  0.00    +0.000 C 
ATOM     12  C   UNL     1       7.175   7.020  17.257  0.00  0.00    +0.000 C 
ENDBRANCH   8  10
ENDBRANCH   1   8
BRANCH   7  13
ATOM     13  C   UNL     1       3.963   2.608  20.617  0.00  0.00    +0.000 C 
BRANCH  13  14
ATOM     14  N   UNL     1       2.566   2.309  20.964  0.00  0.00    +0.000 NA
ATOM     15  H   UNL     1       2.553   1.581  21.679  0.00  0.00    +0.000 HD
BRANCH  14  16
ATOM     16  C   UNL     1       1.839   3.496  21.428  0.00  0.00    +0.000 C 
ATOM     17  C   UNL     1       2.257   4.828  20.872  0.00  0.00    +0.000 C 
ATOM     18  C   UNL     1       0.927   4.243  20.495  0.00  0.00    +0.000 C 
ENDBRANCH  14  16
ENDBRANCH  13  14
ENDBRANCH   7  13
TORSDOF 5
ENDMDL
MODEL 6
REMARK VINA RESULT:      -6.2      1.522      2.168
REMARK  Name = 
REMARK  8 active torsions:
REMARK  status: ('A' for Active; 'I' for Inactive)
REMARK    1  A    between atoms: C_1  and  C_2
REMARK    2  A    between atoms: C_2  and  C_3
REMARK    3  A    between atoms: C_2  and  C_4
REMARK    4  A    between atoms: C_2  and  O_5
REMARK    5  A    between atoms: O_5  and  C_6
REMARK    6  A    between atoms: C_12  and  C_13
REMARK    7  A    between atoms: C_13  and  N_14
REMARK    8  A    between atoms: N_14  and  C_15
REMARK                            x       y       z     vdW  Elec       q    Type
REMARK                         _______ _______ _______ _____ _____    ______ ____
ROOT
ATOM      1  C   UNL     1       4.137   3.421  18.363  0.00  0.00    +0.000 C 
ATOM      2  O   UNL     1       3.852   2.529  17.572  0.00  0.00    +0.000 OA
ATOM      3  N   UNL     1       5.215   4.241  18.171  0.00  0.00    +0.000 N 
ATOM      4  C   UNL     1       5.732   5.206  19.120  0.00  0.00    +0.000 C 
ATOM      5  C   UNL     1       6.609   6.100  18.266  0.00  0.00    +0.000 C 
ATOM      6  C   UNL     1       7.208   5.139  17.241  0.00  0.00    +0.000 C 
ATOM      7  C   UNL     1       6.125   4.063  17.033  0.00  0.00    +0.000 C 
ENDROOT
BRANCH   1   8
ATOM      8  O   UNL     1       3.409   3.715  19.478  0.00  0.00    +0.000 OA
BRANCH   8  10
ATOM      9  C   UNL     1       1.038   3.041  19.263  0.00  0.00    +0.000 C 
ATOM     10  C   UNL     1       2.048   4.199  19.293  0.00  0.00    +0.000 C 
ATOM     11  C   UNL     1       1.957   5.095  18.047  0.00  0.00    +0.000 C 
ATOM     12  C   UNL     1       1.711   5.065  20.520  0.00  0.00    +0.000 C 
ENDBRANCH   8  10
ENDBRANCH   1   8
BRANCH   7  13
ATOM     13  C   UNL     1       5.431   4.154  15.649  0.00  0.00    +0.000 C 
BRANCH  13  14
ATOM     14  N   UNL     1       6.215   3.490  14.598  0.00  0.00    +0.000 NA
ATOM     15  H   UNL     1       6.032   2.487  14.635  0.00  0.00    +0.000 HD
BRANCH  14  16
ATOM     16  C   UNL     1       5.916   4.017  13.262  0.00  0.00    +0.000 C 
ATOM     17  C   UNL     1       6.910   3.747  12.168  0.00  0.00    +0.000 C 
ATOM     18  C   UNL     1       5.563   3.085  12.136  0.00  0.00    +0.000 C 
ENDBRANCH  14  16
ENDBRANCH  13  14
ENDBRANCH   7  13
TORSDOF 5
ENDMDL
MODEL 7
REMARK VINA RESULT:      -6.2      2.069      5.405
REMARK  Name = 
REMARK  8 active torsions:
REMARK  status: ('A' for Active; 'I' for Inactive)
REMARK    1  A    between atoms: C_1  and  C_2
REMARK    2  A    between atoms: C_2  and  C_3
REMARK    3  A    between atoms: C_2  and  C_4
REMARK    4  A    between atoms: C_2  and  O_5
REMARK    5  A    between atoms: O_5  and  C_6
REMARK    6  A    between atoms: C_12  and  C_13
REMARK    7  A    between atoms: C_13  and  N_14
REMARK    8  A    between atoms: N_14  and  C_15
REMARK                            x       y       z     vdW  Elec       q    Type
REMARK                         _______ _______ _______ _____ _____    ______ ____
ROOT
ATOM      1  C   UNL     1       5.315   4.660  18.781  0.00  0.00    +0.000 C 
ATOM      2  O   UNL     1       6.024   4.548  19.775  0.00  0.00    +0.000 OA
ATOM      3  N   UNL     1       4.414   3.695  18.424  0.00  0.00    +0.000 N 
ATOM      4  C   UNL     1       3.656   3.653  17.190  0.00  0.00    +0.000 C 
ATOM      5  C   UNL     1       2.548   2.665  17.495  0.00  0.00    +0.000 C 
ATOM      6  C   UNL     1       3.223   1.641  18.405  0.00  0.00    +0.000 C 
ATOM      7  C   UNL     1       4.285   2.444  19.179  0.00  0.00    +0.000 C 
ENDROOT
BRANCH   1   8
ATOM      8  O   UNL     1       5.316   5.749  17.961  0.00  0.00    +0.000 OA
BRANCH   8  10
ATOM      9  C   UNL     1       7.340   7.067  17.425  0.00  0.00    +0.000 C 
ATOM     10  C   UNL     1       6.425   5.898  17.029  0.00  0.00    +0.000 C 
ATOM     11  C   UNL     1       5.907   6.016  15.586  0.00  0.00    +0.000 C 
ATOM     12  C   UNL     1       7.264   4.611  17.123  0.00  0.00    +0.000 C 
ENDBRANCH   8  10
ENDBRANCH   1   8
BRANCH   7  13
ATOM     13  C   UNL     1       3.929   2.644  20.675  0.00  0.00    +0.000 C 
BRANCH  13  14
ATOM     14  N   UNL     1       2.518   2.334  20.949  0.00  0.00    +0.000 NA
ATOM     15  H   UNL     1       2.474   1.603  21.659  0.00  0.00    +0.000 HD
BRANCH  14  16
ATOM     16  C   UNL     1       1.762   3.515  21.382  0.00  0.00    +0.000 C 
ATOM     17  C   UNL     1       2.186   4.850  20.839  0.00  0.00    +0.000 C 
ATOM     18  C   UNL     1       0.877   4.250  20.414  0.00  0.00    +0.000 C 
ENDBRANCH  14  16
ENDBRANCH  13  14
ENDBRANCH   7  13
TORSDOF 5
ENDMDL
MODEL 8
REMARK VINA RESULT:      -6.2      1.679      2.263
REMARK  Name = 
REMARK  8 active torsions:
REMARK  status: ('A' for Active; 'I' for Inactive)
REMARK    1  A    between atoms: C_1  and  C_2
REMARK    2  A    between atoms: C_2  and  C_3
REMARK    3  A    between atoms: C_2  and  C_4
REMARK    4  A    between atoms: C_2  and  O_5
REMARK    5  A    between atoms: O_5  and  C_6
REMARK    6  A    between atoms: C_12  and  C_13
REMARK    7  A    between atoms: C_13  and  N_14
REMARK    8  A    between atoms: N_14  and  C_15
REMARK                            x       y       z     vdW  Elec       q    Type
REMARK                         _______ _______ _______ _____ _____    ______ ____
ROOT
ATOM      1  C   UNL     1       4.114   4.391  17.678  0.00  0.00    +0.000 C 
ATOM      2  O   UNL     1       3.786   3.771  16.671  0.00  0.00    +0.000 OA
ATOM      3  N   UNL     1       5.422   4.677  17.956  0.00  0.00    +0.000 N 
ATOM      4  C   UNL     1       5.925   5.251  19.187  0.00  0.00    +0.000 C 
ATOM      5  C   UNL     1       7.308   5.740  18.805  0.00  0.00    +0.000 C 
ATOM      6  C   UNL     1       7.792   4.695  17.802  0.00  0.00    +0.000 C 
ATOM      7  C   UNL     1       6.514   4.210  17.093  0.00  0.00    +0.000 C 
ENDROOT
BRANCH   1   8
ATOM      8  O   UNL     1       3.231   4.886  18.591  0.00  0.00    +0.000 OA
BRANCH   8  10
ATOM      9  C   UNL     1       1.257   3.404  18.428  0.00  0.00    +0.000 C 
ATOM     10  C   UNL     1       2.395   3.937  19.313  0.00  0.00    +0.000 C 
ATOM     11  C   UNL     1       1.884   4.555  20.624  0.00  0.00    +0.000 C 
ATOM     12  C   UNL     1       3.290   2.738  19.676  0.00  0.00    +0.000 C 
ENDBRANCH   8  10
ENDBRANCH   1   8
BRANCH   7  13
ATOM     13  C   UNL     1       6.409   4.695  15.624  0.00  0.00    +0.000 C 
BRANCH  13  14
ATOM     14  N   UNL     1       6.273   3.572  14.684  0.00  0.00    +0.000 NA
ATOM     15  H   UNL     1       5.605   2.902  15.067  0.00  0.00    +0.000 HD
BRANCH  14  16
ATOM     16  C   UNL     1       5.852   4.010  13.349  0.00  0.00    +0.000 C 
ATOM     17  C   UNL     1       6.876   3.973  12.250  0.00  0.00    +0.000 C 
ATOM     18  C   UNL     1       5.719   3.017  12.228  0.00  0.00    +0.000 C 
ENDBRANCH  14  16
ENDBRANCH  13  14
ENDBRANCH   7  13
TORSDOF 5
ENDMDL
MODEL 9
REMARK VINA RESULT:      -6.2      1.124      1.456
REMARK  Name = 
REMARK  8 active torsions:
REMARK  status: ('A' for Active; 'I' for Inactive)
REMARK    1  A    between atoms: C_1  and  C_2
REMARK    2  A    between atoms: C_2  and  C_3
REMARK    3  A    between atoms: C_2  and  C_4
REMARK    4  A    between atoms: C_2  and  O_5
REMARK    5  A    between atoms: O_5  and  C_6
REMARK    6  A    between atoms: C_12  and  C_13
REMARK    7  A    between atoms: C_13  and  N_14
REMARK    8  A    between atoms: N_14  and  C_15
REMARK                            x       y       z     vdW  Elec       q    Type
REMARK                         _______ _______ _______ _____ _____    ______ ____
ROOT
ATOM      1  C   UNL     1       4.288   3.971  19.031  0.00  0.00    +0.000 C 
ATOM      2  O   UNL     1       5.138   3.299  19.604  0.00  0.00    +0.000 OA
ATOM      3  N   UNL     1       4.605   5.121  18.362  0.00  0.00    +0.000 N 
ATOM      4  C   UNL     1       3.663   6.067  17.800  0.00  0.00    +0.000 C 
ATOM      5  C   UNL     1       4.513   6.877  16.840  0.00  0.00    +0.000 C 
ATOM      6  C   UNL     1       5.866   6.961  17.545  0.00  0.00    +0.000 C 
ATOM      7  C   UNL     1       5.976   5.647  18.340  0.00  0.00    +0.000 C 
ENDROOT
BRANCH   1   8
ATOM      8  O   UNL     1       2.968   3.637  18.963  0.00  0.00    +0.000 OA
BRANCH   8  10
ATOM      9  C   UNL     1       2.817   2.616  21.212  0.00  0.00    +0.000 C 
ATOM     10  C   UNL     1       2.209   3.606  20.206  0.00  0.00    +0.000 C 
ATOM     11  C   UNL     1       0.724   3.327  19.926  0.00  0.00    +0.000 C 
ATOM     12  C   UNL     1       2.313   5.010  20.828  0.00  0.00    +0.000 C 
ENDBRANCH   8  10
ENDBRANCH   1   8
BRANCH   7  13
ATOM     13  C   UNL     1       7.020   4.662  17.752  0.00  0.00    +0.000 C 
BRANCH  13  14
ATOM     14  N   UNL     1       7.385   5.010  16.371  0.00  0.00    +0.000 NA
ATOM     15  H   UNL     1       8.401   5.071  16.305  0.00  0.00    +0.000 HD
BRANCH  14  16
ATOM     16  C   UNL     1       6.864   4.045  15.396  0.00  0.00    +0.000 C 
ATOM     17  C   UNL     1       5.452   4.232  14.919  0.00  0.00    +0.000 C 
ATOM     18  C   UNL     1       6.598   4.464  13.978  0.00  0.00    +0.000 C 
ENDBRANCH  14  16
ENDBRANCH  13  14
ENDBRANCH   7  13
TORSDOF 5
ENDMDL
