MODEL 1
REMARK VINA RESULT:      -8.3      0.000      0.000
REMARK  Name = 
REMARK  6 active torsions:
REMARK  status: ('A' for Active; 'I' for Inactive)
REMARK    1  A    between atoms: C_1  and  C_2
REMARK    2  A    between atoms: C_8  and  S_9
REMARK    3  A    between atoms: S_9  and  N_12
REMARK    4  A    between atoms: C_22  and  C_23
REMARK    5  A    between atoms: N_25  and  C_26
REMARK    6  A    between atoms: C_26  and  C_27
REMARK                            x       y       z     vdW  Elec       q    Type
REMARK                         _______ _______ _______ _____ _____    ______ ____
ROOT
ATOM      1  C   UNL     1      -0.115   9.559  22.789  0.00  0.00    +0.000 C 
ATOM      2  C   UNL     1      -0.379  10.408  21.582  0.00  0.00    +0.000 C 
ATOM      3  O   UNL     1      -1.116  11.405  21.698  0.00  0.00    +0.000 OA
ATOM      4  N   UNL     1       0.270  10.141  20.397  0.00  0.00    +0.000 N 
ATOM      5  C   UNL     1       1.082   9.051  20.042  0.00  0.00    +0.000 A 
ATOM      6  C   UNL     1       1.393   7.916  20.764  0.00  0.00    +0.000 A 
ATOM      7  C   UNL     1       2.265   6.984  20.228  0.00  0.00    +0.000 A 
ATOM      8  C   UNL     1       2.829   7.185  18.972  0.00  0.00    +0.000 A 
ATOM      9  C   UNL     1       2.440   8.283  18.184  0.00  0.00    +0.000 A 
ATOM     10  C   UNL     1       1.556   9.200  18.740  0.00  0.00    +0.000 A 
ATOM     11  C   UNL     1       0.901  10.364  18.062  0.00  0.00    +0.000 C 
ATOM     12  C   UNL     1       0.259  11.103  19.260  0.00  0.00    +0.000 C 
ENDROOT
BRANCH  12  13
ATOM     13  C   UNL     1       1.078  12.358  19.612  0.00  0.00    +0.000 C 
ATOM     14  O   UNL     1       2.284  12.447  19.370  0.00  0.00    +0.000 OA
ATOM     15  N   UNL     1       0.364  13.415  20.125  0.00  0.00    +0.000 N 
ATOM     16  H   UNL     1      -0.590  13.258  20.442  0.00  0.00    +0.000 HD
BRANCH  15  17
ATOM     17  C   UNL     1       0.999  14.664  20.466  0.00  0.00    +0.000 C 
BRANCH  17  18
ATOM     18  C   UNL     1       0.769  15.724  19.428  0.00  0.00    +0.000 A 
ATOM     19  C   UNL     1      -0.530  16.161  19.122  0.00  0.00    +0.000 A 
ATOM     20  C   UNL     1      -0.736  17.174  18.182  0.00  0.00    +0.000 A 
ATOM     21  C   UNL     1       0.352  17.760  17.535  0.00  0.00    +0.000 A 
ATOM     22  C   UNL     1       1.643  17.315  17.811  0.00  0.00    +0.000 A 
ATOM     23  C   UNL     1       1.840  16.300  18.742  0.00  0.00    +0.000 A 
ATOM     24  F   UNL     1       3.091  15.879  18.980  0.00  0.00    +0.000 F 
ENDBRANCH  17  18
ENDBRANCH  15  17
ENDBRANCH  12  13
BRANCH   8  25
ATOM     25  S   UNL     1       3.959   5.971  18.299  0.00  0.00    +0.000 S 
ATOM     26  O   UNL     1       4.055   6.227  16.874  0.00  0.00    +0.000 OA
ATOM     27  O   UNL     1       5.133   5.974  19.133  0.00  0.00    +0.000 OA
BRANCH  25  28
ATOM     28  N   UNL     1       3.122   4.487  18.525  0.00  0.00    +0.000 NA
ATOM     29  C   UNL     1       1.718   4.441  18.042  0.00  0.00    +0.000 C 
ATOM     30  C   UNL     1       0.807   3.636  18.969  0.00  0.00    +0.000 C 
ATOM     31  C   UNL     1       0.863   2.129  18.746  0.00  0.00    +0.000 C 
ATOM     32  C   UNL     1       2.227   1.513  19.022  0.00  0.00    +0.000 C 
ATOM     33  C   UNL     1       3.292   1.982  18.039  0.00  0.00    +0.000 C 
ATOM     34  C   UNL     1       3.974   3.275  18.459  0.00  0.00    +0.000 C 
ENDBRANCH  25  28
ENDBRANCH   8  25
TORSDOF 5
ENDMDL
MODEL 2
REMARK VINA RESULT:      -8.3      2.163      3.158
REMARK  Name = 
REMARK  6 active torsions:
REMARK  status: ('A' for Active; 'I' for Inactive)
REMARK    1  A    between atoms: C_1  and  C_2
REMARK    2  A    between atoms: C_8  and  S_9
REMARK    3  A    between atoms: S_9  and  N_12
REMARK    4  A    between atoms: C_22  and  C_23
REMARK    5  A    between atoms: N_25  and  C_26
REMARK    6  A    between atoms: C_26  and  C_27
REMARK                            x       y       z     vdW  Elec       q    Type
REMARK                         _______ _______ _______ _____ _____    ______ ____
ROOT
ATOM      1  C   UNL     1      -0.326   9.479  22.918  0.00  0.00    +0.000 C 
ATOM      2  C   UNL     1      -0.379  10.323  21.681  0.00  0.00    +0.000 C 
ATOM      3  O   UNL     1      -0.961  11.423  21.727  0.00  0.00    +0.000 OA
ATOM      4  N   UNL     1       0.296   9.926  20.548  0.00  0.00    +0.000 N 
ATOM      5  C   UNL     1       0.952   8.716  20.270  0.00  0.00    +0.000 A 
ATOM      6  C   UNL     1       1.039   7.567  21.032  0.00  0.00    +0.000 A 
ATOM      7  C   UNL     1       1.790   6.499  20.575  0.00  0.00    +0.000 A 
ATOM      8  C   UNL     1       2.458   6.576  19.356  0.00  0.00    +0.000 A 
ATOM      9  C   UNL     1       2.293   7.696  18.523  0.00  0.00    +0.000 A 
ATOM     10  C   UNL     1       1.526   8.752  19.001  0.00  0.00    +0.000 A 
ATOM     11  C   UNL     1       1.102   9.982  18.257  0.00  0.00    +0.000 C 
ATOM     12  C   UNL     1       0.506  10.844  19.394  0.00  0.00    +0.000 C 
ENDROOT
BRANCH  12  13
ATOM     13  C   UNL     1       1.483  11.971  19.778  0.00  0.00    +0.000 C 
ATOM     14  O   UNL     1       1.815  12.185  20.945  0.00  0.00    +0.000 OA
ATOM     15  N   UNL     1       2.041  12.663  18.729  0.00  0.00    +0.000 N 
ATOM     16  H   UNL     1       1.640  12.558  17.800  0.00  0.00    +0.000 HD
BRANCH  15  17
ATOM     17  C   UNL     1       2.999  13.719  18.943  0.00  0.00    +0.000 C 
BRANCH  17  18
ATOM     18  C   UNL     1       2.505  15.048  18.449  0.00  0.00    +0.000 A 
ATOM     19  C   UNL     1       1.280  15.571  18.894  0.00  0.00    +0.000 A 
ATOM     20  C   UNL     1       0.844  16.825  18.460  0.00  0.00    +0.000 A 
ATOM     21  C   UNL     1       1.622  17.569  17.574  0.00  0.00    +0.000 A 
ATOM     22  C   UNL     1       2.825  17.047  17.103  0.00  0.00    +0.000 A 
ATOM     23  C   UNL     1       3.251  15.794  17.534  0.00  0.00    +0.000 A 
ATOM     24  F   UNL     1       4.405  15.307  17.056  0.00  0.00    +0.000 F 
ENDBRANCH  17  18
ENDBRANCH  15  17
ENDBRANCH  12  13
BRANCH   8  25
ATOM     25  S   UNL     1       3.430   5.185  18.785  0.00  0.00    +0.000 S 
ATOM     26  O   UNL     1       3.482   4.230  19.875  0.00  0.00    +0.000 OA
ATOM     27  O   UNL     1       2.916   4.808  17.493  0.00  0.00    +0.000 OA
BRANCH  25  28
ATOM     28  N   UNL     1       4.998   5.859  18.583  0.00  0.00    +0.000 NA
ATOM     29  C   UNL     1       6.142   5.009  19.000  0.00  0.00    +0.000 C 
ATOM     30  C   UNL     1       7.261   5.816  19.659  0.00  0.00    +0.000 C 
ATOM     31  C   UNL     1       8.208   6.489  18.671  0.00  0.00    +0.000 C 
ATOM     32  C   UNL     1       7.541   7.529  17.784  0.00  0.00    +0.000 C 
ATOM     33  C   UNL     1       6.526   6.919  16.827  0.00  0.00    +0.000 C 
ATOM     34  C   UNL     1       5.135   6.780  17.428  0.00  0.00    +0.000 C 
ENDBRANCH  25  28
ENDBRANCH   8  25
TORSDOF 5
ENDMDL
MODEL 3
REMARK VINA RESULT:      -8.2      0.956      1.326
REMARK  Name = 
REMARK  6 active torsions:
REMARK  status: ('A' for Active; 'I' for Inactive)
REMARK    1  A    between atoms: C_1  and  C_2
REMARK    2  A    between atoms: C_8  and  S_9
REMARK    3  A    between atoms: S_9  and  N_12
REMARK    4  A    between atoms: C_22  and  C_23
REMARK    5  A    between atoms: N_25  and  C_26
REMARK    6  A    between atoms: C_26  and  C_27
REMARK                            x       y       z     vdW  Elec       q    Type
REMARK                         _______ _______ _______ _____ _____    ______ ____
ROOT
ATOM      1  C   UNL     1      -0.094   9.398  22.770  0.00  0.00    +0.000 C 
ATOM      2  C   UNL     1      -0.239  10.330  21.605  0.00  0.00    +0.000 C 
ATOM      3  O   UNL     1      -0.923  11.362  21.742  0.00  0.00    +0.000 OA
ATOM      4  N   UNL     1       0.460  10.093  20.442  0.00  0.00    +0.000 N 
ATOM      5  C   UNL     1       1.227   8.978  20.066  0.00  0.00    +0.000 A 
ATOM      6  C   UNL     1       1.430   7.785  20.732  0.00  0.00    +0.000 A 
ATOM      7  C   UNL     1       2.276   6.835  20.188  0.00  0.00    +0.000 A 
ATOM      8  C   UNL     1       2.922   7.074  18.979  0.00  0.00    +0.000 A 
ATOM      9  C   UNL     1       2.642   8.236  18.239  0.00  0.00    +0.000 A 
ATOM     10  C   UNL     1       1.783   9.172  18.803  0.00  0.00    +0.000 A 
ATOM     11  C   UNL     1       1.236  10.411  18.163  0.00  0.00    +0.000 C 
ATOM     12  C   UNL     1       0.570  11.118  19.367  0.00  0.00    +0.000 C 
ENDROOT
BRANCH  12  13
ATOM     13  C   UNL     1       1.439  12.298  19.839  0.00  0.00    +0.000 C 
ATOM     14  O   UNL     1       1.701  12.488  21.029  0.00  0.00    +0.000 OA
ATOM     15  N   UNL     1       1.987  13.073  18.845  0.00  0.00    +0.000 N 
ATOM     16  H   UNL     1       1.638  12.977  17.895  0.00  0.00    +0.000 HD
BRANCH  15  17
ATOM     17  C   UNL     1       2.850  14.189  19.145  0.00  0.00    +0.000 C 
BRANCH  17  18
ATOM     18  C   UNL     1       2.397  15.457  18.480  0.00  0.00    +0.000 A 
ATOM     19  C   UNL     1       3.150  16.034  17.444  0.00  0.00    +0.000 A 
ATOM     20  C   UNL     1       2.705  17.193  16.804  0.00  0.00    +0.000 A 
ATOM     21  C   UNL     1       1.507  17.792  17.192  0.00  0.00    +0.000 A 
ATOM     22  C   UNL     1       0.767  17.244  18.238  0.00  0.00    +0.000 A 
ATOM     23  C   UNL     1       1.219  16.093  18.877  0.00  0.00    +0.000 A 
ATOM     24  F   UNL     1       0.497  15.593  19.890  0.00  0.00    +0.000 F 
ENDBRANCH  17  18
ENDBRANCH  15  17
ENDBRANCH  12  13
BRANCH   8  25
ATOM     25  S   UNL     1       4.017   5.834  18.294  0.00  0.00    +0.000 S 
ATOM     26  O   UNL     1       4.112   6.094  16.870  0.00  0.00    +0.000 OA
ATOM     27  O   UNL     1       5.195   5.802  19.122  0.00  0.00    +0.000 OA
BRANCH  25  28
ATOM     28  N   UNL     1       3.142   4.371  18.518  0.00  0.00    +0.000 NA
ATOM     29  C   UNL     1       1.751   4.347  17.998  0.00  0.00    +0.000 C 
ATOM     30  C   UNL     1       0.798   3.575  18.912  0.00  0.00    +0.000 C 
ATOM     31  C   UNL     1       0.829   2.064  18.711  0.00  0.00    +0.000 C 
ATOM     32  C   UNL     1       2.171   1.424  19.032  0.00  0.00    +0.000 C 
ATOM     33  C   UNL     1       3.271   1.856  18.071  0.00  0.00    +0.000 C 
ATOM     34  C   UNL     1       3.970   3.140  18.492  0.00  0.00    +0.000 C 
ENDBRANCH  25  28
ENDBRANCH   8  25
TORSDOF 5
ENDMDL
MODEL 4
REMARK VINA RESULT:      -8.2      2.101      3.175
REMARK  Name = 
REMARK  6 active torsions:
REMARK  status: ('A' for Active; 'I' for Inactive)
REMARK    1  A    between atoms: C_1  and  C_2
REMARK    2  A    between atoms: C_8  and  S_9
REMARK    3  A    between atoms: S_9  and  N_12
REMARK    4  A    between atoms: C_22  and  C_23
REMARK    5  A    between atoms: N_25  and  C_26
REMARK    6  A    between atoms: C_26  and  C_27
REMARK                            x       y       z     vdW  Elec       q    Type
REMARK                         _______ _______ _______ _____ _____    ______ ____
ROOT
ATOM      1  C   UNL     1      -0.138   9.836  23.122  0.00  0.00    +0.000 C 
ATOM      2  C   UNL     1      -0.195  10.676  21.882  0.00  0.00    +0.000 C 
ATOM      3  O   UNL     1      -0.696  11.814  21.949  0.00  0.00    +0.000 OA
ATOM      4  N   UNL     1       0.393  10.228  20.720  0.00  0.00    +0.000 N 
ATOM      5  C   UNL     1       0.949   8.974  20.419  0.00  0.00    +0.000 A 
ATOM      6  C   UNL     1       0.994   7.826  21.185  0.00  0.00    +0.000 A 
ATOM      7  C   UNL     1       1.646   6.706  20.698  0.00  0.00    +0.000 A 
ATOM      8  C   UNL     1       2.254   6.730  19.448  0.00  0.00    +0.000 A 
ATOM      9  C   UNL     1       2.125   7.856  18.614  0.00  0.00    +0.000 A 
ATOM     10  C   UNL     1       1.459   8.965  19.122  0.00  0.00    +0.000 A 
ATOM     11  C   UNL     1       1.084  10.217  18.391  0.00  0.00    +0.000 C 
ATOM     12  C   UNL     1       0.607  11.125  19.550  0.00  0.00    +0.000 C 
ENDROOT
BRANCH  12  13
ATOM     13  C   UNL     1       1.678  12.182  19.874  0.00  0.00    +0.000 C 
ATOM     14  O   UNL     1       2.131  12.333  21.011  0.00  0.00    +0.000 OA
ATOM     15  N   UNL     1       2.172  12.884  18.800  0.00  0.00    +0.000 N 
ATOM     16  H   UNL     1       1.680  12.836  17.911  0.00  0.00    +0.000 HD
BRANCH  15  17
ATOM     17  C   UNL     1       3.204  13.878  18.956  0.00  0.00    +0.000 C 
BRANCH  17  18
ATOM     18  C   UNL     1       2.777  15.229  18.460  0.00  0.00    +0.000 A 
ATOM     19  C   UNL     1       3.242  15.724  17.230  0.00  0.00    +0.000 A 
ATOM     20  C   UNL     1       2.812  16.965  16.756  0.00  0.00    +0.000 A 
ATOM     21  C   UNL     1       1.916  17.729  17.503  0.00  0.00    +0.000 A 
ATOM     22  C   UNL     1       1.471  17.261  18.738  0.00  0.00    +0.000 A 
ATOM     23  C   UNL     1       1.909  16.026  19.208  0.00  0.00    +0.000 A 
ATOM     24  F   UNL     1       1.477  15.604  20.406  0.00  0.00    +0.000 F 
ENDBRANCH  17  18
ENDBRANCH  15  17
ENDBRANCH  12  13
BRANCH   8  25
ATOM     25  S   UNL     1       3.097   5.273  18.839  0.00  0.00    +0.000 S 
ATOM     26  O   UNL     1       3.163   4.332  19.941  0.00  0.00    +0.000 OA
ATOM     27  O   UNL     1       2.476   4.911  17.592  0.00  0.00    +0.000 OA
BRANCH  25  28
ATOM     28  N   UNL     1       4.687   5.844  18.521  0.00  0.00    +0.000 NA
ATOM     29  C   UNL     1       5.803   4.946  18.915  0.00  0.00    +0.000 C 
ATOM     30  C   UNL     1       7.002   5.712  19.473  0.00  0.00    +0.000 C 
ATOM     31  C   UNL     1       7.928   6.285  18.406  0.00  0.00    +0.000 C 
ATOM     32  C   UNL     1       7.271   7.324  17.509  0.00  0.00    +0.000 C 
ATOM     33  C   UNL     1       6.170   6.734  16.637  0.00  0.00    +0.000 C 
ATOM     34  C   UNL     1       4.810   6.704  17.319  0.00  0.00    +0.000 C 
ENDBRANCH  25  28
ENDBRANCH   8  25
TORSDOF 5
ENDMDL
MODEL 5
REMARK VINA RESULT:      -8.1      3.299      4.869
REMARK  Name = 
REMARK  6 active torsions:
REMARK  status: ('A' for Active; 'I' for Inactive)
REMARK    1  A    between atoms: C_1  and  C_2
REMARK    2  A    between atoms: C_8  and  S_9
REMARK    3  A    between atoms: S_9  and  N_12
REMARK    4  A    between atoms: C_22  and  C_23
REMARK    5  A    between atoms: N_25  and  C_26
REMARK    6  A    between atoms: C_26  and  C_27
REMARK                            x       y       z     vdW  Elec       q    Type
REMARK                         _______ _______ _______ _____ _____    ______ ____
ROOT
ATOM      1  C   UNL     1       2.060  12.045  17.780  0.00  0.00    +0.000 C 
ATOM      2  C   UNL     1       1.631  12.022  19.216  0.00  0.00    +0.000 C 
ATOM      3  O   UNL     1       1.318  13.093  19.768  0.00  0.00    +0.000 OA
ATOM      4  N   UNL     1       1.488  10.819  19.872  0.00  0.00    +0.000 N 
ATOM      5  C   UNL     1       1.838   9.523  19.459  0.00  0.00    +0.000 A 
ATOM      6  C   UNL     1       2.484   9.111  18.311  0.00  0.00    +0.000 A 
ATOM      7  C   UNL     1       2.682   7.759  18.087  0.00  0.00    +0.000 A 
ATOM      8  C   UNL     1       2.235   6.818  19.008  0.00  0.00    +0.000 A 
ATOM      9  C   UNL     1       1.671   7.227  20.230  0.00  0.00    +0.000 A 
ATOM     10  C   UNL     1       1.490   8.590  20.435  0.00  0.00    +0.000 A 
ATOM     11  C   UNL     1       1.037   9.272  21.689  0.00  0.00    +0.000 C 
ATOM     12  C   UNL     1       0.808  10.719  21.194  0.00  0.00    +0.000 C 
ENDROOT
BRANCH  12  13
ATOM     13  C   UNL     1      -0.698  11.000  21.043  0.00  0.00    +0.000 C 
ATOM     14  O   UNL     1      -1.438  11.161  22.016  0.00  0.00    +0.000 OA
ATOM     15  N   UNL     1      -1.152  11.158  19.756  0.00  0.00    +0.000 N 
ATOM     16  H   UNL     1      -0.552  10.880  18.983  0.00  0.00    +0.000 HD
BRANCH  15  17
ATOM     17  C   UNL     1      -2.533  11.460  19.472  0.00  0.00    +0.000 C 
BRANCH  17  18
ATOM     18  C   UNL     1      -2.916  11.119  18.061  0.00  0.00    +0.000 A 
ATOM     19  C   UNL     1      -2.068  10.341  17.255  0.00  0.00    +0.000 A 
ATOM     20  C   UNL     1      -2.446   9.995  15.955  0.00  0.00    +0.000 A 
ATOM     21  C   UNL     1      -3.670  10.424  15.443  0.00  0.00    +0.000 A 
ATOM     22  C   UNL     1      -4.506  11.220  16.225  0.00  0.00    +0.000 A 
ATOM     23  C   UNL     1      -4.120  11.567  17.516  0.00  0.00    +0.000 A 
ATOM     24  F   UNL     1      -4.935  12.346  18.244  0.00  0.00    +0.000 F 
ENDBRANCH  17  18
ENDBRANCH  15  17
ENDBRANCH  12  13
BRANCH   8  25
ATOM     25  S   UNL     1       2.496   5.074  18.697  0.00  0.00    +0.000 S 
ATOM     26  O   UNL     1       2.421   4.400  19.980  0.00  0.00    +0.000 OA
ATOM     27  O   UNL     1       1.627   4.700  17.612  0.00  0.00    +0.000 OA
BRANCH  25  28
ATOM     28  N   UNL     1       4.124   5.013  18.150  0.00  0.00    +0.000 NA
ATOM     29  C   UNL     1       5.144   4.611  19.153  0.00  0.00    +0.000 C 
ATOM     30  C   UNL     1       6.452   5.388  19.000  0.00  0.00    +0.000 C 
ATOM     31  C   UNL     1       7.384   4.833  17.928  0.00  0.00    +0.000 C 
ATOM     32  C   UNL     1       6.811   4.888  16.520  0.00  0.00    +0.000 C 
ATOM     33  C   UNL     1       5.605   3.975  16.341  0.00  0.00    +0.000 C 
ATOM     34  C   UNL     1       4.288   4.632  16.726  0.00  0.00    +0.000 C 
ENDBRANCH  25  28
ENDBRANCH   8  25
TORSDOF 5
ENDMDL
MODEL 6
REMARK VINA RESULT:      -8.0      3.387      4.826
REMARK  Name = 
REMARK  6 active torsions:
REMARK  status: ('A' for Active; 'I' for Inactive)
REMARK    1  A    between atoms: C_1  and  C_2
REMARK    2  A    between atoms: C_8  and  S_9
REMARK    3  A    between atoms: S_9  and  N_12
REMARK    4  A    between atoms: C_22  and  C_23
REMARK    5  A    between atoms: N_25  and  C_26
REMARK    6  A    between atoms: C_26  and  C_27
REMARK                            x       y       z     vdW  Elec       q    Type
REMARK                         _______ _______ _______ _____ _____    ______ ____
ROOT
ATOM      1  C   UNL     1       2.128  11.861  17.784  0.00  0.00    +0.000 C 
ATOM      2  C   UNL     1       1.728  11.841  19.229  0.00  0.00    +0.000 C 
ATOM      3  O   UNL     1       1.446  12.916  19.790  0.00  0.00    +0.000 OA
ATOM      4  N   UNL     1       1.576  10.639  19.884  0.00  0.00    +0.000 N 
ATOM      5  C   UNL     1       1.893   9.338  19.461  0.00  0.00    +0.000 A 
ATOM      6  C   UNL     1       2.508   8.917  18.298  0.00  0.00    +0.000 A 
ATOM      7  C   UNL     1       2.676   7.563  18.067  0.00  0.00    +0.000 A 
ATOM      8  C   UNL     1       2.230   6.627  18.994  0.00  0.00    +0.000 A 
ATOM      9  C   UNL     1       1.698   7.043  20.227  0.00  0.00    +0.000 A 
ATOM     10  C   UNL     1       1.547   8.408  20.440  0.00  0.00    +0.000 A 
ATOM     11  C   UNL     1       1.132   9.094  21.705  0.00  0.00    +0.000 C 
ATOM     12  C   UNL     1       0.921  10.547  21.219  0.00  0.00    +0.000 C 
ENDROOT
BRANCH  12  13
ATOM     13  C   UNL     1      -0.583  10.856  21.099  0.00  0.00    +0.000 C 
ATOM     14  O   UNL     1      -1.331  10.874  22.079  0.00  0.00    +0.000 OA
ATOM     15  N   UNL     1      -1.024  11.209  19.846  0.00  0.00    +0.000 N 
ATOM     16  H   UNL     1      -0.418  11.046  19.046  0.00  0.00    +0.000 HD
BRANCH  15  17
ATOM     17  C   UNL     1      -2.401  11.558  19.599  0.00  0.00    +0.000 C 
BRANCH  17  18
ATOM     18  C   UNL     1      -2.837  11.218  18.204  0.00  0.00    +0.000 A 
ATOM     19  C   UNL     1      -1.996  10.490  17.346  0.00  0.00    +0.000 A 
ATOM     20  C   UNL     1      -2.421  10.143  16.061  0.00  0.00    +0.000 A 
ATOM     21  C   UNL     1      -3.687  10.522  15.616  0.00  0.00    +0.000 A 
ATOM     22  C   UNL     1      -4.518  11.269  16.449  0.00  0.00    +0.000 A 
ATOM     23  C   UNL     1      -4.086  11.617  17.725  0.00  0.00    +0.000 A 
ATOM     24  F   UNL     1      -4.898  12.349  18.503  0.00  0.00    +0.000 F 
ENDBRANCH  17  18
ENDBRANCH  15  17
ENDBRANCH  12  13
BRANCH   8  25
ATOM     25  S   UNL     1       2.452   4.879  18.673  0.00  0.00    +0.000 S 
ATOM     26  O   UNL     1       2.303   4.194  19.942  0.00  0.00    +0.000 OA
ATOM     27  O   UNL     1       1.619   4.544  17.547  0.00  0.00    +0.000 OA
BRANCH  25  28
ATOM     28  N   UNL     1       4.100   4.775  18.194  0.00  0.00    +0.000 NA
ATOM     29  C   UNL     1       4.379   4.941  16.745  0.00  0.00    +0.000 C 
ATOM     30  C   UNL     1       5.493   4.016  16.254  0.00  0.00    +0.000 C 
ATOM     31  C   UNL     1       6.900   4.540  16.517  0.00  0.00    +0.000 C 
ATOM     32  C   UNL     1       7.238   4.695  17.992  0.00  0.00    +0.000 C 
ATOM     33  C   UNL     1       6.405   5.774  18.674  0.00  0.00    +0.000 C 
ATOM     34  C   UNL     1       5.073   5.264  19.202  0.00  0.00    +0.000 C 
ENDBRANCH  25  28
ENDBRANCH   8  25
TORSDOF 5
ENDMDL
MODEL 7
REMARK VINA RESULT:      -8.0      1.093      1.408
REMARK  Name = 
REMARK  6 active torsions:
REMARK  status: ('A' for Active; 'I' for Inactive)
REMARK    1  A    between atoms: C_1  and  C_2
REMARK    2  A    between atoms: C_8  and  S_9
REMARK    3  A    between atoms: S_9  and  N_12
REMARK    4  A    between atoms: C_22  and  C_23
REMARK    5  A    between atoms: N_25  and  C_26
REMARK    6  A    between atoms: C_26  and  C_27
REMARK                            x       y       z     vdW  Elec       q    Type
REMARK                         _______ _______ _______ _____ _____    ______ ____
ROOT
ATOM      1  C   UNL     1      -0.034   9.537  22.981  0.00  0.00    +0.000 C 
ATOM      2  C   UNL     1      -0.409  10.348  21.777  0.00  0.00    +0.000 C 
ATOM      3  O   UNL     1      -1.178  11.316  21.919  0.00  0.00    +0.000 OA
ATOM      4  N   UNL     1       0.177  10.081  20.559  0.00  0.00    +0.000 N 
ATOM      5  C   UNL     1       1.010   9.018  20.175  0.00  0.00    +0.000 A 
ATOM      6  C   UNL     1       1.413   7.912  20.898  0.00  0.00    +0.000 A 
ATOM      7  C   UNL     1       2.289   7.005  20.327  0.00  0.00    +0.000 A 
ATOM      8  C   UNL     1       2.765   7.201  19.034  0.00  0.00    +0.000 A 
ATOM      9  C   UNL     1       2.282   8.264  18.250  0.00  0.00    +0.000 A 
ATOM     10  C   UNL     1       1.396   9.156  18.844  0.00  0.00    +0.000 A 
ATOM     11  C   UNL     1       0.652  10.277  18.185  0.00  0.00    +0.000 C 
ATOM     12  C   UNL     1       0.054  11.016  19.406  0.00  0.00    +0.000 C 
ENDROOT
BRANCH  12  13
ATOM     13  C   UNL     1       0.840  12.311  19.681  0.00  0.00    +0.000 C 
ATOM     14  O   UNL     1       2.040  12.421  19.421  0.00  0.00    +0.000 OA
ATOM     15  N   UNL     1       0.100  13.373  20.144  0.00  0.00    +0.000 N 
ATOM     16  H   UNL     1      -0.846  13.207  20.479  0.00  0.00    +0.000 HD
BRANCH  15  17
ATOM     17  C   UNL     1       0.702  14.656  20.409  0.00  0.00    +0.000 C 
BRANCH  17  18
ATOM     18  C   UNL     1      -0.029  15.782  19.735  0.00  0.00    +0.000 A 
ATOM     19  C   UNL     1       0.509  16.409  18.599  0.00  0.00    +0.000 A 
ATOM     20  C   UNL     1      -0.192  17.430  17.954  0.00  0.00    +0.000 A 
ATOM     21  C   UNL     1      -1.435  17.840  18.436  0.00  0.00    +0.000 A 
ATOM     22  C   UNL     1      -1.965  17.243  19.578  0.00  0.00    +0.000 A 
ATOM     23  C   UNL     1      -1.258  16.231  20.221  0.00  0.00    +0.000 A 
ATOM     24  F   UNL     1      -1.781  15.683  21.327  0.00  0.00    +0.000 F 
ENDBRANCH  17  18
ENDBRANCH  15  17
ENDBRANCH  12  13
BRANCH   8  25
ATOM     25  S   UNL     1       3.902   6.020  18.315  0.00  0.00    +0.000 S 
ATOM     26  O   UNL     1       3.941   6.285  16.890  0.00  0.00    +0.000 OA
ATOM     27  O   UNL     1       5.104   6.049  19.108  0.00  0.00    +0.000 OA
BRANCH  25  28
ATOM     28  N   UNL     1       3.111   4.514  18.563  0.00  0.00    +0.000 NA
ATOM     29  C   UNL     1       1.864   4.287  17.787  0.00  0.00    +0.000 C 
ATOM     30  C   UNL     1       0.802   3.539  18.593  0.00  0.00    +0.000 C 
ATOM     31  C   UNL     1       0.986   2.025  18.613  0.00  0.00    +0.000 C 
ATOM     32  C   UNL     1       2.276   1.567  19.277  0.00  0.00    +0.000 C 
ATOM     33  C   UNL     1       3.517   1.989  18.502  0.00  0.00    +0.000 C 
ATOM     34  C   UNL     1       4.015   3.379  18.870  0.00  0.00    +0.000 C 
ENDBRANCH  25  28
ENDBRANCH   8  25
TORSDOF 5
ENDMDL
MODEL 8
REMARK VINA RESULT:      -7.9      3.212      4.731
REMARK  Name = 
REMARK  6 active torsions:
REMARK  status: ('A' for Active; 'I' for Inactive)
REMARK    1  A    between atoms: C_1  and  C_2
REMARK    2  A    between atoms: C_8  and  S_9
REMARK    3  A    between atoms: S_9  and  N_12
REMARK    4  A    between atoms: C_22  and  C_23
REMARK    5  A    between atoms: N_25  and  C_26
REMARK    6  A    between atoms: C_26  and  C_27
REMARK                            x       y       z     vdW  Elec       q    Type
REMARK                         _______ _______ _______ _____ _____    ______ ____
ROOT
ATOM      1  C   UNL     1       2.032  11.955  17.707  0.00  0.00    +0.000 C 
ATOM      2  C   UNL     1       1.626  11.942  19.150  0.00  0.00    +0.000 C 
ATOM      3  O   UNL     1       1.312  13.016  19.697  0.00  0.00    +0.000 OA
ATOM      4  N   UNL     1       1.506  10.744  19.819  0.00  0.00    +0.000 N 
ATOM      5  C   UNL     1       1.860   9.448  19.414  0.00  0.00    +0.000 A 
ATOM      6  C   UNL     1       2.492   9.030  18.259  0.00  0.00    +0.000 A 
ATOM      7  C   UNL     1       2.700   7.679  18.045  0.00  0.00    +0.000 A 
ATOM      8  C   UNL     1       2.276   6.742  18.982  0.00  0.00    +0.000 A 
ATOM      9  C   UNL     1       1.728   7.158  20.208  0.00  0.00    +0.000 A 
ATOM     10  C   UNL     1       1.537   8.521  20.403  0.00  0.00    +0.000 A 
ATOM     11  C   UNL     1       1.098   9.210  21.658  0.00  0.00    +0.000 C 
ATOM     12  C   UNL     1       0.848  10.651  21.153  0.00  0.00    +0.000 C 
ENDROOT
BRANCH  12  13
ATOM     13  C   UNL     1      -0.664  10.916  21.024  0.00  0.00    +0.000 C 
ATOM     14  O   UNL     1      -1.409  10.963  22.005  0.00  0.00    +0.000 OA
ATOM     15  N   UNL     1      -1.117  11.195  19.757  0.00  0.00    +0.000 N 
ATOM     16  H   UNL     1      -0.509  11.008  18.963  0.00  0.00    +0.000 HD
BRANCH  15  17
ATOM     17  C   UNL     1      -2.503  11.498  19.498  0.00  0.00    +0.000 C 
BRANCH  17  18
ATOM     18  C   UNL     1      -2.917  11.133  18.102  0.00  0.00    +0.000 A 
ATOM     19  C   UNL     1      -4.123  11.609  17.563  0.00  0.00    +0.000 A 
ATOM     20  C   UNL     1      -4.486  11.298  16.250  0.00  0.00    +0.000 A 
ATOM     21  C   UNL     1      -3.652  10.505  15.462  0.00  0.00    +0.000 A 
ATOM     22  C   UNL     1      -2.467  10.004  15.997  0.00  0.00    +0.000 A 
ATOM     23  C   UNL     1      -2.115  10.312  17.308  0.00  0.00    +0.000 A 
ATOM     24  F   UNL     1      -0.976   9.806  17.804  0.00  0.00    +0.000 F 
ENDBRANCH  17  18
ENDBRANCH  15  17
ENDBRANCH  12  13
BRANCH   8  25
ATOM     25  S   UNL     1       2.549   4.998  18.683  0.00  0.00    +0.000 S 
ATOM     26  O   UNL     1       2.500   4.336  19.973  0.00  0.00    +0.000 OA
ATOM     27  O   UNL     1       1.666   4.605  17.615  0.00  0.00    +0.000 OA
BRANCH  25  28
ATOM     28  N   UNL     1       4.169   4.946  18.111  0.00  0.00    +0.000 NA
ATOM     29  C   UNL     1       5.212   4.600  19.111  0.00  0.00    +0.000 C 
ATOM     30  C   UNL     1       6.503   5.394  18.907  0.00  0.00    +0.000 C 
ATOM     31  C   UNL     1       7.428   4.818  17.841  0.00  0.00    +0.000 C 
ATOM     32  C   UNL     1       6.831   4.812  16.441  0.00  0.00    +0.000 C 
ATOM     33  C   UNL     1       5.640   3.871  16.317  0.00  0.00    +0.000 C 
ATOM     34  C   UNL     1       4.317   4.517  16.699  0.00  0.00    +0.000 C 
ENDBRANCH  25  28
ENDBRANCH   8  25
TORSDOF 5
ENDMDL
MODEL 9
REMARK VINA RESULT:      -7.9      0.360      1.056
REMARK  Name = 
REMARK  6 active torsions:
REMARK  status: ('A' for Active; 'I' for Inactive)
REMARK    1  A    between atoms: C_1  and  C_2
REMARK    2  A    between atoms: C_8  and  S_9
REMARK    3  A    between atoms: S_9  and  N_12
REMARK    4  A    between atoms: C_22  and  C_23
REMARK    5  A    between atoms: N_25  and  C_26
REMARK    6  A    between atoms: C_26  and  C_27
REMARK                            x       y       z     vdW  Elec       q    Type
REMARK                         _______ _______ _______ _____ _____    ______ ____
ROOT
ATOM      1  C   UNL     1      -0.065   9.470  22.743  0.00  0.00    +0.000 C 
ATOM      2  C   UNL     1      -0.360  10.336  21.556  0.00  0.00    +0.000 C 
ATOM      3  O   UNL     1      -1.118  11.313  21.697  0.00  0.00    +0.000 OA
ATOM      4  N   UNL     1       0.284  10.106  20.360  0.00  0.00    +0.000 N 
ATOM      5  C   UNL     1       1.117   9.042  19.977  0.00  0.00    +0.000 A 
ATOM      6  C   UNL     1       1.461   7.901  20.673  0.00  0.00    +0.000 A 
ATOM      7  C   UNL     1       2.349   7.000  20.112  0.00  0.00    +0.000 A 
ATOM      8  C   UNL     1       2.896   7.237  18.855  0.00  0.00    +0.000 A 
ATOM      9  C   UNL     1       2.475   8.340  18.092  0.00  0.00    +0.000 A 
ATOM     10  C   UNL     1       1.576   9.226  18.674  0.00  0.00    +0.000 A 
ATOM     11  C   UNL     1       0.888  10.388  18.024  0.00  0.00    +0.000 C 
ATOM     12  C   UNL     1       0.240  11.089  19.242  0.00  0.00    +0.000 C 
ENDROOT
BRANCH  12  13
ATOM     13  C   UNL     1       1.034  12.356  19.611  0.00  0.00    +0.000 C 
ATOM     14  O   UNL     1       2.233  12.480  19.351  0.00  0.00    +0.000 OA
ATOM     15  N   UNL     1       0.302  13.382  20.160  0.00  0.00    +0.000 N 
ATOM     16  H   UNL     1      -0.642  13.194  20.489  0.00  0.00    +0.000 HD
BRANCH  15  17
ATOM     17  C   UNL     1       0.912  14.638  20.520  0.00  0.00    +0.000 C 
BRANCH  17  18
ATOM     18  C   UNL     1       0.715  15.692  19.469  0.00  0.00    +0.000 A 
ATOM     19  C   UNL     1      -0.571  16.160  19.154  0.00  0.00    +0.000 A 
ATOM     20  C   UNL     1      -0.745  17.168  18.202  0.00  0.00    +0.000 A 
ATOM     21  C   UNL     1       0.360  17.716  17.551  0.00  0.00    +0.000 A 
ATOM     22  C   UNL     1       1.637  17.238  17.836  0.00  0.00    +0.000 A 
ATOM     23  C   UNL     1       1.804  16.229  18.781  0.00  0.00    +0.000 A 
ATOM     24  F   UNL     1       3.042  15.776  19.027  0.00  0.00    +0.000 F 
ENDBRANCH  17  18
ENDBRANCH  15  17
ENDBRANCH  12  13
BRANCH   8  25
ATOM     25  S   UNL     1       4.047   6.063  18.149  0.00  0.00    +0.000 S 
ATOM     26  O   UNL     1       4.101   6.328  16.724  0.00  0.00    +0.000 OA
ATOM     27  O   UNL     1       5.240   6.098  18.954  0.00  0.00    +0.000 OA
BRANCH  25  28
ATOM     28  N   UNL     1       3.262   4.552  18.387  0.00  0.00    +0.000 NA
ATOM     29  C   UNL     1       3.710   3.751  19.555  0.00  0.00    +0.000 C 
ATOM     30  C   UNL     1       3.744   2.252  19.257  0.00  0.00    +0.000 C 
ATOM     31  C   UNL     1       2.392   1.560  19.385  0.00  0.00    +0.000 C 
ATOM     32  C   UNL     1       1.344   2.059  18.401  0.00  0.00    +0.000 C 
ATOM     33  C   UNL     1       0.943   3.506  18.656  0.00  0.00    +0.000 C 
ATOM     34  C   UNL     1       1.843   4.514  17.956  0.00  0.00    +0.000 C 
ENDBRANCH  25  28
ENDBRANCH   8  25
TORSDOF 5
ENDMDL
