MODEL 1
REMARK VINA RESULT:      -5.2      0.000      0.000
REMARK  Name = 
REMARK  2 active torsions:
REMARK  status: ('A' for Active; 'I' for Inactive)
REMARK    1  A    between atoms: C_1  and  C_2
REMARK    2  A    between atoms: C_2  and  C_4
REMARK                            x       y       z     vdW  Elec       q    Type
REMARK                         _______ _______ _______ _____ _____    ______ ____
ROOT
ATOM      1  C   UNL     1       5.496   5.182  15.773  0.00  0.00    +0.000 A 
ATOM      2  C   UNL     1       5.237   6.494  16.198  0.00  0.00    +0.000 A 
ATOM      3  C   UNL     1       4.281   6.732  17.190  0.00  0.00    +0.000 A 
ATOM      4  C   UNL     1       3.587   5.666  17.749  0.00  0.00    +0.000 A 
ATOM      5  F   UNL     1       2.675   5.901  18.701  0.00  0.00    +0.000 F 
ATOM      6  C   UNL     1       3.829   4.362  17.338  0.00  0.00    +0.000 A 
ATOM      7  C   UNL     1       4.783   4.118  16.348  0.00  0.00    +0.000 A 
ENDROOT
BRANCH   1   9
ATOM      8  C   UNL     1       6.168   3.876  13.646  0.00  0.00    +0.000 C 
ATOM      9  C   UNL     1       6.512   4.873  14.723  0.00  0.00    +0.000 C 
ATOM     10  O   UNL     1       7.607   5.432  14.746  0.00  0.00    +0.000 OA
ENDBRANCH   1   9
TORSDOF 1
ENDMDL
MODEL 2
REMARK VINA RESULT:      -5.2      0.074      1.532
REMARK  Name = 
REMARK  2 active torsions:
REMARK  status: ('A' for Active; 'I' for Inactive)
REMARK    1  A    between atoms: C_1  and  C_2
REMARK    2  A    between atoms: C_2  and  C_4
REMARK                            x       y       z     vdW  Elec       q    Type
REMARK                         _______ _______ _______ _____ _____    ______ ____
ROOT
ATOM      1  C   UNL     1       5.498   5.093  15.816  0.00  0.00    +0.000 A 
ATOM      2  C   UNL     1       4.750   4.065  16.408  0.00  0.00    +0.000 A 
ATOM      3  C   UNL     1       3.791   4.367  17.378  0.00  0.00    +0.000 A 
ATOM      4  C   UNL     1       3.585   5.689  17.756  0.00  0.00    +0.000 A 
ATOM      5  F   UNL     1       2.662   5.972  18.685  0.00  0.00    +0.000 F 
ATOM      6  C   UNL     1       4.319   6.719  17.183  0.00  0.00    +0.000 A 
ATOM      7  C   UNL     1       5.278   6.422  16.211  0.00  0.00    +0.000 A 
ENDROOT
BRANCH   1   9
ATOM      8  C   UNL     1       6.191   3.890  13.635  0.00  0.00    +0.000 C 
ATOM      9  C   UNL     1       6.529   4.825  14.768  0.00  0.00    +0.000 C 
ATOM     10  O   UNL     1       7.630   5.366  14.839  0.00  0.00    +0.000 OA
ENDBRANCH   1   9
TORSDOF 1
ENDMDL
MODEL 3
REMARK VINA RESULT:      -5.1      1.648      1.858
REMARK  Name = 
REMARK  2 active torsions:
REMARK  status: ('A' for Active; 'I' for Inactive)
REMARK    1  A    between atoms: C_1  and  C_2
REMARK    2  A    between atoms: C_2  and  C_4
REMARK                            x       y       z     vdW  Elec       q    Type
REMARK                         _______ _______ _______ _____ _____    ______ ____
ROOT
ATOM      1  C   UNL     1       6.367   4.568  15.800  0.00  0.00    +0.000 A 
ATOM      2  C   UNL     1       7.187   4.824  16.908  0.00  0.00    +0.000 A 
ATOM      3  C   UNL     1       6.675   4.697  18.202  0.00  0.00    +0.000 A 
ATOM      4  C   UNL     1       5.349   4.321  18.385  0.00  0.00    +0.000 A 
ATOM      5  F   UNL     1       4.865   4.199  19.628  0.00  0.00    +0.000 F 
ATOM      6  C   UNL     1       4.522   4.068  17.299  0.00  0.00    +0.000 A 
ATOM      7  C   UNL     1       5.030   4.192  16.004  0.00  0.00    +0.000 A 
ENDROOT
BRANCH   1   9
ATOM      8  C   UNL     1       6.237   3.828  13.326  0.00  0.00    +0.000 C 
ATOM      9  C   UNL     1       6.867   4.681  14.396  0.00  0.00    +0.000 C 
ATOM     10  O   UNL     1       7.778   5.464  14.132  0.00  0.00    +0.000 OA
ENDBRANCH   1   9
TORSDOF 1
ENDMDL
MODEL 4
REMARK VINA RESULT:      -5.1      1.647      1.778
REMARK  Name = 
REMARK  2 active torsions:
REMARK  status: ('A' for Active; 'I' for Inactive)
REMARK    1  A    between atoms: C_1  and  C_2
REMARK    2  A    between atoms: C_2  and  C_4
REMARK                            x       y       z     vdW  Elec       q    Type
REMARK                         _______ _______ _______ _____ _____    ______ ____
ROOT
ATOM      1  C   UNL     1       6.373   5.048  15.886  0.00  0.00    +0.000 A 
ATOM      2  C   UNL     1       5.089   5.549  16.143  0.00  0.00    +0.000 A 
ATOM      3  C   UNL     1       4.659   5.729  17.461  0.00  0.00    +0.000 A 
ATOM      4  C   UNL     1       5.509   5.408  18.513  0.00  0.00    +0.000 A 
ATOM      5  F   UNL     1       5.092   5.586  19.773  0.00  0.00    +0.000 F 
ATOM      6  C   UNL     1       6.782   4.908  18.276  0.00  0.00    +0.000 A 
ATOM      7  C   UNL     1       7.217   4.726  16.961  0.00  0.00    +0.000 A 
ENDROOT
BRANCH   1   9
ATOM      8  C   UNL     1       6.177   3.862  13.597  0.00  0.00    +0.000 C 
ATOM      9  C   UNL     1       6.883   4.844  14.496  0.00  0.00    +0.000 C 
ATOM     10  O   UNL     1       7.862   5.475  14.104  0.00  0.00    +0.000 OA
ENDBRANCH   1   9
TORSDOF 1
ENDMDL
MODEL 5
REMARK VINA RESULT:      -5.1      3.740      4.716
REMARK  Name = 
REMARK  2 active torsions:
REMARK  status: ('A' for Active; 'I' for Inactive)
REMARK    1  A    between atoms: C_1  and  C_2
REMARK    2  A    between atoms: C_2  and  C_4
REMARK                            x       y       z     vdW  Elec       q    Type
REMARK                         _______ _______ _______ _____ _____    ______ ____
ROOT
ATOM      1  C   UNL     1       2.460   5.909  18.580  0.00  0.00    +0.000 A 
ATOM      2  C   UNL     1       2.038   4.778  17.866  0.00  0.00    +0.000 A 
ATOM      3  C   UNL     1       1.424   3.716  18.537  0.00  0.00    +0.000 A 
ATOM      4  C   UNL     1       1.237   3.786  19.912  0.00  0.00    +0.000 A 
ATOM      5  F   UNL     1       0.645   2.766  20.548  0.00  0.00    +0.000 F 
ATOM      6  C   UNL     1       1.652   4.897  20.635  0.00  0.00    +0.000 A 
ATOM      7  C   UNL     1       2.265   5.960  19.969  0.00  0.00    +0.000 A 
ENDROOT
BRANCH   1   9
ATOM      8  C   UNL     1       2.390   8.395  17.874  0.00  0.00    +0.000 C 
ATOM      9  C   UNL     1       3.114   7.074  17.910  0.00  0.00    +0.000 C 
ATOM     10  O   UNL     1       4.226   6.944  17.404  0.00  0.00    +0.000 OA
ENDBRANCH   1   9
TORSDOF 1
ENDMDL
MODEL 6
REMARK VINA RESULT:      -5.1      1.638      2.581
REMARK  Name = 
REMARK  2 active torsions:
REMARK  status: ('A' for Active; 'I' for Inactive)
REMARK    1  A    between atoms: C_1  and  C_2
REMARK    2  A    between atoms: C_2  and  C_4
REMARK                            x       y       z     vdW  Elec       q    Type
REMARK                         _______ _______ _______ _____ _____    ______ ____
ROOT
ATOM      1  C   UNL     1       5.457   5.650  17.062  0.00  0.00    +0.000 A 
ATOM      2  C   UNL     1       5.059   4.319  16.868  0.00  0.00    +0.000 A 
ATOM      3  C   UNL     1       3.759   3.924  17.194  0.00  0.00    +0.000 A 
ATOM      4  C   UNL     1       2.864   4.853  17.712  0.00  0.00    +0.000 A 
ATOM      5  F   UNL     1       1.619   4.468  18.019  0.00  0.00    +0.000 F 
ATOM      6  C   UNL     1       3.243   6.174  17.913  0.00  0.00    +0.000 A 
ATOM      7  C   UNL     1       4.541   6.574  17.589  0.00  0.00    +0.000 A 
ENDROOT
BRANCH   1   9
ATOM      8  C   UNL     1       7.486   7.157  17.607  0.00  0.00    +0.000 C 
ATOM      9  C   UNL     1       6.833   6.126  16.723  0.00  0.00    +0.000 C 
ATOM     10  O   UNL     1       7.412   5.673  15.739  0.00  0.00    +0.000 OA
ENDBRANCH   1   9
TORSDOF 1
ENDMDL
MODEL 7
REMARK VINA RESULT:      -5.1      3.759      4.618
REMARK  Name = 
REMARK  2 active torsions:
REMARK  status: ('A' for Active; 'I' for Inactive)
REMARK    1  A    between atoms: C_1  and  C_2
REMARK    2  A    between atoms: C_2  and  C_4
REMARK                            x       y       z     vdW  Elec       q    Type
REMARK                         _______ _______ _______ _____ _____    ______ ____
ROOT
ATOM      1  C   UNL     1       2.456   6.014  18.631  0.00  0.00    +0.000 A 
ATOM      2  C   UNL     1       2.221   6.026  20.014  0.00  0.00    +0.000 A 
ATOM      3  C   UNL     1       1.611   4.930  20.630  0.00  0.00    +0.000 A 
ATOM      4  C   UNL     1       1.235   3.831  19.867  0.00  0.00    +0.000 A 
ATOM      5  F   UNL     1       0.653   2.783  20.464  0.00  0.00    +0.000 F 
ATOM      6  C   UNL     1       1.456   3.804  18.496  0.00  0.00    +0.000 A 
ATOM      7  C   UNL     1       2.066   4.897  17.876  0.00  0.00    +0.000 A 
ENDROOT
BRANCH   1   9
ATOM      8  C   UNL     1       2.384   8.474  17.838  0.00  0.00    +0.000 C 
ATOM      9  C   UNL     1       3.111   7.156  17.926  0.00  0.00    +0.000 C 
ATOM     10  O   UNL     1       4.227   7.012  17.432  0.00  0.00    +0.000 OA
ENDBRANCH   1   9
TORSDOF 1
ENDMDL
MODEL 8
REMARK VINA RESULT:      -5.1      1.025      1.870
REMARK  Name = 
REMARK  2 active torsions:
REMARK  status: ('A' for Active; 'I' for Inactive)
REMARK    1  A    between atoms: C_1  and  C_2
REMARK    2  A    between atoms: C_2  and  C_4
REMARK                            x       y       z     vdW  Elec       q    Type
REMARK                         _______ _______ _______ _____ _____    ______ ____
ROOT
ATOM      1  C   UNL     1       5.540   4.861  16.582  0.00  0.00    +0.000 A 
ATOM      2  C   UNL     1       4.654   3.795  16.793  0.00  0.00    +0.000 A 
ATOM      3  C   UNL     1       3.423   4.020  17.414  0.00  0.00    +0.000 A 
ATOM      4  C   UNL     1       3.083   5.304  17.825  0.00  0.00    +0.000 A 
ATOM      5  F   UNL     1       1.900   5.514  18.417  0.00  0.00    +0.000 F 
ATOM      6  C   UNL     1       3.950   6.370  17.628  0.00  0.00    +0.000 A 
ATOM      7  C   UNL     1       5.181   6.150  17.007  0.00  0.00    +0.000 A 
ENDROOT
BRANCH   1   9
ATOM      8  C   UNL     1       6.944   4.763  14.413  0.00  0.00    +0.000 C 
ATOM      9  C   UNL     1       6.865   4.675  15.916  0.00  0.00    +0.000 C 
ATOM     10  O   UNL     1       7.866   4.458  16.594  0.00  0.00    +0.000 OA
ENDBRANCH   1   9
TORSDOF 1
ENDMDL
MODEL 9
REMARK VINA RESULT:      -5.1      3.622      5.273
REMARK  Name = 
REMARK  2 active torsions:
REMARK  status: ('A' for Active; 'I' for Inactive)
REMARK    1  A    between atoms: C_1  and  C_2
REMARK    2  A    between atoms: C_2  and  C_4
REMARK                            x       y       z     vdW  Elec       q    Type
REMARK                         _______ _______ _______ _____ _____    ______ ____
ROOT
ATOM      1  C   UNL     1       2.174   3.731  18.403  0.00  0.00    +0.000 A 
ATOM      2  C   UNL     1       3.095   3.114  17.543  0.00  0.00    +0.000 A 
ATOM      3  C   UNL     1       4.073   3.879  16.901  0.00  0.00    +0.000 A 
ATOM      4  C   UNL     1       4.126   5.252  17.116  0.00  0.00    +0.000 A 
ATOM      5  F   UNL     1       5.067   5.978  16.499  0.00  0.00    +0.000 F 
ATOM      6  C   UNL     1       3.219   5.879  17.960  0.00  0.00    +0.000 A 
ATOM      7  C   UNL     1       2.241   5.118  18.605  0.00  0.00    +0.000 A 
ENDROOT
BRANCH   1   9
ATOM      8  C   UNL     1       1.040   3.044  20.622  0.00  0.00    +0.000 C 
ATOM      9  C   UNL     1       1.115   2.958  19.119  0.00  0.00    +0.000 C 
ATOM     10  O   UNL     1       0.322   2.269  18.481  0.00  0.00    +0.000 OA
ENDBRANCH   1   9
TORSDOF 1
ENDMDL
