MODEL 1
REMARK VINA RESULT:      -4.0      0.000      0.000
REMARK  Name = 
REMARK  6 active torsions:
REMARK  status: ('A' for Active; 'I' for Inactive)
REMARK    1  A    between atoms: C_1  and  S_2
REMARK    2  A    between atoms: S_2  and  C_4
REMARK    3  A    between atoms: C_4  and  C_5
REMARK    4  A    between atoms: C_5  and  C_6
REMARK    5  A    between atoms: C_6  and  C_7
REMARK    6  A    between atoms: C_7  and  N_8
REMARK                            x       y       z     vdW  Elec       q    Type
REMARK                         _______ _______ _______ _____ _____    ______ ____
ROOT
ATOM      1  C   UNL     1       1.498   3.697  18.704  0.00  0.00    +0.000 C 
ENDROOT
BRANCH   1   2
ATOM      2  C   UNL     1       1.734   2.456  19.562  0.00  0.00    +0.000 C 
BRANCH   2   4
ATOM      3  C   UNL     1       2.159   4.704  20.989  0.00  0.00    +0.000 C 
ATOM      4  S   UNL     1       2.422   2.924  21.185  0.00  0.00    +0.000 S 
ATOM      5  O   UNL     1       1.427   2.416  22.287  0.00  0.00    +0.000 OA
ENDBRANCH   2   4
ENDBRANCH   1   2
BRANCH   1   6
ATOM      6  C   UNL     1       2.346   3.725  17.429  0.00  0.00    +0.000 C 
BRANCH   6   7
ATOM      7  C   UNL     1       3.772   3.214  17.645  0.00  0.00    +0.000 C 
BRANCH   7   8
ATOM      8  N   UNL     1       4.586   4.303  18.204  0.00  0.00    +0.000 NA
ATOM      9  C   UNL     1       5.618   4.457  17.664  0.00  0.00    +0.000 C 
ATOM     10  S   UNL     1       7.015   4.653  16.928  0.00  0.00    +0.000 S 
ENDBRANCH   7   8
ENDBRANCH   6   7
ENDBRANCH   1   6
TORSDOF 5
ENDMDL
MODEL 2
REMARK VINA RESULT:      -3.9      1.288      1.464
REMARK  Name = 
REMARK  6 active torsions:
REMARK  status: ('A' for Active; 'I' for Inactive)
REMARK    1  A    between atoms: C_1  and  S_2
REMARK    2  A    between atoms: S_2  and  C_4
REMARK    3  A    between atoms: C_4  and  C_5
REMARK    4  A    between atoms: C_5  and  C_6
REMARK    5  A    between atoms: C_6  and  C_7
REMARK    6  A    between atoms: C_7  and  N_8
REMARK                            x       y       z     vdW  Elec       q    Type
REMARK                         _______ _______ _______ _____ _____    ______ ____
ROOT
ATOM      1  C   UNL     1       2.608   2.426  18.379  0.00  0.00    +0.000 C 
ENDROOT
BRANCH   1   2
ATOM      2  C   UNL     1       1.630   2.197  19.529  0.00  0.00    +0.000 C 
BRANCH   2   4
ATOM      3  C   UNL     1       1.454   4.619  20.701  0.00  0.00    +0.000 C 
ATOM      4  S   UNL     1       2.225   3.018  21.045  0.00  0.00    +0.000 S 
ATOM      5  O   UNL     1       1.466   2.379  22.261  0.00  0.00    +0.000 OA
ENDBRANCH   2   4
ENDBRANCH   1   2
BRANCH   1   6
ATOM      6  C   UNL     1       4.043   2.691  18.845  0.00  0.00    +0.000 C 
BRANCH   6   7
ATOM      7  C   UNL     1       4.670   3.919  18.184  0.00  0.00    +0.000 C 
BRANCH   7   8
ATOM      8  N   UNL     1       5.101   4.854  19.233  0.00  0.00    +0.000 NA
ATOM      9  C   UNL     1       6.175   5.300  19.068  0.00  0.00    +0.000 C 
ATOM     10  S   UNL     1       7.633   5.893  18.836  0.00  0.00    +0.000 S 
ENDBRANCH   7   8
ENDBRANCH   6   7
ENDBRANCH   1   6
TORSDOF 5
ENDMDL
MODEL 3
REMARK VINA RESULT:      -3.9      3.259      5.269
REMARK  Name = 
REMARK  6 active torsions:
REMARK  status: ('A' for Active; 'I' for Inactive)
REMARK    1  A    between atoms: C_1  and  S_2
REMARK    2  A    between atoms: S_2  and  C_4
REMARK    3  A    between atoms: C_4  and  C_5
REMARK    4  A    between atoms: C_5  and  C_6
REMARK    5  A    between atoms: C_6  and  C_7
REMARK    6  A    between atoms: C_7  and  N_8
REMARK                            x       y       z     vdW  Elec       q    Type
REMARK                         _______ _______ _______ _____ _____    ______ ____
ROOT
ATOM      1  C   UNL     1       4.352   4.327  17.537  0.00  0.00    +0.000 C 
ENDROOT
BRANCH   1   2
ATOM      2  C   UNL     1       5.635   4.421  18.359  0.00  0.00    +0.000 C 
BRANCH   2   4
ATOM      3  C   UNL     1       7.685   6.072  18.943  0.00  0.00    +0.000 C 
ATOM      4  S   UNL     1       6.896   5.389  17.465  0.00  0.00    +0.000 S 
ATOM      5  O   UNL     1       7.903   4.373  16.817  0.00  0.00    +0.000 OA
ENDBRANCH   2   4
ENDBRANCH   1   2
BRANCH   1   6
ATOM      6  C   UNL     1       3.126   4.900  18.255  0.00  0.00    +0.000 C 
BRANCH   6   7
ATOM      7  C   UNL     1       3.469   5.564  19.589  0.00  0.00    +0.000 C 
BRANCH   7   8
ATOM      8  N   UNL     1       2.329   5.407  20.504  0.00  0.00    +0.000 NA
ATOM      9  C   UNL     1       2.221   4.329  20.957  0.00  0.00    +0.000 C 
ATOM     10  S   UNL     1       2.082   2.863  21.559  0.00  0.00    +0.000 S 
ENDBRANCH   7   8
ENDBRANCH   6   7
ENDBRANCH   1   6
TORSDOF 5
ENDMDL
MODEL 4
REMARK VINA RESULT:      -3.9      3.430      5.455
REMARK  Name = 
REMARK  6 active torsions:
REMARK  status: ('A' for Active; 'I' for Inactive)
REMARK    1  A    between atoms: C_1  and  S_2
REMARK    2  A    between atoms: S_2  and  C_4
REMARK    3  A    between atoms: C_4  and  C_5
REMARK    4  A    between atoms: C_5  and  C_6
REMARK    5  A    between atoms: C_6  and  C_7
REMARK    6  A    between atoms: C_7  and  N_8
REMARK                            x       y       z     vdW  Elec       q    Type
REMARK                         _______ _______ _______ _____ _____    ______ ____
ROOT
ATOM      1  C   UNL     1       4.129   4.557  17.778  0.00  0.00    +0.000 C 
ENDROOT
BRANCH   1   2
ATOM      2  C   UNL     1       5.470   4.204  17.137  0.00  0.00    +0.000 C 
BRANCH   2   4
ATOM      3  C   UNL     1       4.922   6.748  16.431  0.00  0.00    +0.000 C 
ATOM      4  S   UNL     1       5.836   5.339  15.757  0.00  0.00    +0.000 S 
ATOM      5  O   UNL     1       7.364   5.690  15.824  0.00  0.00    +0.000 OA
ENDBRANCH   2   4
ENDBRANCH   1   2
BRANCH   1   6
ATOM      6  C   UNL     1       2.994   3.611  17.373  0.00  0.00    +0.000 C 
BRANCH   6   7
ATOM      7  C   UNL     1       1.635   4.030  17.936  0.00  0.00    +0.000 C 
BRANCH   7   8
ATOM      8  N   UNL     1       1.033   2.880  18.626  0.00  0.00    +0.000 NA
ATOM      9  C   UNL     1       1.265   2.834  19.776  0.00  0.00    +0.000 C 
ATOM     10  S   UNL     1       1.591   2.780  21.333  0.00  0.00    +0.000 S 
ENDBRANCH   7   8
ENDBRANCH   6   7
ENDBRANCH   1   6
TORSDOF 5
ENDMDL
MODEL 5
REMARK VINA RESULT:      -3.9      1.971      2.203
REMARK  Name = 
REMARK  6 active torsions:
REMARK  status: ('A' for Active; 'I' for Inactive)
REMARK    1  A    between atoms: C_1  and  S_2
REMARK    2  A    between atoms: S_2  and  C_4
REMARK    3  A    between atoms: C_4  and  C_5
REMARK    4  A    between atoms: C_5  and  C_6
REMARK    5  A    between atoms: C_6  and  C_7
REMARK    6  A    between atoms: C_7  and  N_8
REMARK                            x       y       z     vdW  Elec       q    Type
REMARK                         _______ _______ _______ _____ _____    ______ ____
ROOT
ATOM      1  C   UNL     1       2.636   4.953  18.359  0.00  0.00    +0.000 C 
ENDROOT
BRANCH   1   2
ATOM      2  C   UNL     1       2.551   3.474  17.989  0.00  0.00    +0.000 C 
BRANCH   2   4
ATOM      3  C   UNL     1       1.093   4.024  20.190  0.00  0.00    +0.000 C 
ATOM      4  S   UNL     1       1.522   2.573  19.196  0.00  0.00    +0.000 S 
ATOM      5  O   UNL     1       0.220   2.105  18.455  0.00  0.00    +0.000 OA
ENDBRANCH   2   4
ENDBRANCH   1   2
BRANCH   1   6
ATOM      6  C   UNL     1       4.068   5.436  18.608  0.00  0.00    +0.000 C 
BRANCH   6   7
ATOM      7  C   UNL     1       4.949   4.381  19.280  0.00  0.00    +0.000 C 
BRANCH   7   8
ATOM      8  N   UNL     1       6.354   4.658  18.952  0.00  0.00    +0.000 NA
ATOM      9  C   UNL     1       6.589   4.652  17.801  0.00  0.00    +0.000 C 
ATOM     10  S   UNL     1       6.897   4.637  16.240  0.00  0.00    +0.000 S 
ENDBRANCH   7   8
ENDBRANCH   6   7
ENDBRANCH   1   6
TORSDOF 5
ENDMDL
MODEL 6
REMARK VINA RESULT:      -3.9      3.723      5.439
REMARK  Name = 
REMARK  6 active torsions:
REMARK  status: ('A' for Active; 'I' for Inactive)
REMARK    1  A    between atoms: C_1  and  S_2
REMARK    2  A    between atoms: S_2  and  C_4
REMARK    3  A    between atoms: C_4  and  C_5
REMARK    4  A    between atoms: C_5  and  C_6
REMARK    5  A    between atoms: C_6  and  C_7
REMARK    6  A    between atoms: C_7  and  N_8
REMARK                            x       y       z     vdW  Elec       q    Type
REMARK                         _______ _______ _______ _____ _____    ______ ____
ROOT
ATOM      1  C   UNL     1       4.053   6.680  17.448  0.00  0.00    +0.000 C 
ENDROOT
BRANCH   1   2
ATOM      2  C   UNL     1       5.001   6.416  16.281  0.00  0.00    +0.000 C 
BRANCH   2   4
ATOM      3  C   UNL     1       6.851   4.555  15.661  0.00  0.00    +0.000 C 
ATOM      4  S   UNL     1       6.627   5.862  16.892  0.00  0.00    +0.000 S 
ATOM      5  O   UNL     1       7.665   6.995  16.573  0.00  0.00    +0.000 OA
ENDBRANCH   2   4
ENDBRANCH   1   2
BRANCH   1   6
ATOM      6  C   UNL     1       3.652   5.409  18.205  0.00  0.00    +0.000 C 
BRANCH   6   7
ATOM      7  C   UNL     1       2.186   5.025  17.997  0.00  0.00    +0.000 C 
BRANCH   7   8
ATOM      8  N   UNL     1       2.129   3.776  17.224  0.00  0.00    +0.000 NA
ATOM      9  C   UNL     1       2.663   2.866  17.740  0.00  0.00    +0.000 C 
ATOM     10  S   UNL     1       3.395   1.643  18.447  0.00  0.00    +0.000 S 
ENDBRANCH   7   8
ENDBRANCH   6   7
ENDBRANCH   1   6
TORSDOF 5
ENDMDL
MODEL 7
REMARK VINA RESULT:      -3.9      3.435      5.472
REMARK  Name = 
REMARK  6 active torsions:
REMARK  status: ('A' for Active; 'I' for Inactive)
REMARK    1  A    between atoms: C_1  and  S_2
REMARK    2  A    between atoms: S_2  and  C_4
REMARK    3  A    between atoms: C_4  and  C_5
REMARK    4  A    between atoms: C_5  and  C_6
REMARK    5  A    between atoms: C_6  and  C_7
REMARK    6  A    between atoms: C_7  and  N_8
REMARK                            x       y       z     vdW  Elec       q    Type
REMARK                         _______ _______ _______ _____ _____    ______ ____
ROOT
ATOM      1  C   UNL     1       4.887   4.344  16.443  0.00  0.00    +0.000 C 
ENDROOT
BRANCH   1   2
ATOM      2  C   UNL     1       6.372   4.548  16.730  0.00  0.00    +0.000 C 
BRANCH   2   4
ATOM      3  C   UNL     1       7.560   5.647  18.887  0.00  0.00    +0.000 C 
ATOM      4  S   UNL     1       6.667   6.211  17.418  0.00  0.00    +0.000 S 
ATOM      5  O   UNL     1       7.700   6.935  16.485  0.00  0.00    +0.000 OA
ENDBRANCH   2   4
ENDBRANCH   1   2
BRANCH   1   6
ATOM      6  C   UNL     1       4.146   3.608  17.564  0.00  0.00    +0.000 C 
BRANCH   6   7
ATOM      7  C   UNL     1       2.691   3.291  17.215  0.00  0.00    +0.000 C 
BRANCH   7   8
ATOM      8  N   UNL     1       1.826   4.322  17.805  0.00  0.00    +0.000 NA
ATOM      9  C   UNL     1       1.556   4.135  18.933  0.00  0.00    +0.000 C 
ATOM     10  S   UNL     1       1.192   3.868  20.458  0.00  0.00    +0.000 S 
ENDBRANCH   7   8
ENDBRANCH   6   7
ENDBRANCH   1   6
TORSDOF 5
ENDMDL
MODEL 8
REMARK VINA RESULT:      -3.9      4.153      5.945
REMARK  Name = 
REMARK  6 active torsions:
REMARK  status: ('A' for Active; 'I' for Inactive)
REMARK    1  A    between atoms: C_1  and  S_2
REMARK    2  A    between atoms: S_2  and  C_4
REMARK    3  A    between atoms: C_4  and  C_5
REMARK    4  A    between atoms: C_5  and  C_6
REMARK    5  A    between atoms: C_6  and  C_7
REMARK    6  A    between atoms: C_7  and  N_8
REMARK                            x       y       z     vdW  Elec       q    Type
REMARK                         _______ _______ _______ _____ _____    ______ ____
ROOT
ATOM      1  C   UNL     1       5.649   6.587  16.791  0.00  0.00    +0.000 C 
ENDROOT
BRANCH   1   2
ATOM      2  C   UNL     1       5.377   5.775  15.527  0.00  0.00    +0.000 C 
BRANCH   2   4
ATOM      3  C   UNL     1       6.007   3.837  13.763  0.00  0.00    +0.000 C 
ATOM      4  S   UNL     1       6.799   4.701  15.141  0.00  0.00    +0.000 S 
ATOM      5  O   UNL     1       7.931   5.609  14.542  0.00  0.00    +0.000 OA
ENDBRANCH   2   4
ENDBRANCH   1   2
BRANCH   1   6
ATOM      6  C   UNL     1       5.020   5.982  18.050  0.00  0.00    +0.000 C 
BRANCH   6   7
ATOM      7  C   UNL     1       6.007   5.160  18.879  0.00  0.00    +0.000 C 
BRANCH   7   8
ATOM      8  N   UNL     1       5.311   3.981  19.413  0.00  0.00    +0.000 NA
ATOM      9  C   UNL     1       4.521   3.516  18.679  0.00  0.00    +0.000 C 
ATOM     10  S   UNL     1       3.449   2.898  17.678  0.00  0.00    +0.000 S 
ENDBRANCH   7   8
ENDBRANCH   6   7
ENDBRANCH   1   6
TORSDOF 5
ENDMDL
MODEL 9
REMARK VINA RESULT:      -3.9      3.343      5.345
REMARK  Name = 
REMARK  6 active torsions:
REMARK  status: ('A' for Active; 'I' for Inactive)
REMARK    1  A    between atoms: C_1  and  S_2
REMARK    2  A    between atoms: S_2  and  C_4
REMARK    3  A    between atoms: C_4  and  C_5
REMARK    4  A    between atoms: C_5  and  C_6
REMARK    5  A    between atoms: C_6  and  C_7
REMARK    6  A    between atoms: C_7  and  N_8
REMARK                            x       y       z     vdW  Elec       q    Type
REMARK                         _______ _______ _______ _____ _____    ______ ____
ROOT
ATOM      1  C   UNL     1       4.904   4.277  16.654  0.00  0.00    +0.000 C 
ENDROOT
BRANCH   1   2
ATOM      2  C   UNL     1       5.082   5.788  16.781  0.00  0.00    +0.000 C 
BRANCH   2   4
ATOM      3  C   UNL     1       7.415   4.576  17.382  0.00  0.00    +0.000 C 
ATOM      4  S   UNL     1       6.622   6.176  17.679  0.00  0.00    +0.000 S 
ATOM      5  O   UNL     1       7.400   7.252  16.843  0.00  0.00    +0.000 OA
ENDBRANCH   2   4
ENDBRANCH   1   2
BRANCH   1   6
ATOM      6  C   UNL     1       3.572   3.771  17.216  0.00  0.00    +0.000 C 
BRANCH   6   7
ATOM      7  C   UNL     1       3.742   2.653  18.245  0.00  0.00    +0.000 C 
BRANCH   7   8
ATOM      8  N   UNL     1       3.991   3.254  19.563  0.00  0.00    +0.000 NA
ATOM      9  C   UNL     1       3.140   3.060  20.349  0.00  0.00    +0.000 C 
ATOM     10  S   UNL     1       1.978   2.796  21.403  0.00  0.00    +0.000 S 
ENDBRANCH   7   8
ENDBRANCH   6   7
ENDBRANCH   1   6
TORSDOF 5
ENDMDL
