MODEL 1
REMARK VINA RESULT:      -7.6      0.000      0.000
REMARK  Name = 
REMARK  6 active torsions:
REMARK  status: ('A' for Active; 'I' for Inactive)
REMARK    1  A    between atoms: C_1  and  C_2
REMARK    2  A    between atoms: C_5  and  C_6
REMARK    3  A    between atoms: N_11  and  C_12
REMARK    4  A    between atoms: C_12  and  C_13
REMARK    5  A    between atoms: C_23  and  C_24
REMARK    6  A    between atoms: C_25  and  C_26
REMARK                            x       y       z     vdW  Elec       q    Type
REMARK                         _______ _______ _______ _____ _____    ______ ____
ROOT
ATOM      1  C   UNL     1      -0.234  10.672  18.385  0.00  0.00    +0.000 C 
ATOM      2  N   UNL     1      -1.289  10.376  17.712  0.00  0.00    +0.000 NA
ATOM      3  C   UNL     1      -2.249  11.436  17.441  0.00  0.00    +0.000 C 
ATOM      4  C   UNL     1      -2.963  11.821  18.736  0.00  0.00    +0.000 C 
ATOM      5  O   UNL     1      -4.146  11.500  18.903  0.00  0.00    +0.000 OA
ATOM      6  N   UNL     1      -2.264  12.648  19.630  0.00  0.00    +0.000 N 
ATOM      7  C   UNL     1      -0.888  12.859  19.428  0.00  0.00    +0.000 A 
ATOM      8  S   UNL     1      -0.215  14.337  19.946  0.00  0.00    +0.000 S 
ATOM      9  C   UNL     1       1.304  13.988  19.258  0.00  0.00    +0.000 A 
ATOM     10  C   UNL     1       2.402  15.004  19.289  0.00  0.00    +0.000 C 
ATOM     11  C   UNL     1       1.355  12.711  18.726  0.00  0.00    +0.000 A 
ATOM     12  C   UNL     1       2.589  12.126  18.099  0.00  0.00    +0.000 C 
ATOM     13  C   UNL     1       0.065  12.037  18.838  0.00  0.00    +0.000 A 
ENDROOT
BRANCH   1  18
ATOM     14  C   UNL     1       3.187   6.171  19.587  0.00  0.00    +0.000 C 
ATOM     15  C   UNL     1       2.373   7.393  19.282  0.00  0.00    +0.000 A 
ATOM     16  C   UNL     1       1.700   8.074  20.303  0.00  0.00    +0.000 A 
ATOM     17  C   UNL     1       0.891   9.167  20.004  0.00  0.00    +0.000 A 
ATOM     18  C   UNL     1       0.745   9.588  18.678  0.00  0.00    +0.000 A 
ATOM     19  C   UNL     1       1.475   8.960  17.661  0.00  0.00    +0.000 A 
ATOM     20  C   UNL     1       2.266   7.854  17.962  0.00  0.00    +0.000 A 
ENDBRANCH   1  18
BRANCH   6  21
ATOM     21  C   UNL     1      -3.088  13.365  20.609  0.00  0.00    +0.000 C 
BRANCH  21  22
ATOM     22  C   UNL     1      -3.068  12.895  22.076  0.00  0.00    +0.000 C 
ATOM     23  O   UNL     1      -2.239  12.089  22.501  0.00  0.00    +0.000 OA
ATOM     24  N   UNL     1      -4.070  13.443  22.893  0.00  0.00    +0.000 N 
ATOM     25  C   UNL     1      -4.094  13.141  24.323  0.00  0.00    +0.000 C 
ATOM     26  C   UNL     1      -5.272  12.228  24.665  0.00  0.00    +0.000 C 
ATOM     27  C   UNL     1      -6.589  12.804  24.140  0.00  0.00    +0.000 C 
ATOM     28  C   UNL     1      -6.485  13.123  22.649  0.00  0.00    +0.000 C 
ATOM     29  C   UNL     1      -5.301  14.050  22.381  0.00  0.00    +0.000 C 
ENDBRANCH  21  22
ENDBRANCH   6  21
TORSDOF 3
ENDMDL
MODEL 2
REMARK VINA RESULT:      -7.0      1.518      1.628
REMARK  Name = 
REMARK  6 active torsions:
REMARK  status: ('A' for Active; 'I' for Inactive)
REMARK    1  A    between atoms: C_1  and  C_2
REMARK    2  A    between atoms: C_5  and  C_6
REMARK    3  A    between atoms: N_11  and  C_12
REMARK    4  A    between atoms: C_12  and  C_13
REMARK    5  A    between atoms: C_23  and  C_24
REMARK    6  A    between atoms: C_25  and  C_26
REMARK                            x       y       z     vdW  Elec       q    Type
REMARK                         _______ _______ _______ _____ _____    ______ ____
ROOT
ATOM      1  C   UNL     1      -0.262  10.790  18.493  0.00  0.00    +0.000 C 
ATOM      2  N   UNL     1      -1.352  10.510  17.872  0.00  0.00    +0.000 NA
ATOM      3  C   UNL     1      -2.297  11.589  17.626  0.00  0.00    +0.000 C 
ATOM      4  C   UNL     1      -2.944  12.010  18.945  0.00  0.00    +0.000 C 
ATOM      5  O   UNL     1      -4.126  11.720  19.169  0.00  0.00    +0.000 OA
ATOM      6  N   UNL     1      -2.187  12.833  19.794  0.00  0.00    +0.000 N 
ATOM      7  C   UNL     1      -0.817  13.007  19.529  0.00  0.00    +0.000 A 
ATOM      8  S   UNL     1      -0.087  14.477  19.994  0.00  0.00    +0.000 S 
ATOM      9  C   UNL     1       1.391  14.081  19.246  0.00  0.00    +0.000 A 
ATOM     10  C   UNL     1       2.512  15.071  19.213  0.00  0.00    +0.000 C 
ATOM     11  C   UNL     1       1.389  12.795  18.732  0.00  0.00    +0.000 A 
ATOM     12  C   UNL     1       2.580  12.172  18.061  0.00  0.00    +0.000 C 
ATOM     13  C   UNL     1       0.089  12.155  18.911  0.00  0.00    +0.000 A 
ENDROOT
BRANCH   1  18
ATOM     14  C   UNL     1       3.102   6.222  19.595  0.00  0.00    +0.000 C 
ATOM     15  C   UNL     1       2.304   7.460  19.315  0.00  0.00    +0.000 A 
ATOM     16  C   UNL     1       1.656   8.138  20.354  0.00  0.00    +0.000 A 
ATOM     17  C   UNL     1       0.861   9.248  20.078  0.00  0.00    +0.000 A 
ATOM     18  C   UNL     1       0.704   9.687  18.760  0.00  0.00    +0.000 A 
ATOM     19  C   UNL     1       1.410   9.061  17.725  0.00  0.00    +0.000 A 
ATOM     20  C   UNL     1       2.188   7.938  18.003  0.00  0.00    +0.000 A 
ENDBRANCH   1  18
BRANCH   6  21
ATOM     21  C   UNL     1      -2.950  13.584  20.797  0.00  0.00    +0.000 C 
BRANCH  21  22
ATOM     22  C   UNL     1      -2.606  13.388  22.286  0.00  0.00    +0.000 C 
ATOM     23  O   UNL     1      -2.580  12.278  22.818  0.00  0.00    +0.000 OA
ATOM     24  N   UNL     1      -2.332  14.568  22.996  0.00  0.00    +0.000 N 
ATOM     25  C   UNL     1      -1.904  14.498  24.393  0.00  0.00    +0.000 C 
ATOM     26  C   UNL     1      -3.005  15.006  25.324  0.00  0.00    +0.000 C 
ATOM     27  C   UNL     1      -3.489  16.395  24.902  0.00  0.00    +0.000 C 
ATOM     28  C   UNL     1      -3.894  16.403  23.428  0.00  0.00    +0.000 C 
ATOM     29  C   UNL     1      -2.744  15.903  22.555  0.00  0.00    +0.000 C 
ENDBRANCH  21  22
ENDBRANCH   6  21
TORSDOF 3
ENDMDL
MODEL 3
REMARK VINA RESULT:      -6.9      0.662      1.114
REMARK  Name = 
REMARK  6 active torsions:
REMARK  status: ('A' for Active; 'I' for Inactive)
REMARK    1  A    between atoms: C_1  and  C_2
REMARK    2  A    between atoms: C_5  and  C_6
REMARK    3  A    between atoms: N_11  and  C_12
REMARK    4  A    between atoms: C_12  and  C_13
REMARK    5  A    between atoms: C_23  and  C_24
REMARK    6  A    between atoms: C_25  and  C_26
REMARK                            x       y       z     vdW  Elec       q    Type
REMARK                         _______ _______ _______ _____ _____    ______ ____
ROOT
ATOM      1  C   UNL     1      -0.214  10.824  18.642  0.00  0.00    +0.000 C 
ATOM      2  N   UNL     1      -1.387  10.681  18.136  0.00  0.00    +0.000 NA
ATOM      3  C   UNL     1      -2.199  11.873  17.941  0.00  0.00    +0.000 C 
ATOM      4  C   UNL     1      -2.654  12.407  19.299  0.00  0.00    +0.000 C 
ATOM      5  O   UNL     1      -3.836  12.286  19.641  0.00  0.00    +0.000 OA
ATOM      6  N   UNL     1      -1.715  13.138  20.044  0.00  0.00    +0.000 N 
ATOM      7  C   UNL     1      -0.366  13.119  19.647  0.00  0.00    +0.000 A 
ATOM      8  S   UNL     1       0.595  14.485  19.990  0.00  0.00    +0.000 S 
ATOM      9  C   UNL     1       1.928  13.876  19.123  0.00  0.00    +0.000 A 
ATOM     10  C   UNL     1       3.162  14.703  18.951  0.00  0.00    +0.000 C 
ATOM     11  C   UNL     1       1.704  12.591  18.657  0.00  0.00    +0.000 A 
ATOM     12  C   UNL     1       2.731  11.797  17.900  0.00  0.00    +0.000 C 
ATOM     13  C   UNL     1       0.354  12.137  18.978  0.00  0.00    +0.000 A 
ENDROOT
BRANCH   1  18
ATOM     14  C   UNL     1       3.399   6.375  19.386  0.00  0.00    +0.000 C 
ATOM     15  C   UNL     1       2.393   7.470  19.194  0.00  0.00    +0.000 A 
ATOM     16  C   UNL     1       2.078   7.929  17.910  0.00  0.00    +0.000 A 
ATOM     17  C   UNL     1       1.193   8.991  17.742  0.00  0.00    +0.000 A 
ATOM     18  C   UNL     1       0.618   9.606  18.857  0.00  0.00    +0.000 A 
ATOM     19  C   UNL     1       0.868   9.103  20.141  0.00  0.00    +0.000 A 
ATOM     20  C   UNL     1       1.770   8.054  20.306  0.00  0.00    +0.000 A 
ENDBRANCH   1  18
BRANCH   6  21
ATOM     21  C   UNL     1      -2.271  14.008  21.087  0.00  0.00    +0.000 C 
BRANCH  21  22
ATOM     22  C   UNL     1      -2.352  13.473  22.529  0.00  0.00    +0.000 C 
ATOM     23  O   UNL     1      -1.455  12.797  23.036  0.00  0.00    +0.000 OA
ATOM     24  N   UNL     1      -3.528  13.801  23.223  0.00  0.00    +0.000 N 
ATOM     25  C   UNL     1      -3.677  13.425  24.628  0.00  0.00    +0.000 C 
ATOM     26  C   UNL     1      -4.712  12.310  24.785  0.00  0.00    +0.000 C 
ATOM     27  C   UNL     1      -6.033  12.683  24.109  0.00  0.00    +0.000 C 
ATOM     28  C   UNL     1      -5.801  13.091  22.654  0.00  0.00    +0.000 C 
ATOM     29  C   UNL     1      -4.773  14.217  22.572  0.00  0.00    +0.000 C 
ENDBRANCH  21  22
ENDBRANCH   6  21
TORSDOF 3
ENDMDL
MODEL 4
REMARK VINA RESULT:      -6.9      5.277      9.214
REMARK  Name = 
REMARK  6 active torsions:
REMARK  status: ('A' for Active; 'I' for Inactive)
REMARK    1  A    between atoms: C_1  and  C_2
REMARK    2  A    between atoms: C_5  and  C_6
REMARK    3  A    between atoms: N_11  and  C_12
REMARK    4  A    between atoms: C_12  and  C_13
REMARK    5  A    between atoms: C_23  and  C_24
REMARK    6  A    between atoms: C_25  and  C_26
REMARK                            x       y       z     vdW  Elec       q    Type
REMARK                         _______ _______ _______ _____ _____    ______ ____
ROOT
ATOM      1  C   UNL     1       2.779  13.818  20.558  0.00  0.00    +0.000 C 
ATOM      2  N   UNL     1       3.261  13.764  21.748  0.00  0.00    +0.000 NA
ATOM      3  C   UNL     1       4.234  14.772  22.140  0.00  0.00    +0.000 C 
ATOM      4  C   UNL     1       5.549  14.527  21.402  0.00  0.00    +0.000 C 
ATOM      5  O   UNL     1       6.527  14.088  22.019  0.00  0.00    +0.000 OA
ATOM      6  N   UNL     1       5.618  14.945  20.063  0.00  0.00    +0.000 N 
ATOM      7  C   UNL     1       4.431  15.312  19.403  0.00  0.00    +0.000 A 
ATOM      8  S   UNL     1       4.528  16.476  18.160  0.00  0.00    +0.000 S 
ATOM      9  C   UNL     1       2.836  16.551  17.979  0.00  0.00    +0.000 A 
ATOM     10  C   UNL     1       2.218  17.530  17.031  0.00  0.00    +0.000 C 
ATOM     11  C   UNL     1       2.184  15.624  18.773  0.00  0.00    +0.000 A 
ATOM     12  C   UNL     1       0.692  15.442  18.775  0.00  0.00    +0.000 C 
ATOM     13  C   UNL     1       3.126  14.881  19.605  0.00  0.00    +0.000 A 
ENDROOT
BRANCH   1  18
ATOM     14  C   UNL     1      -1.336  10.150  18.821  0.00  0.00    +0.000 C 
ATOM     15  C   UNL     1      -0.226  11.031  19.312  0.00  0.00    +0.000 A 
ATOM     16  C   UNL     1      -0.349  11.723  20.522  0.00  0.00    +0.000 A 
ATOM     17  C   UNL     1       0.657  12.592  20.938  0.00  0.00    +0.000 A 
ATOM     18  C   UNL     1       1.793  12.779  20.146  0.00  0.00    +0.000 A 
ATOM     19  C   UNL     1       1.958  12.033  18.972  0.00  0.00    +0.000 A 
ATOM     20  C   UNL     1       0.940  11.180  18.548  0.00  0.00    +0.000 A 
ENDBRANCH   1  18
BRANCH   6  21
ATOM     21  C   UNL     1       6.969  15.126  19.522  0.00  0.00    +0.000 C 
BRANCH  21  22
ATOM     22  C   UNL     1       7.480  14.130  18.463  0.00  0.00    +0.000 C 
ATOM     23  O   UNL     1       6.831  13.845  17.455  0.00  0.00    +0.000 OA
ATOM     24  N   UNL     1       8.735  13.562  18.733  0.00  0.00    +0.000 N 
ATOM     25  C   UNL     1       9.361  12.673  17.755  0.00  0.00    +0.000 C 
ATOM     26  C   UNL     1       9.363  11.229  18.257  0.00  0.00    +0.000 C 
ATOM     27  C   UNL     1       9.979  11.130  19.654  0.00  0.00    +0.000 C 
ATOM     28  C   UNL     1       9.297  12.102  20.617  0.00  0.00    +0.000 C 
ATOM     29  C   UNL     1       9.347  13.525  20.064  0.00  0.00    +0.000 C 
ENDBRANCH  21  22
ENDBRANCH   6  21
TORSDOF 3
ENDMDL
MODEL 5
REMARK VINA RESULT:      -6.9      1.103      1.461
REMARK  Name = 
REMARK  6 active torsions:
REMARK  status: ('A' for Active; 'I' for Inactive)
REMARK    1  A    between atoms: C_1  and  C_2
REMARK    2  A    between atoms: C_5  and  C_6
REMARK    3  A    between atoms: N_11  and  C_12
REMARK    4  A    between atoms: C_12  and  C_13
REMARK    5  A    between atoms: C_23  and  C_24
REMARK    6  A    between atoms: C_25  and  C_26
REMARK                            x       y       z     vdW  Elec       q    Type
REMARK                         _______ _______ _______ _____ _____    ______ ____
ROOT
ATOM      1  C   UNL     1      -0.368  10.683  18.337  0.00  0.00    +0.000 C 
ATOM      2  N   UNL     1      -1.380  10.344  17.619  0.00  0.00    +0.000 NA
ATOM      3  C   UNL     1      -2.331  11.379  17.244  0.00  0.00    +0.000 C 
ATOM      4  C   UNL     1      -3.123  11.814  18.476  0.00  0.00    +0.000 C 
ATOM      5  O   UNL     1      -4.311  11.488  18.589  0.00  0.00    +0.000 OA
ATOM      6  N   UNL     1      -2.485  12.691  19.368  0.00  0.00    +0.000 N 
ATOM      7  C   UNL     1      -1.101  12.908  19.236  0.00  0.00    +0.000 A 
ATOM      8  S   UNL     1      -0.473  14.417  19.723  0.00  0.00    +0.000 S 
ATOM      9  C   UNL     1       1.086  14.054  19.141  0.00  0.00    +0.000 A 
ATOM     10  C   UNL     1       2.171  15.084  19.187  0.00  0.00    +0.000 C 
ATOM     11  C   UNL     1       1.180  12.755  18.673  0.00  0.00    +0.000 A 
ATOM     12  C   UNL     1       2.454  12.156  18.146  0.00  0.00    +0.000 C 
ATOM     13  C   UNL     1      -0.109  12.071  18.742  0.00  0.00    +0.000 A 
ENDROOT
BRANCH   1  18
ATOM     14  C   UNL     1       3.018   6.284  19.943  0.00  0.00    +0.000 C 
ATOM     15  C   UNL     1       2.212   7.481  19.534  0.00  0.00    +0.000 A 
ATOM     16  C   UNL     1       1.475   8.199  20.482  0.00  0.00    +0.000 A 
ATOM     17  C   UNL     1       0.675   9.268  20.086  0.00  0.00    +0.000 A 
ATOM     18  C   UNL     1       0.603   9.625  18.736  0.00  0.00    +0.000 A 
ATOM     19  C   UNL     1       1.396   8.960  17.793  0.00  0.00    +0.000 A 
ATOM     20  C   UNL     1       2.179   7.878  18.191  0.00  0.00    +0.000 A 
ENDBRANCH   1  18
BRANCH   6  21
ATOM     21  C   UNL     1      -3.371  13.442  20.264  0.00  0.00    +0.000 C 
BRANCH  21  22
ATOM     22  C   UNL     1      -3.880  12.756  21.546  0.00  0.00    +0.000 C 
ATOM     23  O   UNL     1      -4.902  12.068  21.567  0.00  0.00    +0.000 OA
ATOM     24  N   UNL     1      -3.101  12.979  22.692  0.00  0.00    +0.000 N 
ATOM     25  C   UNL     1      -3.435  12.304  23.946  0.00  0.00    +0.000 C 
ATOM     26  C   UNL     1      -3.990  13.299  24.966  0.00  0.00    +0.000 C 
ATOM     27  C   UNL     1      -3.048  14.491  25.146  0.00  0.00    +0.000 C 
ATOM     28  C   UNL     1      -2.718  15.130  23.797  0.00  0.00    +0.000 C 
ATOM     29  C   UNL     1      -2.153  14.087  22.835  0.00  0.00    +0.000 C 
ENDBRANCH  21  22
ENDBRANCH   6  21
TORSDOF 3
ENDMDL
MODEL 6
REMARK VINA RESULT:      -6.7      3.112      8.134
REMARK  Name = 
REMARK  6 active torsions:
REMARK  status: ('A' for Active; 'I' for Inactive)
REMARK    1  A    between atoms: C_1  and  C_2
REMARK    2  A    between atoms: C_5  and  C_6
REMARK    3  A    between atoms: N_11  and  C_12
REMARK    4  A    between atoms: C_12  and  C_13
REMARK    5  A    between atoms: C_23  and  C_24
REMARK    6  A    between atoms: C_25  and  C_26
REMARK                            x       y       z     vdW  Elec       q    Type
REMARK                         _______ _______ _______ _____ _____    ______ ____
ROOT
ATOM      1  C   UNL     1       0.027  11.000  21.567  0.00  0.00    +0.000 C 
ATOM      2  N   UNL     1       0.350  10.064  22.387  0.00  0.00    +0.000 NA
ATOM      3  C   UNL     1       1.527   9.263  22.086  0.00  0.00    +0.000 C 
ATOM      4  C   UNL     1       1.236   8.360  20.888  0.00  0.00    +0.000 C 
ATOM      5  O   UNL     1       1.089   7.143  21.058  0.00  0.00    +0.000 OA
ATOM      6  N   UNL     1       1.282   8.952  19.615  0.00  0.00    +0.000 N 
ATOM      7  C   UNL     1       1.325  10.355  19.518  0.00  0.00    +0.000 A 
ATOM      8  S   UNL     1       2.113  11.045  18.173  0.00  0.00    +0.000 S 
ATOM      9  C   UNL     1       1.951  12.629  18.779  0.00  0.00    +0.000 A 
ATOM     10  C   UNL     1       2.564  13.784  18.054  0.00  0.00    +0.000 C 
ATOM     11  C   UNL     1       1.208  12.667  19.947  0.00  0.00    +0.000 A 
ATOM     12  C   UNL     1       0.871  13.941  20.670  0.00  0.00    +0.000 C 
ATOM     13  C   UNL     1       0.825  11.325  20.377  0.00  0.00    +0.000 A 
ENDROOT
BRANCH   1  18
ATOM     14  C   UNL     1      -4.933  13.748  22.681  0.00  0.00    +0.000 C 
ATOM     15  C   UNL     1      -3.606  13.117  22.382  0.00  0.00    +0.000 A 
ATOM     16  C   UNL     1      -3.280  12.729  21.078  0.00  0.00    +0.000 A 
ATOM     17  C   UNL     1      -2.075  12.082  20.818  0.00  0.00    +0.000 A 
ATOM     18  C   UNL     1      -1.186  11.814  21.863  0.00  0.00    +0.000 A 
ATOM     19  C   UNL     1      -1.470  12.266  23.158  0.00  0.00    +0.000 A 
ATOM     20  C   UNL     1      -2.686  12.894  23.417  0.00  0.00    +0.000 A 
ENDBRANCH   1  18
BRANCH   6  21
ATOM     21  C   UNL     1       1.456   8.027  18.490  0.00  0.00    +0.000 C 
BRANCH  21  22
ATOM     22  C   UNL     1       2.862   7.463  18.209  0.00  0.00    +0.000 C 
ATOM     23  O   UNL     1       3.762   8.145  17.717  0.00  0.00    +0.000 OA
ATOM     24  N   UNL     1       3.041   6.112  18.544  0.00  0.00    +0.000 N 
ATOM     25  C   UNL     1       4.360   5.493  18.406  0.00  0.00    +0.000 C 
ATOM     26  C   UNL     1       4.373   4.497  17.246  0.00  0.00    +0.000 C 
ATOM     27  C   UNL     1       3.233   3.485  17.373  0.00  0.00    +0.000 C 
ATOM     28  C   UNL     1       1.891   4.197  17.541  0.00  0.00    +0.000 C 
ATOM     29  C   UNL     1       1.942   5.161  18.726  0.00  0.00    +0.000 C 
ENDBRANCH  21  22
ENDBRANCH   6  21
TORSDOF 3
ENDMDL
MODEL 7
REMARK VINA RESULT:      -6.6      4.481      6.362
REMARK  Name = 
REMARK  6 active torsions:
REMARK  status: ('A' for Active; 'I' for Inactive)
REMARK    1  A    between atoms: C_1  and  C_2
REMARK    2  A    between atoms: C_5  and  C_6
REMARK    3  A    between atoms: N_11  and  C_12
REMARK    4  A    between atoms: C_12  and  C_13
REMARK    5  A    between atoms: C_23  and  C_24
REMARK    6  A    between atoms: C_25  and  C_26
REMARK                            x       y       z     vdW  Elec       q    Type
REMARK                         _______ _______ _______ _____ _____    ______ ____
ROOT
ATOM      1  C   UNL     1      -6.165  12.283  20.053  0.00  0.00    +0.000 C 
ATOM      2  N   UNL     1      -6.776  11.413  20.777  0.00  0.00    +0.000 NA
ATOM      3  C   UNL     1      -7.698  11.895  21.795  0.00  0.00    +0.000 C 
ATOM      4  C   UNL     1      -6.909  12.549  22.928  0.00  0.00    +0.000 C 
ATOM      5  O   UNL     1      -6.815  11.977  24.021  0.00  0.00    +0.000 OA
ATOM      6  N   UNL     1      -6.434  13.852  22.707  0.00  0.00    +0.000 N 
ATOM      7  C   UNL     1      -6.470  14.377  21.402  0.00  0.00    +0.000 A 
ATOM      8  S   UNL     1      -6.641  16.063  21.217  0.00  0.00    +0.000 S 
ATOM      9  C   UNL     1      -6.789  15.951  19.524  0.00  0.00    +0.000 A 
ATOM     10  C   UNL     1      -7.073  17.171  18.706  0.00  0.00    +0.000 C 
ATOM     11  C   UNL     1      -6.603  14.657  19.068  0.00  0.00    +0.000 A 
ATOM     12  C   UNL     1      -6.633  14.282  17.613  0.00  0.00    +0.000 C 
ATOM     13  C   UNL     1      -6.401  13.728  20.176  0.00  0.00    +0.000 A 
ENDROOT
BRANCH   1  18
ATOM     14  C   UNL     1      -2.611  10.759  15.759  0.00  0.00    +0.000 C 
ATOM     15  C   UNL     1      -3.513  11.075  16.914  0.00  0.00    +0.000 A 
ATOM     16  C   UNL     1      -4.879  10.776  16.852  0.00  0.00    +0.000 A 
ATOM     17  C   UNL     1      -5.723  11.134  17.900  0.00  0.00    +0.000 A 
ATOM     18  C   UNL     1      -5.209  11.796  19.019  0.00  0.00    +0.000 A 
ATOM     19  C   UNL     1      -3.832  12.030  19.122  0.00  0.00    +0.000 A 
ATOM     20  C   UNL     1      -2.994  11.690  18.062  0.00  0.00    +0.000 A 
ENDBRANCH   1  18
BRANCH   6  21
ATOM     21  C   UNL     1      -6.098  14.619  23.911  0.00  0.00    +0.000 C 
BRANCH  21  22
ATOM     22  C   UNL     1      -4.690  15.234  24.025  0.00  0.00    +0.000 C 
ATOM     23  O   UNL     1      -4.472  16.430  23.823  0.00  0.00    +0.000 OA
ATOM     24  N   UNL     1      -3.670  14.332  24.367  0.00  0.00    +0.000 N 
ATOM     25  C   UNL     1      -2.309  14.818  24.593  0.00  0.00    +0.000 C 
ATOM     26  C   UNL     1      -1.380  14.377  23.461  0.00  0.00    +0.000 C 
ATOM     27  C   UNL     1      -1.459  12.866  23.238  0.00  0.00    +0.000 C 
ATOM     28  C   UNL     1      -2.908  12.423  23.036  0.00  0.00    +0.000 C 
ATOM     29  C   UNL     1      -3.775  12.879  24.208  0.00  0.00    +0.000 C 
ENDBRANCH  21  22
ENDBRANCH   6  21
TORSDOF 3
ENDMDL
MODEL 8
REMARK VINA RESULT:      -6.4      1.577      1.996
REMARK  Name = 
REMARK  6 active torsions:
REMARK  status: ('A' for Active; 'I' for Inactive)
REMARK    1  A    between atoms: C_1  and  C_2
REMARK    2  A    between atoms: C_5  and  C_6
REMARK    3  A    between atoms: N_11  and  C_12
REMARK    4  A    between atoms: C_12  and  C_13
REMARK    5  A    between atoms: C_23  and  C_24
REMARK    6  A    between atoms: C_25  and  C_26
REMARK                            x       y       z     vdW  Elec       q    Type
REMARK                         _______ _______ _______ _____ _____    ______ ____
ROOT
ATOM      1  C   UNL     1      -0.628  10.995  18.946  0.00  0.00    +0.000 C 
ATOM      2  N   UNL     1      -1.501  10.906  18.006  0.00  0.00    +0.000 NA
ATOM      3  C   UNL     1      -2.510  11.949  17.907  0.00  0.00    +0.000 C 
ATOM      4  C   UNL     1      -3.489  11.824  19.073  0.00  0.00    +0.000 C 
ATOM      5  O   UNL     1      -4.638  11.412  18.869  0.00  0.00    +0.000 OA
ATOM      6  N   UNL     1      -3.066  12.317  20.318  0.00  0.00    +0.000 N 
ATOM      7  C   UNL     1      -1.710  12.647  20.495  0.00  0.00    +0.000 A 
ATOM      8  S   UNL     1      -1.319  13.879  21.606  0.00  0.00    +0.000 S 
ATOM      9  C   UNL     1       0.330  13.862  21.180  0.00  0.00    +0.000 A 
ATOM     10  C   UNL     1       1.278  14.852  21.779  0.00  0.00    +0.000 C 
ATOM     11  C   UNL     1       0.625  12.856  20.276  0.00  0.00    +0.000 A 
ATOM     12  C   UNL     1       2.013  12.583  19.767  0.00  0.00    +0.000 C 
ATOM     13  C   UNL     1      -0.577  12.128  19.881  0.00  0.00    +0.000 A 
ENDROOT
BRANCH   1  18
ATOM     14  C   UNL     1       2.994   6.515  19.408  0.00  0.00    +0.000 C 
ATOM     15  C   UNL     1       2.125   7.733  19.304  0.00  0.00    +0.000 A 
ATOM     16  C   UNL     1       1.425   8.206  20.420  0.00  0.00    +0.000 A 
ATOM     17  C   UNL     1       0.568   9.296  20.300  0.00  0.00    +0.000 A 
ATOM     18  C   UNL     1       0.400   9.922  19.062  0.00  0.00    +0.000 A 
ATOM     19  C   UNL     1       1.154   9.504  17.958  0.00  0.00    +0.000 A 
ATOM     20  C   UNL     1       1.995   8.399  18.077  0.00  0.00    +0.000 A 
ENDBRANCH   1  18
BRANCH   6  21
ATOM     21  C   UNL     1      -4.133  12.608  21.282  0.00  0.00    +0.000 C 
BRANCH  21  22
ATOM     22  C   UNL     1      -4.966  13.891  21.096  0.00  0.00    +0.000 C 
ATOM     23  O   UNL     1      -4.513  14.901  20.557  0.00  0.00    +0.000 OA
ATOM     24  N   UNL     1      -6.276  13.830  21.596  0.00  0.00    +0.000 N 
ATOM     25  C   UNL     1      -7.189  14.955  21.395  0.00  0.00    +0.000 C 
ATOM     26  C   UNL     1      -7.452  15.682  22.714  0.00  0.00    +0.000 C 
ATOM     27  C   UNL     1      -7.912  14.709  23.801  0.00  0.00    +0.000 C 
ATOM     28  C   UNL     1      -6.930  13.546  23.939  0.00  0.00    +0.000 C 
ATOM     29  C   UNL     1      -6.728  12.854  22.592  0.00  0.00    +0.000 C 
ENDBRANCH  21  22
ENDBRANCH   6  21
TORSDOF 3
ENDMDL
MODEL 9
REMARK VINA RESULT:      -6.4      5.715      8.202
REMARK  Name = 
REMARK  6 active torsions:
REMARK  status: ('A' for Active; 'I' for Inactive)
REMARK    1  A    between atoms: C_1  and  C_2
REMARK    2  A    between atoms: C_5  and  C_6
REMARK    3  A    between atoms: N_11  and  C_12
REMARK    4  A    between atoms: C_12  and  C_13
REMARK    5  A    between atoms: C_23  and  C_24
REMARK    6  A    between atoms: C_25  and  C_26
REMARK                            x       y       z     vdW  Elec       q    Type
REMARK                         _______ _______ _______ _____ _____    ______ ____
ROOT
ATOM      1  C   UNL     1       7.218  15.601  19.213  0.00  0.00    +0.000 C 
ATOM      2  N   UNL     1       6.845  16.730  18.724  0.00  0.00    +0.000 NA
ATOM      3  C   UNL     1       5.734  17.420  19.361  0.00  0.00    +0.000 C 
ATOM      4  C   UNL     1       4.436  16.665  19.079  0.00  0.00    +0.000 C 
ATOM      5  O   UNL     1       3.606  17.141  18.295  0.00  0.00    +0.000 OA
ATOM      6  N   UNL     1       4.189  15.511  19.842  0.00  0.00    +0.000 N 
ATOM      7  C   UNL     1       5.233  14.969  20.613  0.00  0.00    +0.000 A 
ATOM      8  S   UNL     1       4.827  14.128  22.040  0.00  0.00    +0.000 S 
ATOM      9  C   UNL     1       6.457  13.948  22.502  0.00  0.00    +0.000 A 
ATOM     10  C   UNL     1       6.807  13.322  23.815  0.00  0.00    +0.000 C 
ATOM     11  C   UNL     1       7.328  14.421  21.536  0.00  0.00    +0.000 A 
ATOM     12  C   UNL     1       8.824  14.343  21.664  0.00  0.00    +0.000 C 
ATOM     13  C   UNL     1       6.607  15.012  20.413  0.00  0.00    +0.000 A 
ENDROOT
BRANCH   1  18
ATOM     14  C   UNL     1      11.791  12.767  17.104  0.00  0.00    +0.000 C 
ATOM     15  C   UNL     1      10.581  13.523  17.565  0.00  0.00    +0.000 A 
ATOM     16  C   UNL     1      10.682  14.869  17.935  0.00  0.00    +0.000 A 
ATOM     17  C   UNL     1       9.569  15.546  18.427  0.00  0.00    +0.000 A 
ATOM     18  C   UNL     1       8.346  14.882  18.556  0.00  0.00    +0.000 A 
ATOM     19  C   UNL     1       8.218  13.559  18.116  0.00  0.00    +0.000 A 
ATOM     20  C   UNL     1       9.339  12.878  17.644  0.00  0.00    +0.000 A 
ENDBRANCH   1  18
BRANCH   6  21
ATOM     21  C   UNL     1       2.791  15.072  19.895  0.00  0.00    +0.000 C 
BRANCH  21  22
ATOM     22  C   UNL     1       2.363  13.862  19.041  0.00  0.00    +0.000 C 
ATOM     23  O   UNL     1       2.603  13.787  17.835  0.00  0.00    +0.000 OA
ATOM     24  N   UNL     1       1.672  12.856  19.734  0.00  0.00    +0.000 N 
ATOM     25  C   UNL     1       1.298  11.620  19.047  0.00  0.00    +0.000 C 
ATOM     26  C   UNL     1      -0.215  11.557  18.831  0.00  0.00    +0.000 C 
ATOM     27  C   UNL     1      -0.971  11.781  20.142  0.00  0.00    +0.000 C 
ATOM     28  C   UNL     1      -0.512  13.072  20.819  0.00  0.00    +0.000 C 
ATOM     29  C   UNL     1       1.002  13.061  21.021  0.00  0.00    +0.000 C 
ENDBRANCH  21  22
ENDBRANCH   6  21
TORSDOF 3
ENDMDL
