MODEL 1
REMARK VINA RESULT:      -7.8      0.000      0.000
REMARK  Name = 
REMARK  9 active torsions:
REMARK  status: ('A' for Active; 'I' for Inactive)
REMARK    1  A    between atoms: C_1  and  C_2
REMARK    2  A    between atoms: C_2  and  O_3
REMARK    3  A    between atoms: O_3  and  C_4
REMARK    4  A    between atoms: N_9  and  C_10
REMARK    5  A    between atoms: C_10  and  C_11
REMARK    6  A    between atoms: C_11  and  O_12
REMARK    7  A    between atoms: O_12  and  C_13
REMARK    8  A    between atoms: C_15  and  C_16
REMARK    9  A    between atoms: N_17  and  C_18
REMARK                            x       y       z     vdW  Elec       q    Type
REMARK                         _______ _______ _______ _____ _____    ______ ____
ROOT
ATOM      1  O   UNL     1       7.893   9.780  17.615  0.00  0.00    +0.000 OA
ENDROOT
BRANCH   1   2
ATOM      2  C   UNL     1       8.722  10.644  18.239  0.00  0.00    +0.000 A 
ATOM      3  C   UNL     1       9.618  10.456  19.299  0.00  0.00    +0.000 A 
ATOM      4  C   UNL     1      10.158  11.703  19.531  0.00  0.00    +0.000 A 
ATOM      5  C   UNL     1      11.014  12.120  20.671  0.00  0.00    +0.000 C 
ATOM      6  N   UNL     1       9.637  12.541  18.548  0.00  0.00    +0.000 N 
ATOM      7  N   UNL     1       8.690  11.902  17.809  0.00  0.00    +0.000 NA
BRANCH   6   8
ATOM      8  C   UNL     1       9.933  13.910  18.290  0.00  0.00    +0.000 A 
ATOM      9  C   UNL     1      11.166  14.250  17.717  0.00  0.00    +0.000 A 
ATOM     10  C   UNL     1      11.431  15.577  17.358  0.00  0.00    +0.000 A 
ATOM     11  C   UNL     1      10.484  16.576  17.596  0.00  0.00    +0.000 A 
ATOM     12 CL   UNL     1      10.850  18.183  17.077  0.00  0.00    +0.000 Cl
ATOM     13  C   UNL     1       9.283  16.252  18.232  0.00  0.00    +0.000 A 
ATOM     14 CL   UNL     1       8.077  17.433  18.605  0.00  0.00    +0.000 Cl
ATOM     15  C   UNL     1       9.014  14.924  18.585  0.00  0.00    +0.000 A 
ENDBRANCH   6   8
ENDBRANCH   1   2
BRANCH   1  16
ATOM     16  C   UNL     1       8.163   8.412  17.939  0.00  0.00    +0.000 C 
BRANCH  16  17
ATOM     17  C   UNL     1       7.096   7.511  17.297  0.00  0.00    +0.000 C 
BRANCH  17  23
ATOM     18  C   UNL     1       4.692   3.356  18.740  0.00  0.00    +0.000 C 
ATOM     19  O   UNL     1       4.896   2.836  19.831  0.00  0.00    +0.000 OA
ATOM     20  N   UNL     1       5.172   4.595  18.370  0.00  0.00    +0.000 N 
ATOM     21  C   UNL     1       6.073   5.318  19.268  0.00  0.00    +0.000 C 
ATOM     22  C   UNL     1       7.468   5.502  18.628  0.00  0.00    +0.000 C 
ATOM     23  N   UNL     1       7.451   6.075  17.255  0.00  0.00    +0.000 NA
ATOM     24  C   UNL     1       6.538   5.255  16.422  0.00  0.00    +0.000 C 
ATOM     25  C   UNL     1       5.116   5.104  16.999  0.00  0.00    +0.000 C 
BRANCH  18  26
ATOM     26  O   UNL     1       4.017   2.747  17.729  0.00  0.00    +0.000 OA
BRANCH  26  28
ATOM     27  C   UNL     1       1.693   3.053  18.162  0.00  0.00    +0.000 C 
ATOM     28  C   UNL     1       2.828   2.047  18.110  0.00  0.00    +0.000 C 
ENDBRANCH  26  28
ENDBRANCH  18  26
ENDBRANCH  17  23
ENDBRANCH  16  17
ENDBRANCH   1  16
TORSDOF 7
ENDMDL
MODEL 2
REMARK VINA RESULT:      -7.4      1.067      1.158
REMARK  Name = 
REMARK  9 active torsions:
REMARK  status: ('A' for Active; 'I' for Inactive)
REMARK    1  A    between atoms: C_1  and  C_2
REMARK    2  A    between atoms: C_2  and  O_3
REMARK    3  A    between atoms: O_3  and  C_4
REMARK    4  A    between atoms: N_9  and  C_10
REMARK    5  A    between atoms: C_10  and  C_11
REMARK    6  A    between atoms: C_11  and  O_12
REMARK    7  A    between atoms: O_12  and  C_13
REMARK    8  A    between atoms: C_15  and  C_16
REMARK    9  A    between atoms: N_17  and  C_18
REMARK                            x       y       z     vdW  Elec       q    Type
REMARK                         _______ _______ _______ _____ _____    ______ ____
ROOT
ATOM      1  O   UNL     1       8.071   8.683  17.192  0.00  0.00    +0.000 OA
ENDROOT
BRANCH   1   2
ATOM      2  C   UNL     1       8.557   9.641  18.010  0.00  0.00    +0.000 A 
ATOM      3  C   UNL     1       8.994   9.580  19.339  0.00  0.00    +0.000 A 
ATOM      4  C   UNL     1       9.344  10.876  19.656  0.00  0.00    +0.000 A 
ATOM      5  C   UNL     1       9.682  11.419  20.996  0.00  0.00    +0.000 C 
ATOM      6  N   UNL     1       9.191  11.616  18.486  0.00  0.00    +0.000 N 
ATOM      7  N   UNL     1       8.627  10.867  17.500  0.00  0.00    +0.000 NA
BRANCH   6   8
ATOM      8  C   UNL     1       9.493  12.988  18.250  0.00  0.00    +0.000 A 
ATOM      9  C   UNL     1      10.723  13.331  17.673  0.00  0.00    +0.000 A 
ATOM     10  C   UNL     1      10.993  14.662  17.335  0.00  0.00    +0.000 A 
ATOM     11  C   UNL     1      10.054  15.663  17.598  0.00  0.00    +0.000 A 
ATOM     12 CL   UNL     1      10.425  17.276  17.104  0.00  0.00    +0.000 Cl
ATOM     13  C   UNL     1       8.857  15.335  18.237  0.00  0.00    +0.000 A 
ATOM     14 CL   UNL     1       7.660  16.516  18.640  0.00  0.00    +0.000 Cl
ATOM     15  C   UNL     1       8.583  14.002  18.570  0.00  0.00    +0.000 A 
ENDBRANCH   6   8
ENDBRANCH   1   2
BRANCH   1  16
ATOM     16  C   UNL     1       7.663   7.503  17.893  0.00  0.00    +0.000 C 
BRANCH  16  17
ATOM     17  C   UNL     1       6.321   7.009  17.328  0.00  0.00    +0.000 C 
BRANCH  17  23
ATOM     18  C   UNL     1       3.802   2.982  18.932  0.00  0.00    +0.000 C 
ATOM     19  O   UNL     1       4.284   2.198  19.742  0.00  0.00    +0.000 OA
ATOM     20  N   UNL     1       4.363   4.200  18.605  0.00  0.00    +0.000 N 
ATOM     21  C   UNL     1       5.666   4.567  19.159  0.00  0.00    +0.000 C 
ATOM     22  C   UNL     1       6.725   4.712  18.042  0.00  0.00    +0.000 C 
ATOM     23  N   UNL     1       6.318   5.589  16.910  0.00  0.00    +0.000 NA
ATOM     24  C   UNL     1       5.008   5.115  16.404  0.00  0.00    +0.000 C 
ATOM     25  C   UNL     1       3.908   5.020  17.481  0.00  0.00    +0.000 C 
BRANCH  18  26
ATOM     26  O   UNL     1       2.685   2.721  18.202  0.00  0.00    +0.000 OA
BRANCH  26  28
ATOM     27  C   UNL     1       0.905   3.450  19.611  0.00  0.00    +0.000 C 
ATOM     28  C   UNL     1       1.556   2.251  18.945  0.00  0.00    +0.000 C 
ENDBRANCH  26  28
ENDBRANCH  18  26
ENDBRANCH  17  23
ENDBRANCH  16  17
ENDBRANCH   1  16
TORSDOF 7
ENDMDL
MODEL 3
REMARK VINA RESULT:      -7.4      1.520      1.928
REMARK  Name = 
REMARK  9 active torsions:
REMARK  status: ('A' for Active; 'I' for Inactive)
REMARK    1  A    between atoms: C_1  and  C_2
REMARK    2  A    between atoms: C_2  and  O_3
REMARK    3  A    between atoms: O_3  and  C_4
REMARK    4  A    between atoms: N_9  and  C_10
REMARK    5  A    between atoms: C_10  and  C_11
REMARK    6  A    between atoms: C_11  and  O_12
REMARK    7  A    between atoms: O_12  and  C_13
REMARK    8  A    between atoms: C_15  and  C_16
REMARK    9  A    between atoms: N_17  and  C_18
REMARK                            x       y       z     vdW  Elec       q    Type
REMARK                         _______ _______ _______ _____ _____    ______ ____
ROOT
ATOM      1  O   UNL     1       8.035   8.692  17.185  0.00  0.00    +0.000 OA
ENDROOT
BRANCH   1   2
ATOM      2  C   UNL     1       8.546   9.643  17.997  0.00  0.00    +0.000 A 
ATOM      3  C   UNL     1       9.035   9.567  19.307  0.00  0.00    +0.000 A 
ATOM      4  C   UNL     1       9.387  10.862  19.629  0.00  0.00    +0.000 A 
ATOM      5  C   UNL     1       9.773  11.389  20.963  0.00  0.00    +0.000 C 
ATOM      6  N   UNL     1       9.183  11.617  18.477  0.00  0.00    +0.000 N 
ATOM      7  N   UNL     1       8.587  10.877  17.503  0.00  0.00    +0.000 NA
BRANCH   6   8
ATOM      8  C   UNL     1       9.465  12.994  18.248  0.00  0.00    +0.000 A 
ATOM      9  C   UNL     1      10.767  13.381  17.905  0.00  0.00    +0.000 A 
ATOM     10  C   UNL     1      11.040  14.713  17.573  0.00  0.00    +0.000 A 
ATOM     11  C   UNL     1      10.025  15.673  17.610  0.00  0.00    +0.000 A 
ATOM     12 CL   UNL     1      10.414  17.286  17.133  0.00  0.00    +0.000 Cl
ATOM     13  C   UNL     1       8.742  15.304  18.020  0.00  0.00    +0.000 A 
ATOM     14 CL   UNL     1       7.440  16.435  18.138  0.00  0.00    +0.000 Cl
ATOM     15  C   UNL     1       8.467  13.971  18.347  0.00  0.00    +0.000 A 
ENDBRANCH   6   8
ENDBRANCH   1   2
BRANCH   1  16
ATOM     16  C   UNL     1       7.414   7.620  17.902  0.00  0.00    +0.000 C 
BRANCH  16  17
ATOM     17  C   UNL     1       7.069   6.483  16.926  0.00  0.00    +0.000 C 
BRANCH  17  23
ATOM     18  C   UNL     1       2.746   4.031  17.578  0.00  0.00    +0.000 C 
ATOM     19  O   UNL     1       2.420   3.091  16.862  0.00  0.00    +0.000 OA
ATOM     20  N   UNL     1       3.996   4.613  17.573  0.00  0.00    +0.000 N 
ATOM     21  C   UNL     1       4.990   4.179  16.591  0.00  0.00    +0.000 C 
ATOM     22  C   UNL     1       5.358   5.328  15.626  0.00  0.00    +0.000 C 
ATOM     23  N   UNL     1       5.736   6.604  16.293  0.00  0.00    +0.000 NA
ATOM     24  C   UNL     1       4.654   6.970  17.239  0.00  0.00    +0.000 C 
ATOM     25  C   UNL     1       4.304   5.868  18.260  0.00  0.00    +0.000 C 
BRANCH  18  26
ATOM     26  O   UNL     1       1.892   4.663  18.426  0.00  0.00    +0.000 OA
BRANCH  26  28
ATOM     27  C   UNL     1       1.586   4.010  20.699  0.00  0.00    +0.000 C 
ATOM     28  C   UNL     1       1.111   3.811  19.271  0.00  0.00    +0.000 C 
ENDBRANCH  26  28
ENDBRANCH  18  26
ENDBRANCH  17  23
ENDBRANCH  16  17
ENDBRANCH   1  16
TORSDOF 7
ENDMDL
MODEL 4
REMARK VINA RESULT:      -7.1      1.411      1.980
REMARK  Name = 
REMARK  9 active torsions:
REMARK  status: ('A' for Active; 'I' for Inactive)
REMARK    1  A    between atoms: C_1  and  C_2
REMARK    2  A    between atoms: C_2  and  O_3
REMARK    3  A    between atoms: O_3  and  C_4
REMARK    4  A    between atoms: N_9  and  C_10
REMARK    5  A    between atoms: C_10  and  C_11
REMARK    6  A    between atoms: C_11  and  O_12
REMARK    7  A    between atoms: O_12  and  C_13
REMARK    8  A    between atoms: C_15  and  C_16
REMARK    9  A    between atoms: N_17  and  C_18
REMARK                            x       y       z     vdW  Elec       q    Type
REMARK                         _______ _______ _______ _____ _____    ______ ____
ROOT
ATOM      1  O   UNL     1       7.758   8.191  17.105  0.00  0.00    +0.000 OA
ENDROOT
BRANCH   1   2
ATOM      2  C   UNL     1       8.307   9.157  17.872  0.00  0.00    +0.000 A 
ATOM      3  C   UNL     1       8.873   9.104  19.152  0.00  0.00    +0.000 A 
ATOM      4  C   UNL     1       9.230  10.405  19.435  0.00  0.00    +0.000 A 
ATOM      5  C   UNL     1       9.690  10.954  20.736  0.00  0.00    +0.000 C 
ATOM      6  N   UNL     1       8.951  11.143  18.287  0.00  0.00    +0.000 N 
ATOM      7  N   UNL     1       8.306  10.385  17.360  0.00  0.00    +0.000 NA
BRANCH   6   8
ATOM      8  C   UNL     1       9.206  12.519  18.025  0.00  0.00    +0.000 A 
ATOM      9  C   UNL     1       8.170  13.451  18.172  0.00  0.00    +0.000 A 
ATOM     10  C   UNL     1       8.428  14.819  18.024  0.00  0.00    +0.000 A 
ATOM     11  C   UNL     1       9.711  15.264  17.696  0.00  0.00    +0.000 A 
ATOM     12 CL   UNL     1       9.976  16.967  17.584  0.00  0.00    +0.000 Cl
ATOM     13  C   UNL     1      10.730  14.334  17.478  0.00  0.00    +0.000 A 
ATOM     14 CL   UNL     1      12.333  14.795  17.026  0.00  0.00    +0.000 Cl
ATOM     15  C   UNL     1      10.474  12.966  17.633  0.00  0.00    +0.000 A 
ENDBRANCH   6   8
ENDBRANCH   1   2
BRANCH   1  16
ATOM     16  C   UNL     1       6.637   7.552  17.726  0.00  0.00    +0.000 C 
BRANCH  16  17
ATOM     17  C   UNL     1       5.830   6.788  16.665  0.00  0.00    +0.000 C 
BRANCH  17  23
ATOM     18  C   UNL     1       4.272   2.818  19.301  0.00  0.00    +0.000 C 
ATOM     19  O   UNL     1       4.920   2.370  20.239  0.00  0.00    +0.000 OA
ATOM     20  N   UNL     1       4.548   4.013  18.669  0.00  0.00    +0.000 N 
ATOM     21  C   UNL     1       5.743   4.769  19.044  0.00  0.00    +0.000 C 
ATOM     22  C   UNL     1       6.735   4.865  17.863  0.00  0.00    +0.000 C 
ATOM     23  N   UNL     1       6.136   5.342  16.586  0.00  0.00    +0.000 NA
ATOM     24  C   UNL     1       4.958   4.494  16.282  0.00  0.00    +0.000 C 
ATOM     25  C   UNL     1       3.915   4.427  17.416  0.00  0.00    +0.000 C 
BRANCH  18  26
ATOM     26  O   UNL     1       3.234   2.161  18.719  0.00  0.00    +0.000 OA
BRANCH  26  28
ATOM     27  C   UNL     1       0.872   2.483  18.663  0.00  0.00    +0.000 C 
ATOM     28  C   UNL     1       2.050   2.044  19.515  0.00  0.00    +0.000 C 
ENDBRANCH  26  28
ENDBRANCH  18  26
ENDBRANCH  17  23
ENDBRANCH  16  17
ENDBRANCH   1  16
TORSDOF 7
ENDMDL
MODEL 5
REMARK VINA RESULT:      -7.0      2.523      3.573
REMARK  Name = 
REMARK  9 active torsions:
REMARK  status: ('A' for Active; 'I' for Inactive)
REMARK    1  A    between atoms: C_1  and  C_2
REMARK    2  A    between atoms: C_2  and  O_3
REMARK    3  A    between atoms: O_3  and  C_4
REMARK    4  A    between atoms: N_9  and  C_10
REMARK    5  A    between atoms: C_10  and  C_11
REMARK    6  A    between atoms: C_11  and  O_12
REMARK    7  A    between atoms: O_12  and  C_13
REMARK    8  A    between atoms: C_15  and  C_16
REMARK    9  A    between atoms: N_17  and  C_18
REMARK                            x       y       z     vdW  Elec       q    Type
REMARK                         _______ _______ _______ _____ _____    ______ ____
ROOT
ATOM      1  O   UNL     1       8.853   9.685  17.604  0.00  0.00    +0.000 OA
ENDROOT
BRANCH   1   2
ATOM      2  C   UNL     1       9.400  10.617  18.414  0.00  0.00    +0.000 A 
ATOM      3  C   UNL     1      10.513  11.449  18.239  0.00  0.00    +0.000 A 
ATOM      4  C   UNL     1      10.610  12.163  19.414  0.00  0.00    +0.000 A 
ATOM      5  C   UNL     1      11.725  13.042  19.849  0.00  0.00    +0.000 C 
ATOM      6  N   UNL     1       9.508  11.796  20.183  0.00  0.00    +0.000 N 
ATOM      7  N   UNL     1       8.814  10.783  19.597  0.00  0.00    +0.000 NA
BRANCH   6   8
ATOM      8  C   UNL     1       9.094  12.298  21.450  0.00  0.00    +0.000 A 
ATOM      9  C   UNL     1       8.510  11.427  22.379  0.00  0.00    +0.000 A 
ATOM     10  C   UNL     1       8.197  11.878  23.666  0.00  0.00    +0.000 A 
ATOM     11  C   UNL     1       8.433  13.207  24.026  0.00  0.00    +0.000 A 
ATOM     12 CL   UNL     1       8.078  13.686  25.647  0.00  0.00    +0.000 Cl
ATOM     13  C   UNL     1       8.949  14.097  23.080  0.00  0.00    +0.000 A 
ATOM     14 CL   UNL     1       9.230  15.767  23.428  0.00  0.00    +0.000 Cl
ATOM     15  C   UNL     1       9.270  13.644  21.795  0.00  0.00    +0.000 A 
ENDBRANCH   6   8
ENDBRANCH   1   2
BRANCH   1  16
ATOM     16  C   UNL     1       8.336   8.558  18.319  0.00  0.00    +0.000 C 
BRANCH  16  17
ATOM     17  C   UNL     1       7.340   7.798  17.428  0.00  0.00    +0.000 C 
BRANCH  17  23
ATOM     18  C   UNL     1       4.773   3.657  18.608  0.00  0.00    +0.000 C 
ATOM     19  O   UNL     1       4.968   3.052  19.656  0.00  0.00    +0.000 OA
ATOM     20  N   UNL     1       5.303   4.898  18.320  0.00  0.00    +0.000 N 
ATOM     21  C   UNL     1       6.246   5.515  19.253  0.00  0.00    +0.000 C 
ATOM     22  C   UNL     1       7.639   5.683  18.607  0.00  0.00    +0.000 C 
ATOM     23  N   UNL     1       7.631   6.355  17.278  0.00  0.00    +0.000 NA
ATOM     24  C   UNL     1       6.672   5.637  16.403  0.00  0.00    +0.000 C 
ATOM     25  C   UNL     1       5.252   5.507  16.990  0.00  0.00    +0.000 C 
BRANCH  18  26
ATOM     26  O   UNL     1       4.059   3.152  17.567  0.00  0.00    +0.000 OA
BRANCH  26  28
ATOM     27  C   UNL     1       1.843   4.012  17.744  0.00  0.00    +0.000 C 
ATOM     28  C   UNL     1       2.712   2.773  17.865  0.00  0.00    +0.000 C 
ENDBRANCH  26  28
ENDBRANCH  18  26
ENDBRANCH  17  23
ENDBRANCH  16  17
ENDBRANCH   1  16
TORSDOF 7
ENDMDL
MODEL 6
REMARK VINA RESULT:      -6.9      5.207     11.290
REMARK  Name = 
REMARK  9 active torsions:
REMARK  status: ('A' for Active; 'I' for Inactive)
REMARK    1  A    between atoms: C_1  and  C_2
REMARK    2  A    between atoms: C_2  and  O_3
REMARK    3  A    between atoms: O_3  and  C_4
REMARK    4  A    between atoms: N_9  and  C_10
REMARK    5  A    between atoms: C_10  and  C_11
REMARK    6  A    between atoms: C_11  and  O_12
REMARK    7  A    between atoms: O_12  and  C_13
REMARK    8  A    between atoms: C_15  and  C_16
REMARK    9  A    between atoms: N_17  and  C_18
REMARK                            x       y       z     vdW  Elec       q    Type
REMARK                         _______ _______ _______ _____ _____    ______ ____
ROOT
ATOM      1  O   UNL     1       8.198   7.760  18.413  0.00  0.00    +0.000 OA
ENDROOT
BRANCH   1   2
ATOM      2  C   UNL     1       7.371   6.962  17.703  0.00  0.00    +0.000 A 
ATOM      3  C   UNL     1       7.426   6.534  16.370  0.00  0.00    +0.000 A 
ATOM      4  C   UNL     1       6.293   5.767  16.198  0.00  0.00    +0.000 A 
ATOM      5  C   UNL     1       5.748   5.232  14.924  0.00  0.00    +0.000 C 
ATOM      6  N   UNL     1       5.679   5.697  17.446  0.00  0.00    +0.000 N 
ATOM      7  N   UNL     1       6.302   6.503  18.348  0.00  0.00    +0.000 NA
BRANCH   6   8
ATOM      8  C   UNL     1       4.521   4.964  17.833  0.00  0.00    +0.000 A 
ATOM      9  C   UNL     1       3.296   5.631  17.964  0.00  0.00    +0.000 A 
ATOM     10  C   UNL     1       2.128   4.910  18.237  0.00  0.00    +0.000 A 
ATOM     11  C   UNL     1       2.178   3.524  18.413  0.00  0.00    +0.000 A 
ATOM     12 CL   UNL     1       0.693   2.686  18.690  0.00  0.00    +0.000 Cl
ATOM     13  C   UNL     1       3.408   2.865  18.354  0.00  0.00    +0.000 A 
ATOM     14 CL   UNL     1       3.566   1.162  18.604  0.00  0.00    +0.000 Cl
ATOM     15  C   UNL     1       4.576   3.585  18.074  0.00  0.00    +0.000 A 
ENDBRANCH   6   8
ENDBRANCH   1   2
BRANCH   1  16
ATOM     16  C   UNL     1       8.198   9.115  17.952  0.00  0.00    +0.000 C 
BRANCH  16  17
ATOM     17  C   UNL     1       9.035   9.981  18.907  0.00  0.00    +0.000 C 
BRANCH  17  23
ATOM     18  C   UNL     1      10.120  14.802  19.755  0.00  0.00    +0.000 C 
ATOM     19  O   UNL     1       9.554  15.707  19.154  0.00  0.00    +0.000 OA
ATOM     20  N   UNL     1       9.731  13.479  19.707  0.00  0.00    +0.000 N 
ATOM     21  C   UNL     1       8.646  13.077  18.812  0.00  0.00    +0.000 C 
ATOM     22  C   UNL     1       9.155  12.109  17.720  0.00  0.00    +0.000 C 
ATOM     23  N   UNL     1       9.931  10.947  18.233  0.00  0.00    +0.000 NA
ATOM     24  C   UNL     1      11.019  11.462  19.098  0.00  0.00    +0.000 C 
ATOM     25  C   UNL     1      10.540  12.381  20.240  0.00  0.00    +0.000 C 
BRANCH  18  26
ATOM     26  O   UNL     1      11.246  14.977  20.496  0.00  0.00    +0.000 OA
BRANCH  26  28
ATOM     27  C   UNL     1      12.295  17.043  21.056  0.00  0.00    +0.000 C 
ATOM     28  C   UNL     1      11.208  16.055  21.437  0.00  0.00    +0.000 C 
ENDBRANCH  26  28
ENDBRANCH  18  26
ENDBRANCH  17  23
ENDBRANCH  16  17
ENDBRANCH   1  16
TORSDOF 7
ENDMDL
MODEL 7
REMARK VINA RESULT:      -6.9      6.898      8.570
REMARK  Name = 
REMARK  9 active torsions:
REMARK  status: ('A' for Active; 'I' for Inactive)
REMARK    1  A    between atoms: C_1  and  C_2
REMARK    2  A    between atoms: C_2  and  O_3
REMARK    3  A    between atoms: O_3  and  C_4
REMARK    4  A    between atoms: N_9  and  C_10
REMARK    5  A    between atoms: C_10  and  C_11
REMARK    6  A    between atoms: C_11  and  O_12
REMARK    7  A    between atoms: O_12  and  C_13
REMARK    8  A    between atoms: C_15  and  C_16
REMARK    9  A    between atoms: N_17  and  C_18
REMARK                            x       y       z     vdW  Elec       q    Type
REMARK                         _______ _______ _______ _____ _____    ______ ____
ROOT
ATOM      1  O   UNL     1       2.601   5.840  19.234  0.00  0.00    +0.000 OA
ENDROOT
BRANCH   1   2
ATOM      2  C   UNL     1       2.218   7.131  19.128  0.00  0.00    +0.000 A 
ATOM      3  C   UNL     1       2.460   8.083  18.129  0.00  0.00    +0.000 A 
ATOM      4  C   UNL     1       1.851   9.234  18.583  0.00  0.00    +0.000 A 
ATOM      5  C   UNL     1       1.966  10.601  18.015  0.00  0.00    +0.000 C 
ATOM      6  N   UNL     1       1.204   8.890  19.768  0.00  0.00    +0.000 N 
ATOM      7  N   UNL     1       1.503   7.616  20.140  0.00  0.00    +0.000 NA
BRANCH   6   8
ATOM      8  C   UNL     1       0.366   9.692  20.594  0.00  0.00    +0.000 A 
ATOM      9  C   UNL     1       0.441   9.557  21.987  0.00  0.00    +0.000 A 
ATOM     10  C   UNL     1      -0.295  10.410  22.816  0.00  0.00    +0.000 A 
ATOM     11  C   UNL     1      -1.134  11.382  22.265  0.00  0.00    +0.000 A 
ATOM     12 CL   UNL     1      -1.971  12.440  23.342  0.00  0.00    +0.000 Cl
ATOM     13  C   UNL     1      -1.266  11.472  20.877  0.00  0.00    +0.000 A 
ATOM     14 CL   UNL     1      -2.315  12.614  20.112  0.00  0.00    +0.000 Cl
ATOM     15  C   UNL     1      -0.525  10.623  20.046  0.00  0.00    +0.000 A 
ENDBRANCH   6   8
ENDBRANCH   1   2
BRANCH   1  16
ATOM     16  C   UNL     1       3.892   5.688  19.833  0.00  0.00    +0.000 C 
BRANCH  16  17
ATOM     17  C   UNL     1       4.913   5.284  18.757  0.00  0.00    +0.000 C 
BRANCH  17  23
ATOM     18  C   UNL     1       7.123   4.644  14.303  0.00  0.00    +0.000 C 
ATOM     19  O   UNL     1       7.821   5.514  13.797  0.00  0.00    +0.000 OA
ATOM     20  N   UNL     1       6.653   4.685  15.600  0.00  0.00    +0.000 N 
ATOM     21  C   UNL     1       6.894   5.873  16.418  0.00  0.00    +0.000 C 
ATOM     22  C   UNL     1       5.567   6.571  16.791  0.00  0.00    +0.000 C 
ATOM     23  N   UNL     1       4.536   5.673  17.380  0.00  0.00    +0.000 NA
ATOM     24  C   UNL     1       4.345   4.523  16.462  0.00  0.00    +0.000 C 
ATOM     25  C   UNL     1       5.642   3.763  16.120  0.00  0.00    +0.000 C 
BRANCH  18  26
ATOM     26  O   UNL     1       6.667   3.555  13.628  0.00  0.00    +0.000 OA
BRANCH  26  28
ATOM     27  C   UNL     1       5.658   2.564  11.709  0.00  0.00    +0.000 C 
ATOM     28  C   UNL     1       6.483   3.731  12.220  0.00  0.00    +0.000 C 
ENDBRANCH  26  28
ENDBRANCH  18  26
ENDBRANCH  17  23
ENDBRANCH  16  17
ENDBRANCH   1  16
TORSDOF 7
ENDMDL
MODEL 8
REMARK VINA RESULT:      -6.8      5.146     11.224
REMARK  Name = 
REMARK  9 active torsions:
REMARK  status: ('A' for Active; 'I' for Inactive)
REMARK    1  A    between atoms: C_1  and  C_2
REMARK    2  A    between atoms: C_2  and  O_3
REMARK    3  A    between atoms: O_3  and  C_4
REMARK    4  A    between atoms: N_9  and  C_10
REMARK    5  A    between atoms: C_10  and  C_11
REMARK    6  A    between atoms: C_11  and  O_12
REMARK    7  A    between atoms: O_12  and  C_13
REMARK    8  A    between atoms: C_15  and  C_16
REMARK    9  A    between atoms: N_17  and  C_18
REMARK                            x       y       z     vdW  Elec       q    Type
REMARK                         _______ _______ _______ _____ _____    ______ ____
ROOT
ATOM      1  O   UNL     1       7.918   8.015  18.443  0.00  0.00    +0.000 OA
ENDROOT
BRANCH   1   2
ATOM      2  C   UNL     1       7.223   7.092  17.743  0.00  0.00    +0.000 A 
ATOM      3  C   UNL     1       7.452   6.534  16.479  0.00  0.00    +0.000 A 
ATOM      4  C   UNL     1       6.391   5.677  16.274  0.00  0.00    +0.000 A 
ATOM      5  C   UNL     1       6.024   4.977  15.017  0.00  0.00    +0.000 C 
ATOM      6  N   UNL     1       5.645   5.694  17.450  0.00  0.00    +0.000 N 
ATOM      7  N   UNL     1       6.117   6.630  18.318  0.00  0.00    +0.000 NA
BRANCH   6   8
ATOM      8  C   UNL     1       4.495   4.926  17.791  0.00  0.00    +0.000 A 
ATOM      9  C   UNL     1       3.252   5.563  17.905  0.00  0.00    +0.000 A 
ATOM     10  C   UNL     1       2.095   4.810  18.133  0.00  0.00    +0.000 A 
ATOM     11  C   UNL     1       2.172   3.422  18.280  0.00  0.00    +0.000 A 
ATOM     12 CL   UNL     1       0.701   2.545  18.501  0.00  0.00    +0.000 Cl
ATOM     13  C   UNL     1       3.418   2.793  18.238  0.00  0.00    +0.000 A 
ATOM     14 CL   UNL     1       3.609   1.088  18.456  0.00  0.00    +0.000 Cl
ATOM     15  C   UNL     1       4.576   3.545  18.004  0.00  0.00    +0.000 A 
ENDBRANCH   6   8
ENDBRANCH   1   2
BRANCH   1  16
ATOM     16  C   UNL     1       8.156   9.217  17.703  0.00  0.00    +0.000 C 
BRANCH  16  17
ATOM     17  C   UNL     1       9.272  10.026  18.382  0.00  0.00    +0.000 C 
BRANCH  17  23
ATOM     18  C   UNL     1      11.871  14.305  18.630  0.00  0.00    +0.000 C 
ATOM     19  O   UNL     1      12.332  14.721  19.686  0.00  0.00    +0.000 OA
ATOM     20  N   UNL     1      11.321  13.051  18.466  0.00  0.00    +0.000 N 
ATOM     21  C   UNL     1      11.166  12.172  19.626  0.00  0.00    +0.000 C 
ATOM     22  C   UNL     1       9.675  11.884  19.910  0.00  0.00    +0.000 C 
ATOM     23  N   UNL     1       8.897  11.414  18.731  0.00  0.00    +0.000 NA
ATOM     24  C   UNL     1       9.096  12.385  17.628  0.00  0.00    +0.000 C 
ATOM     25  C   UNL     1      10.574  12.648  17.274  0.00  0.00    +0.000 C 
BRANCH  18  26
ATOM     26  O   UNL     1      11.783  15.054  17.499  0.00  0.00    +0.000 OA
BRANCH  26  28
ATOM     27  C   UNL     1       9.726  16.252  17.642  0.00  0.00    +0.000 C 
ATOM     28  C   UNL     1      11.240  16.368  17.666  0.00  0.00    +0.000 C 
ENDBRANCH  26  28
ENDBRANCH  18  26
ENDBRANCH  17  23
ENDBRANCH  16  17
ENDBRANCH   1  16
TORSDOF 7
ENDMDL
MODEL 9
REMARK VINA RESULT:      -6.7      5.039     10.960
REMARK  Name = 
REMARK  9 active torsions:
REMARK  status: ('A' for Active; 'I' for Inactive)
REMARK    1  A    between atoms: C_1  and  C_2
REMARK    2  A    between atoms: C_2  and  O_3
REMARK    3  A    between atoms: O_3  and  C_4
REMARK    4  A    between atoms: N_9  and  C_10
REMARK    5  A    between atoms: C_10  and  C_11
REMARK    6  A    between atoms: C_11  and  O_12
REMARK    7  A    between atoms: O_12  and  C_13
REMARK    8  A    between atoms: C_15  and  C_16
REMARK    9  A    between atoms: N_17  and  C_18
REMARK                            x       y       z     vdW  Elec       q    Type
REMARK                         _______ _______ _______ _____ _____    ______ ____
ROOT
ATOM      1  O   UNL     1       8.001   8.016  16.971  0.00  0.00    +0.000 OA
ENDROOT
BRANCH   1   2
ATOM      2  C   UNL     1       7.227   6.912  16.918  0.00  0.00    +0.000 A 
ATOM      3  C   UNL     1       7.334   5.749  16.144  0.00  0.00    +0.000 A 
ATOM      4  C   UNL     1       6.238   4.989  16.492  0.00  0.00    +0.000 A 
ATOM      5  C   UNL     1       5.749   3.752  15.833  0.00  0.00    +0.000 C 
ATOM      6  N   UNL     1       5.593   5.684  17.513  0.00  0.00    +0.000 N 
ATOM      7  N   UNL     1       6.159   6.905  17.711  0.00  0.00    +0.000 NA
BRANCH   6   8
ATOM      8  C   UNL     1       4.454   5.298  18.276  0.00  0.00    +0.000 A 
ATOM      9  C   UNL     1       3.252   6.002  18.123  0.00  0.00    +0.000 A 
ATOM     10  C   UNL     1       2.096   5.571  18.784  0.00  0.00    +0.000 A 
ATOM     11  C   UNL     1       2.137   4.456  19.624  0.00  0.00    +0.000 A 
ATOM     12 CL   UNL     1       0.664   3.941  20.364  0.00  0.00    +0.000 Cl
ATOM     13  C   UNL     1       3.349   3.794  19.835  0.00  0.00    +0.000 A 
ATOM     14 CL   UNL     1       3.498   2.435  20.892  0.00  0.00    +0.000 Cl
ATOM     15  C   UNL     1       4.505   4.221  19.169  0.00  0.00    +0.000 A 
ENDBRANCH   6   8
ENDBRANCH   1   2
BRANCH   1  16
ATOM     16  C   UNL     1       8.343   8.396  18.308  0.00  0.00    +0.000 C 
BRANCH  16  17
ATOM     17  C   UNL     1       8.422   9.928  18.402  0.00  0.00    +0.000 C 
BRANCH  17  23
ATOM     18  C   UNL     1      10.171  14.558  19.198  0.00  0.00    +0.000 C 
ATOM     19  O   UNL     1      10.843  15.149  18.361  0.00  0.00    +0.000 OA
ATOM     20  N   UNL     1       9.505  13.374  18.962  0.00  0.00    +0.000 N 
ATOM     21  C   UNL     1       9.672  12.695  17.677  0.00  0.00    +0.000 C 
ATOM     22  C   UNL     1      10.351  11.319  17.858  0.00  0.00    +0.000 C 
ATOM     23  N   UNL     1       9.721  10.446  18.886  0.00  0.00    +0.000 NA
ATOM     24  C   UNL     1       9.628  11.214  20.152  0.00  0.00    +0.000 C 
ATOM     25  C   UNL     1       8.898  12.566  20.020  0.00  0.00    +0.000 C 
BRANCH  18  26
ATOM     26  O   UNL     1      10.050  14.964  20.490  0.00  0.00    +0.000 OA
BRANCH  26  28
ATOM     27  C   UNL     1      11.406  16.549  21.645  0.00  0.00    +0.000 C 
ATOM     28  C   UNL     1      10.217  16.367  20.718  0.00  0.00    +0.000 C 
ENDBRANCH  26  28
ENDBRANCH  18  26
ENDBRANCH  17  23
ENDBRANCH  16  17
ENDBRANCH   1  16
TORSDOF 7
ENDMDL
