MODEL 1
REMARK VINA RESULT:      -7.0      0.000      0.000
REMARK  Name = 
REMARK  4 active torsions:
REMARK  status: ('A' for Active; 'I' for Inactive)
REMARK    1  A    between atoms: C_2  and  C_10
REMARK    2  A    between atoms: N_3  and  C_4
REMARK    3  A    between atoms: C_4  and  C_5
REMARK    4  A    between atoms: C_16  and  N_17
REMARK                            x       y       z     vdW  Elec       q    Type
REMARK                         _______ _______ _______ _____ _____    ______ ____
ROOT
ATOM      1  C   UNL     1       4.452   5.707  18.577  0.00  0.00    +0.000 A 
ATOM      2  C   UNL     1       5.331   6.744  18.216  0.00  0.00    +0.000 A 
ATOM      3  C   UNL     1       6.672   6.463  18.007  0.00  0.00    +0.000 A 
ATOM      4 BR   UNL     1       7.865   7.813  17.457  0.00  0.00    +0.000 Br
ATOM      5  C   UNL     1       7.107   5.172  18.215  0.00  0.00    +0.000 A 
ATOM      6  N   UNL     1       6.288   4.157  18.566  0.00  0.00    +0.000 NA
ATOM      7  C   UNL     1       4.954   4.397  18.711  0.00  0.00    +0.000 A 
ENDROOT
BRANCH   7   8
ATOM      8  N   UNL     1       4.188   3.266  18.893  0.00  0.00    +0.000 N 
ATOM      9  C   UNL     1       3.640   2.566  17.733  0.00  0.00    +0.000 C 
ATOM     10  C   UNL     1       2.138   2.321  17.888  0.00  0.00    +0.000 C 
ATOM     11  C   UNL     1       1.793   1.734  19.253  0.00  0.00    +0.000 C 
ATOM     12  C   UNL     1       2.346   2.627  20.358  0.00  0.00    +0.000 C 
ATOM     13  C   UNL     1       3.860   2.772  20.222  0.00  0.00    +0.000 C 
ENDBRANCH   7   8
BRANCH   1  15
ATOM     14  O   UNL     1       2.164   6.055  18.007  0.00  0.00    +0.000 OA
ATOM     15  C   UNL     1       3.027   6.057  18.877  0.00  0.00    +0.000 C 
ATOM     16  N   UNL     1       2.741   6.387  20.187  0.00  0.00    +0.000 N 
ATOM     17  H   UNL     1       3.417   6.263  20.927  0.00  0.00    +0.000 HD
BRANCH  16  18
ATOM     18  C   UNL     1       1.410   6.787  20.621  0.00  0.00    +0.000 C 
BRANCH  18  19
ATOM     19  C   UNL     1       1.343   8.294  20.879  0.00  0.00    +0.000 C 
ATOM     20  C   UNL     1       0.116   8.743  21.661  0.00  0.00    +0.000 C 
ATOM     21  C   UNL     1      -0.024  10.177  21.219  0.00  0.00    +0.000 C 
ATOM     22  C   UNL     1       0.391  10.114  19.764  0.00  0.00    +0.000 C 
ATOM     23  O   UNL     1       1.292   9.007  19.621  0.00  0.00    +0.000 OA
ENDBRANCH  18  19
ENDBRANCH  16  18
ENDBRANCH   1  15
TORSDOF 4
ENDMDL
MODEL 2
REMARK VINA RESULT:      -6.6      1.588      2.229
REMARK  Name = 
REMARK  4 active torsions:
REMARK  status: ('A' for Active; 'I' for Inactive)
REMARK    1  A    between atoms: C_2  and  C_10
REMARK    2  A    between atoms: N_3  and  C_4
REMARK    3  A    between atoms: C_4  and  C_5
REMARK    4  A    between atoms: C_16  and  N_17
REMARK                            x       y       z     vdW  Elec       q    Type
REMARK                         _______ _______ _______ _____ _____    ______ ____
ROOT
ATOM      1  C   UNL     1       3.472   6.720  18.321  0.00  0.00    +0.000 A 
ATOM      2  C   UNL     1       4.720   7.183  17.868  0.00  0.00    +0.000 A 
ATOM      3  C   UNL     1       5.811   6.328  17.874  0.00  0.00    +0.000 A 
ATOM      4 BR   UNL     1       7.482   6.894  17.211  0.00  0.00    +0.000 Br
ATOM      5  C   UNL     1       5.641   5.057  18.378  0.00  0.00    +0.000 A 
ATOM      6  N   UNL     1       4.455   4.586  18.823  0.00  0.00    +0.000 NA
ATOM      7  C   UNL     1       3.355   5.387  18.764  0.00  0.00    +0.000 A 
ENDROOT
BRANCH   7   8
ATOM      8  N   UNL     1       2.171   4.753  19.074  0.00  0.00    +0.000 N 
ATOM      9  C   UNL     1       1.675   4.771  20.448  0.00  0.00    +0.000 C 
ATOM     10  C   UNL     1       1.327   3.364  20.934  0.00  0.00    +0.000 C 
ATOM     11  C   UNL     1       0.474   2.606  19.922  0.00  0.00    +0.000 C 
ATOM     12  C   UNL     1       1.169   2.588  18.566  0.00  0.00    +0.000 C 
ATOM     13  C   UNL     1       1.417   4.013  18.073  0.00  0.00    +0.000 C 
ENDBRANCH   7   8
BRANCH   1  15
ATOM     14  O   UNL     1       1.680   7.983  17.387  0.00  0.00    +0.000 OA
ATOM     15  C   UNL     1       2.333   7.691  18.381  0.00  0.00    +0.000 C 
ATOM     16  N   UNL     1       2.065   8.242  19.619  0.00  0.00    +0.000 N 
ATOM     17  H   UNL     1       2.513   7.907  20.460  0.00  0.00    +0.000 HD
BRANCH  16  18
ATOM     18  C   UNL     1       1.015   9.230  19.824  0.00  0.00    +0.000 C 
BRANCH  18  19
ATOM     19  C   UNL     1       0.841   9.550  21.311  0.00  0.00    +0.000 C 
ATOM     20  C   UNL     1      -0.307   8.811  21.982  0.00  0.00    +0.000 C 
ATOM     21  C   UNL     1      -0.639   9.731  23.129  0.00  0.00    +0.000 C 
ATOM     22  C   UNL     1      -0.416  11.101  22.524  0.00  0.00    +0.000 C 
ATOM     23  O   UNL     1       0.558  10.959  21.481  0.00  0.00    +0.000 OA
ENDBRANCH  18  19
ENDBRANCH  16  18
ENDBRANCH   1  15
TORSDOF 4
ENDMDL
MODEL 3
REMARK VINA RESULT:      -6.6      3.789      5.724
REMARK  Name = 
REMARK  4 active torsions:
REMARK  status: ('A' for Active; 'I' for Inactive)
REMARK    1  A    between atoms: C_2  and  C_10
REMARK    2  A    between atoms: N_3  and  C_4
REMARK    3  A    between atoms: C_4  and  C_5
REMARK    4  A    between atoms: C_16  and  N_17
REMARK                            x       y       z     vdW  Elec       q    Type
REMARK                         _______ _______ _______ _____ _____    ______ ____
ROOT
ATOM      1  C   UNL     1       5.132   4.712  15.824  0.00  0.00    +0.000 A 
ATOM      2  C   UNL     1       5.012   4.003  14.615  0.00  0.00    +0.000 A 
ATOM      3  C   UNL     1       6.062   4.010  13.710  0.00  0.00    +0.000 A 
ATOM      4 BR   UNL     1       5.964   3.017  12.113  0.00  0.00    +0.000 Br
ATOM      5  C   UNL     1       7.176   4.763  14.011  0.00  0.00    +0.000 A 
ATOM      6  N   UNL     1       7.318   5.457  15.161  0.00  0.00    +0.000 NA
ATOM      7  C   UNL     1       6.327   5.410  16.095  0.00  0.00    +0.000 A 
ENDROOT
BRANCH   7   8
ATOM      8  N   UNL     1       6.647   6.002  17.297  0.00  0.00    +0.000 N 
ATOM      9  C   UNL     1       6.807   7.453  17.372  0.00  0.00    +0.000 C 
ATOM     10  C   UNL     1       8.126   7.834  18.043  0.00  0.00    +0.000 C 
ATOM     11  C   UNL     1       8.350   7.065  19.342  0.00  0.00    +0.000 C 
ATOM     12  C   UNL     1       8.251   5.566  19.082  0.00  0.00    +0.000 C 
ATOM     13  C   UNL     1       6.884   5.214  18.497  0.00  0.00    +0.000 C 
ENDBRANCH   7   8
BRANCH   1  15
ATOM     14  O   UNL     1       3.639   5.772  17.348  0.00  0.00    +0.000 OA
ATOM     15  C   UNL     1       3.950   4.754  16.742  0.00  0.00    +0.000 C 
ATOM     16  N   UNL     1       3.235   3.579  16.872  0.00  0.00    +0.000 N 
ATOM     17  H   UNL     1       3.409   2.781  16.278  0.00  0.00    +0.000 HD
BRANCH  16  18
ATOM     18  C   UNL     1       2.087   3.456  17.759  0.00  0.00    +0.000 C 
BRANCH  18  19
ATOM     19  C   UNL     1       2.417   2.583  18.973  0.00  0.00    +0.000 C 
ATOM     20  C   UNL     1       2.088   3.222  20.314  0.00  0.00    +0.000 C 
ATOM     21  C   UNL     1       3.043   2.510  21.238  0.00  0.00    +0.000 C 
ATOM     22  C   UNL     1       4.273   2.341  20.371  0.00  0.00    +0.000 C 
ATOM     23  O   UNL     1       3.836   2.302  19.005  0.00  0.00    +0.000 OA
ENDBRANCH  18  19
ENDBRANCH  16  18
ENDBRANCH   1  15
TORSDOF 4
ENDMDL
MODEL 4
REMARK VINA RESULT:      -6.5      3.621      6.425
REMARK  Name = 
REMARK  4 active torsions:
REMARK  status: ('A' for Active; 'I' for Inactive)
REMARK    1  A    between atoms: C_2  and  C_10
REMARK    2  A    between atoms: N_3  and  C_4
REMARK    3  A    between atoms: C_4  and  C_5
REMARK    4  A    between atoms: C_16  and  N_17
REMARK                            x       y       z     vdW  Elec       q    Type
REMARK                         _______ _______ _______ _____ _____    ______ ____
ROOT
ATOM      1  C   UNL     1       4.331   6.445  17.286  0.00  0.00    +0.000 A 
ATOM      2  C   UNL     1       3.866   7.772  17.307  0.00  0.00    +0.000 A 
ATOM      3  C   UNL     1       2.656   8.063  17.918  0.00  0.00    +0.000 A 
ATOM      4 BR   UNL     1       2.035   9.839  18.025  0.00  0.00    +0.000 Br
ATOM      5  C   UNL     1       1.922   7.022  18.441  0.00  0.00    +0.000 A 
ATOM      6  N   UNL     1       2.341   5.737  18.432  0.00  0.00    +0.000 NA
ATOM      7  C   UNL     1       3.558   5.436  17.897  0.00  0.00    +0.000 A 
ENDROOT
BRANCH   7   8
ATOM      8  N   UNL     1       3.964   4.135  18.098  0.00  0.00    +0.000 N 
ATOM      9  C   UNL     1       3.514   3.085  17.186  0.00  0.00    +0.000 C 
ATOM     10  C   UNL     1       2.921   1.900  17.950  0.00  0.00    +0.000 C 
ATOM     11  C   UNL     1       3.820   1.454  19.099  0.00  0.00    +0.000 C 
ATOM     12  C   UNL     1       4.119   2.635  20.015  0.00  0.00    +0.000 C 
ATOM     13  C   UNL     1       4.793   3.761  19.233  0.00  0.00    +0.000 C 
ENDBRANCH   7   8
BRANCH   1  15
ATOM     14  O   UNL     1       6.696   6.462  16.994  0.00  0.00    +0.000 OA
ATOM     15  C   UNL     1       5.599   6.149  16.547  0.00  0.00    +0.000 C 
ATOM     16  N   UNL     1       5.462   5.508  15.331  0.00  0.00    +0.000 N 
ATOM     17  H   UNL     1       4.576   5.134  15.022  0.00  0.00    +0.000 HD
BRANCH  16  18
ATOM     18  C   UNL     1       6.602   5.191  14.481  0.00  0.00    +0.000 C 
BRANCH  18  19
ATOM     19  C   UNL     1       6.352   3.913  13.675  0.00  0.00    +0.000 C 
ATOM     20  C   UNL     1       7.090   3.855  12.346  0.00  0.00    +0.000 C 
ATOM     21  C   UNL     1       6.219   2.917  11.550  0.00  0.00    +0.000 C 
ATOM     22  C   UNL     1       4.827   3.282  12.021  0.00  0.00    +0.000 C 
ATOM     23  O   UNL     1       4.946   3.802  13.353  0.00  0.00    +0.000 OA
ENDBRANCH  18  19
ENDBRANCH  16  18
ENDBRANCH   1  15
TORSDOF 4
ENDMDL
MODEL 5
REMARK VINA RESULT:      -6.5      1.127      1.239
REMARK  Name = 
REMARK  4 active torsions:
REMARK  status: ('A' for Active; 'I' for Inactive)
REMARK    1  A    between atoms: C_2  and  C_10
REMARK    2  A    between atoms: N_3  and  C_4
REMARK    3  A    between atoms: C_4  and  C_5
REMARK    4  A    between atoms: C_16  and  N_17
REMARK                            x       y       z     vdW  Elec       q    Type
REMARK                         _______ _______ _______ _____ _____    ______ ____
ROOT
ATOM      1  C   UNL     1       3.962   5.935  18.585  0.00  0.00    +0.000 A 
ATOM      2  C   UNL     1       5.019   6.708  18.072  0.00  0.00    +0.000 A 
ATOM      3  C   UNL     1       6.308   6.199  18.084  0.00  0.00    +0.000 A 
ATOM      4 BR   UNL     1       7.737   7.178  17.344  0.00  0.00    +0.000 Br
ATOM      5  C   UNL     1       6.515   4.961  18.653  0.00  0.00    +0.000 A 
ATOM      6  N   UNL     1       5.520   4.198  19.157  0.00  0.00    +0.000 NA
ATOM      7  C   UNL     1       4.236   4.649  19.095  0.00  0.00    +0.000 A 
ENDROOT
BRANCH   7   8
ATOM      8  N   UNL     1       3.287   3.724  19.471  0.00  0.00    +0.000 N 
ATOM      9  C   UNL     1       2.842   2.710  18.517  0.00  0.00    +0.000 C 
ATOM     10  C   UNL     1       1.317   2.664  18.423  0.00  0.00    +0.000 C 
ATOM     11  C   UNL     1       0.661   2.625  19.800  0.00  0.00    +0.000 C 
ATOM     12  C   UNL     1       1.149   3.798  20.642  0.00  0.00    +0.000 C 
ATOM     13  C   UNL     1       2.669   3.758  20.788  0.00  0.00    +0.000 C 
ENDBRANCH   7   8
BRANCH   1  15
ATOM     14  O   UNL     1       1.691   6.164  17.901  0.00  0.00    +0.000 OA
ATOM     15  C   UNL     1       2.595   6.545  18.634  0.00  0.00    +0.000 C 
ATOM     16  N   UNL     1       2.413   7.564  19.548  0.00  0.00    +0.000 N 
ATOM     17  H   UNL     1       3.113   7.790  20.240  0.00  0.00    +0.000 HD
BRANCH  16  18
ATOM     18  C   UNL     1       1.152   8.279  19.682  0.00  0.00    +0.000 C 
BRANCH  18  19
ATOM     19  C   UNL     1       0.996   8.867  21.087  0.00  0.00    +0.000 C 
ATOM     20  C   UNL     1      -0.273   8.438  21.810  0.00  0.00    +0.000 C 
ATOM     21  C   UNL     1      -0.479   9.578  22.775  0.00  0.00    +0.000 C 
ATOM     22  C   UNL     1      -0.022  10.776  21.969  0.00  0.00    +0.000 C 
ATOM     23  O   UNL     1       0.941  10.310  21.013  0.00  0.00    +0.000 OA
ENDBRANCH  18  19
ENDBRANCH  16  18
ENDBRANCH   1  15
TORSDOF 4
ENDMDL
MODEL 6
REMARK VINA RESULT:      -6.4      3.701      5.524
REMARK  Name = 
REMARK  4 active torsions:
REMARK  status: ('A' for Active; 'I' for Inactive)
REMARK    1  A    between atoms: C_2  and  C_10
REMARK    2  A    between atoms: N_3  and  C_4
REMARK    3  A    between atoms: C_4  and  C_5
REMARK    4  A    between atoms: C_16  and  N_17
REMARK                            x       y       z     vdW  Elec       q    Type
REMARK                         _______ _______ _______ _____ _____    ______ ____
ROOT
ATOM      1  C   UNL     1       5.107   4.840  15.874  0.00  0.00    +0.000 A 
ATOM      2  C   UNL     1       4.968   4.114  14.677  0.00  0.00    +0.000 A 
ATOM      3  C   UNL     1       6.026   4.058  13.784  0.00  0.00    +0.000 A 
ATOM      4 BR   UNL     1       5.900   3.040  12.204  0.00  0.00    +0.000 Br
ATOM      5  C   UNL     1       7.170   4.767  14.082  0.00  0.00    +0.000 A 
ATOM      6  N   UNL     1       7.330   5.475  15.222  0.00  0.00    +0.000 NA
ATOM      7  C   UNL     1       6.328   5.489  16.145  0.00  0.00    +0.000 A 
ENDROOT
BRANCH   7   8
ATOM      8  N   UNL     1       6.662   6.090  17.340  0.00  0.00    +0.000 N 
ATOM      9  C   UNL     1       6.860   7.536  17.395  0.00  0.00    +0.000 C 
ATOM     10  C   UNL     1       8.189   7.892  18.063  0.00  0.00    +0.000 C 
ATOM     11  C   UNL     1       8.390   7.135  19.372  0.00  0.00    +0.000 C 
ATOM     12  C   UNL     1       8.252   5.636  19.133  0.00  0.00    +0.000 C 
ATOM     13  C   UNL     1       6.878   5.311  18.550  0.00  0.00    +0.000 C 
ENDBRANCH   7   8
BRANCH   1  15
ATOM     14  O   UNL     1       3.593   6.016  17.289  0.00  0.00    +0.000 OA
ATOM     15  C   UNL     1       3.919   4.951  16.779  0.00  0.00    +0.000 C 
ATOM     16  N   UNL     1       3.215   3.785  17.010  0.00  0.00    +0.000 N 
ATOM     17  H   UNL     1       3.402   2.939  16.491  0.00  0.00    +0.000 HD
BRANCH  16  18
ATOM     18  C   UNL     1       2.063   3.730  17.898  0.00  0.00    +0.000 C 
BRANCH  18  19
ATOM     19  C   UNL     1       2.496   3.740  19.367  0.00  0.00    +0.000 C 
ATOM     20  C   UNL     1       3.202   2.471  19.822  0.00  0.00    +0.000 C 
ATOM     21  C   UNL     1       2.927   2.480  21.305  0.00  0.00    +0.000 C 
ATOM     22  C   UNL     1       1.524   3.045  21.375  0.00  0.00    +0.000 C 
ATOM     23  O   UNL     1       1.336   3.877  20.221  0.00  0.00    +0.000 OA
ENDBRANCH  18  19
ENDBRANCH  16  18
ENDBRANCH   1  15
TORSDOF 4
ENDMDL
MODEL 7
REMARK VINA RESULT:      -6.4      2.466      5.195
REMARK  Name = 
REMARK  4 active torsions:
REMARK  status: ('A' for Active; 'I' for Inactive)
REMARK    1  A    between atoms: C_2  and  C_10
REMARK    2  A    between atoms: N_3  and  C_4
REMARK    3  A    between atoms: C_4  and  C_5
REMARK    4  A    between atoms: C_16  and  N_17
REMARK                            x       y       z     vdW  Elec       q    Type
REMARK                         _______ _______ _______ _____ _____    ______ ____
ROOT
ATOM      1  C   UNL     1       2.969   5.836  19.113  0.00  0.00    +0.000 A 
ATOM      2  C   UNL     1       2.725   7.166  19.500  0.00  0.00    +0.000 A 
ATOM      3  C   UNL     1       1.748   7.435  20.447  0.00  0.00    +0.000 A 
ATOM      4 BR   UNL     1       1.440   9.196  21.039  0.00  0.00    +0.000 Br
ATOM      5  C   UNL     1       1.010   6.381  20.940  0.00  0.00    +0.000 A 
ATOM      6  N   UNL     1       1.220   5.094  20.584  0.00  0.00    +0.000 NA
ATOM      7  C   UNL     1       2.219   4.800  19.706  0.00  0.00    +0.000 A 
ENDROOT
BRANCH   7   8
ATOM      8  N   UNL     1       2.463   3.452  19.550  0.00  0.00    +0.000 N 
ATOM      9  C   UNL     1       3.297   2.748  20.521  0.00  0.00    +0.000 C 
ATOM     10  C   UNL     1       4.402   1.948  19.830  0.00  0.00    +0.000 C 
ATOM     11  C   UNL     1       3.863   1.111  18.674  0.00  0.00    +0.000 C 
ATOM     12  C   UNL     1       3.103   2.001  17.697  0.00  0.00    +0.000 C 
ATOM     13  C   UNL     1       1.952   2.713  18.406  0.00  0.00    +0.000 C 
ENDBRANCH   7   8
BRANCH   1  15
ATOM     14  O   UNL     1       3.764   5.918  16.868  0.00  0.00    +0.000 OA
ATOM     15  C   UNL     1       3.971   5.585  18.029  0.00  0.00    +0.000 C 
ATOM     16  N   UNL     1       5.138   4.953  18.410  0.00  0.00    +0.000 N 
ATOM     17  H   UNL     1       5.367   4.796  19.381  0.00  0.00    +0.000 HD
BRANCH  16  18
ATOM     18  C   UNL     1       6.186   4.606  17.460  0.00  0.00    +0.000 C 
BRANCH  18  19
ATOM     19  C   UNL     1       7.337   5.615  17.515  0.00  0.00    +0.000 C 
ATOM     20  C   UNL     1       7.658   6.126  18.912  0.00  0.00    +0.000 C 
ATOM     21  C   UNL     1       8.289   7.462  18.614  0.00  0.00    +0.000 C 
ATOM     22  C   UNL     1       7.489   7.945  17.423  0.00  0.00    +0.000 C 
ATOM     23  O   UNL     1       7.003   6.785  16.732  0.00  0.00    +0.000 OA
ENDBRANCH  18  19
ENDBRANCH  16  18
ENDBRANCH   1  15
TORSDOF 4
ENDMDL
MODEL 8
REMARK VINA RESULT:      -6.3      2.425      4.165
REMARK  Name = 
REMARK  4 active torsions:
REMARK  status: ('A' for Active; 'I' for Inactive)
REMARK    1  A    between atoms: C_2  and  C_10
REMARK    2  A    between atoms: N_3  and  C_4
REMARK    3  A    between atoms: C_4  and  C_5
REMARK    4  A    between atoms: C_16  and  N_17
REMARK                            x       y       z     vdW  Elec       q    Type
REMARK                         _______ _______ _______ _____ _____    ______ ____
ROOT
ATOM      1  C   UNL     1       3.569   4.971  19.017  0.00  0.00    +0.000 A 
ATOM      2  C   UNL     1       2.552   4.479  19.855  0.00  0.00    +0.000 A 
ATOM      3  C   UNL     1       2.740   3.284  20.531  0.00  0.00    +0.000 A 
ATOM      4 BR   UNL     1       1.428   2.630  21.713  0.00  0.00    +0.000 Br
ATOM      5  C   UNL     1       3.909   2.588  20.312  0.00  0.00    +0.000 A 
ATOM      6  N   UNL     1       4.901   3.033  19.511  0.00  0.00    +0.000 NA
ATOM      7  C   UNL     1       4.767   4.238  18.889  0.00  0.00    +0.000 A 
ENDROOT
BRANCH   7   8
ATOM      8  N   UNL     1       5.902   4.677  18.243  0.00  0.00    +0.000 N 
ATOM      9  C   UNL     1       6.784   5.641  18.898  0.00  0.00    +0.000 C 
ATOM     10  C   UNL     1       7.086   6.830  17.986  0.00  0.00    +0.000 C 
ATOM     11  C   UNL     1       7.499   6.384  16.586  0.00  0.00    +0.000 C 
ATOM     12  C   UNL     1       6.434   5.466  15.997  0.00  0.00    +0.000 C 
ATOM     13  C   UNL     1       6.226   4.245  16.892  0.00  0.00    +0.000 C 
ENDBRANCH   7   8
BRANCH   1  15
ATOM     14  O   UNL     1       3.732   6.376  17.100  0.00  0.00    +0.000 OA
ATOM     15  C   UNL     1       3.303   6.221  18.236  0.00  0.00    +0.000 C 
ATOM     16  N   UNL     1       2.553   7.191  18.872  0.00  0.00    +0.000 N 
ATOM     17  H   UNL     1       2.090   7.014  19.753  0.00  0.00    +0.000 HD
BRANCH  16  18
ATOM     18  C   UNL     1       2.248   8.474  18.255  0.00  0.00    +0.000 C 
BRANCH  18  19
ATOM     19  C   UNL     1       1.553   9.412  19.245  0.00  0.00    +0.000 C 
ATOM     20  C   UNL     1       1.053   8.730  20.510  0.00  0.00    +0.000 C 
ATOM     21  C   UNL     1      -0.066   9.648  20.933  0.00  0.00    +0.000 C 
ATOM     22  C   UNL     1      -0.657  10.078  19.607  0.00  0.00    +0.000 C 
ATOM     23  O   UNL     1       0.387  10.004  18.626  0.00  0.00    +0.000 OA
ENDBRANCH  18  19
ENDBRANCH  16  18
ENDBRANCH   1  15
TORSDOF 4
ENDMDL
MODEL 9
REMARK VINA RESULT:      -6.3      2.909      5.633
REMARK  Name = 
REMARK  4 active torsions:
REMARK  status: ('A' for Active; 'I' for Inactive)
REMARK    1  A    between atoms: C_2  and  C_10
REMARK    2  A    between atoms: N_3  and  C_4
REMARK    3  A    between atoms: C_4  and  C_5
REMARK    4  A    between atoms: C_16  and  N_17
REMARK                            x       y       z     vdW  Elec       q    Type
REMARK                         _______ _______ _______ _____ _____    ______ ____
ROOT
ATOM      1  C   UNL     1       2.796   6.791  18.935  0.00  0.00    +0.000 A 
ATOM      2  C   UNL     1       2.269   7.856  19.687  0.00  0.00    +0.000 A 
ATOM      3  C   UNL     1       1.460   7.587  20.780  0.00  0.00    +0.000 A 
ATOM      4 BR   UNL     1       0.791   8.986  21.850  0.00  0.00    +0.000 Br
ATOM      5  C   UNL     1       1.157   6.273  21.060  0.00  0.00    +0.000 A 
ATOM      6  N   UNL     1       1.646   5.230  20.353  0.00  0.00    +0.000 NA
ATOM      7  C   UNL     1       2.497   5.467  19.316  0.00  0.00    +0.000 A 
ENDROOT
BRANCH   7   8
ATOM      8  N   UNL     1       3.074   4.336  18.781  0.00  0.00    +0.000 N 
ATOM      9  C   UNL     1       2.459   3.685  17.626  0.00  0.00    +0.000 C 
ATOM     10  C   UNL     1       2.268   2.187  17.867  0.00  0.00    +0.000 C 
ATOM     11  C   UNL     1       3.531   1.531  18.415  0.00  0.00    +0.000 C 
ATOM     12  C   UNL     1       3.992   2.259  19.672  0.00  0.00    +0.000 C 
ATOM     13  C   UNL     1       4.260   3.732  19.369  0.00  0.00    +0.000 C 
ENDBRANCH   7   8
BRANCH   1  15
ATOM     14  O   UNL     1       3.139   7.788  16.798  0.00  0.00    +0.000 OA
ATOM     15  C   UNL     1       3.598   7.114  17.712  0.00  0.00    +0.000 C 
ATOM     16  N   UNL     1       4.881   6.605  17.670  0.00  0.00    +0.000 N 
ATOM     17  H   UNL     1       5.305   6.163  18.473  0.00  0.00    +0.000 HD
BRANCH  16  18
ATOM     18  C   UNL     1       5.764   6.801  16.529  0.00  0.00    +0.000 C 
BRANCH  18  19
ATOM     19  C   UNL     1       5.536   5.727  15.462  0.00  0.00    +0.000 C 
ATOM     20  C   UNL     1       5.495   4.305  16.003  0.00  0.00    +0.000 C 
ATOM     21  C   UNL     1       5.905   3.503  14.794  0.00  0.00    +0.000 C 
ATOM     22  C   UNL     1       6.932   4.401  14.138  0.00  0.00    +0.000 C 
ATOM     23  O   UNL     1       6.616   5.753  14.500  0.00  0.00    +0.000 OA
ENDBRANCH  18  19
ENDBRANCH  16  18
ENDBRANCH   1  15
TORSDOF 4
ENDMDL
