MODEL 1
REMARK VINA RESULT:      -7.5      0.000      0.000
REMARK  Name = 
REMARK  8 active torsions:
REMARK  status: ('A' for Active; 'I' for Inactive)
REMARK    1  A    between atoms: C_1  and  O_2
REMARK    2  A    between atoms: O_2  and  C_3
REMARK    3  A    between atoms: C_8  and  C_9
REMARK    4  A    between atoms: C_13  and  C_14
REMARK    5  A    between atoms: N_20  and  C_21
REMARK    6  A    between atoms: C_24  and  C_26
REMARK    7  A    between atoms: C_26  and  C_27
REMARK    8  A    between atoms: C_27  and  C_28
REMARK                            x       y       z     vdW  Elec       q    Type
REMARK                         _______ _______ _______ _____ _____    ______ ____
ROOT
ATOM      1  C   UNL     1       0.357  11.025  19.030  0.00  0.00    +0.000 C 
ATOM      2  C   UNL     1       1.725  11.500  18.566  0.00  0.00    +0.000 C 
ATOM      3  C   UNL     1       1.921  13.007  18.581  0.00  0.00    +0.000 C 
ATOM      4  C   UNL     1       0.715  13.825  18.166  0.00  0.00    +0.000 C 
ATOM      5  C   UNL     1       0.840  15.096  18.987  0.00  0.00    +0.000 C 
ATOM      6  O   UNL     1       2.039  15.022  19.767  0.00  0.00    +0.000 OA
ATOM      7  N   UNL     1       2.578  13.669  19.704  0.00  0.00    +0.000 NA
ATOM      8  C   UNL     1       2.475  13.125  21.045  0.00  0.00    +0.000 C 
ATOM      9  C   UNL     1      -0.679  13.174  18.203  0.00  0.00    +0.000 C 
ATOM     10  N   UNL     1      -0.717  11.708  18.297  0.00  0.00    +0.000 N 
ATOM     11  C   UNL     1      -1.866  10.941  18.040  0.00  0.00    +0.000 C 
ATOM     12  O   UNL     1      -1.858   9.707  18.098  0.00  0.00    +0.000 OA
ENDROOT
BRANCH   1  17
ATOM     13  C   UNL     1      -1.198  11.670  22.534  0.00  0.00    +0.000 A 
ATOM     14  C   UNL     1      -0.864  10.457  23.122  0.00  0.00    +0.000 A 
ATOM     15  C   UNL     1       0.072   9.598  22.544  0.00  0.00    +0.000 A 
ATOM     16  C   UNL     1       0.552   9.866  21.267  0.00  0.00    +0.000 A 
ATOM     17  C   UNL     1       0.084  10.955  20.538  0.00  0.00    +0.000 A 
ATOM     18  C   UNL     1      -0.708  11.896  21.221  0.00  0.00    +0.000 A 
BRANCH  13  24
ATOM     19  C   UNL     1      -1.665  13.971  23.585  0.00  0.00    +0.000 A 
ATOM     20  C   UNL     1      -2.586  14.814  24.220  0.00  0.00    +0.000 A 
ATOM     21  C   UNL     1      -3.856  14.373  24.573  0.00  0.00    +0.000 A 
ATOM     22  C   UNL     1      -4.242  13.081  24.280  0.00  0.00    +0.000 A 
ATOM     23  C   UNL     1      -3.356  12.229  23.626  0.00  0.00    +0.000 A 
ATOM     24  C   UNL     1      -2.058  12.647  23.241  0.00  0.00    +0.000 A 
BRANCH  19  26
ATOM     25  C   UNL     1      -0.265  15.890  23.391  0.00  0.00    +0.000 C 
ATOM     26  O   UNL     1      -0.416  14.466  23.268  0.00  0.00    +0.000 OA
ENDBRANCH  19  26
ENDBRANCH  13  24
ENDBRANCH   1  17
BRANCH  11  27
ATOM     27  C   UNL     1      -3.143  11.697  17.710  0.00  0.00    +0.000 C 
BRANCH  27  28
ATOM     28  C   UNL     1      -4.378  10.803  17.871  0.00  0.00    +0.000 C 
BRANCH  28  29
ATOM     29  C   UNL     1      -5.302  11.284  18.963  0.00  0.00    +0.000 A 
ATOM     30  C   UNL     1      -6.574  10.720  19.114  0.00  0.00    +0.000 A 
ATOM     31  C   UNL     1      -7.434  11.167  20.119  0.00  0.00    +0.000 A 
ATOM     32  C   UNL     1      -7.028  12.184  20.982  0.00  0.00    +0.000 A 
ATOM     33  C   UNL     1      -5.763  12.751  20.843  0.00  0.00    +0.000 A 
ATOM     34  C   UNL     1      -4.905  12.306  19.836  0.00  0.00    +0.000 A 
ENDBRANCH  28  29
ENDBRANCH  27  28
ENDBRANCH  11  27
TORSDOF 6
ENDMDL
MODEL 2
REMARK VINA RESULT:      -7.5      0.599      1.118
REMARK  Name = 
REMARK  8 active torsions:
REMARK  status: ('A' for Active; 'I' for Inactive)
REMARK    1  A    between atoms: C_1  and  O_2
REMARK    2  A    between atoms: O_2  and  C_3
REMARK    3  A    between atoms: C_8  and  C_9
REMARK    4  A    between atoms: C_13  and  C_14
REMARK    5  A    between atoms: N_20  and  C_21
REMARK    6  A    between atoms: C_24  and  C_26
REMARK    7  A    between atoms: C_26  and  C_27
REMARK    8  A    between atoms: C_27  and  C_28
REMARK                            x       y       z     vdW  Elec       q    Type
REMARK                         _______ _______ _______ _____ _____    ______ ____
ROOT
ATOM      1  C   UNL     1       0.511  11.030  19.006  0.00  0.00    +0.000 C 
ATOM      2  C   UNL     1       1.868  11.575  18.587  0.00  0.00    +0.000 C 
ATOM      3  C   UNL     1       2.001  13.088  18.651  0.00  0.00    +0.000 C 
ATOM      4  C   UNL     1       0.771  13.868  18.235  0.00  0.00    +0.000 C 
ATOM      5  C   UNL     1       0.827  15.117  19.096  0.00  0.00    +0.000 C 
ATOM      6  O   UNL     1       2.012  15.068  19.899  0.00  0.00    +0.000 OA
ATOM      7  N   UNL     1       2.607  13.741  19.807  0.00  0.00    +0.000 NA
ATOM      8  C   UNL     1       2.499  13.152  21.129  0.00  0.00    +0.000 C 
ATOM      9  C   UNL     1      -0.595  13.161  18.221  0.00  0.00    +0.000 C 
ATOM     10  N   UNL     1      -0.575  11.692  18.270  0.00  0.00    +0.000 N 
ATOM     11  C   UNL     1      -1.686  10.887  17.965  0.00  0.00    +0.000 C 
ATOM     12  O   UNL     1      -1.628   9.654  17.986  0.00  0.00    +0.000 OA
ENDROOT
BRANCH   1  17
ATOM     13  C   UNL     1      -1.085  11.569  22.510  0.00  0.00    +0.000 A 
ATOM     14  C   UNL     1      -0.796  10.322  23.049  0.00  0.00    +0.000 A 
ATOM     15  C   UNL     1       0.124   9.461  22.448  0.00  0.00    +0.000 A 
ATOM     16  C   UNL     1       0.634   9.770  21.193  0.00  0.00    +0.000 A 
ATOM     17  C   UNL     1       0.210  10.904  20.505  0.00  0.00    +0.000 A 
ATOM     18  C   UNL     1      -0.566  11.837  21.216  0.00  0.00    +0.000 A 
BRANCH  13  24
ATOM     19  C   UNL     1      -1.545  13.876  23.550  0.00  0.00    +0.000 A 
ATOM     20  C   UNL     1      -2.451  14.711  24.218  0.00  0.00    +0.000 A 
ATOM     21  C   UNL     1      -3.692  14.250  24.641  0.00  0.00    +0.000 A 
ATOM     22  C   UNL     1      -4.066  12.947  24.387  0.00  0.00    +0.000 A 
ATOM     23  C   UNL     1      -3.196  12.102  23.701  0.00  0.00    +0.000 A 
ATOM     24  C   UNL     1      -1.929  12.539  23.245  0.00  0.00    +0.000 A 
BRANCH  19  26
ATOM     25  C   UNL     1      -0.303  15.804  22.904  0.00  0.00    +0.000 C 
ATOM     26  O   UNL     1      -0.325  14.391  23.163  0.00  0.00    +0.000 OA
ENDBRANCH  19  26
ENDBRANCH  13  24
ENDBRANCH   1  17
BRANCH  11  27
ATOM     27  C   UNL     1      -2.986  11.601  17.630  0.00  0.00    +0.000 C 
BRANCH  27  28
ATOM     28  C   UNL     1      -4.143  11.086  18.494  0.00  0.00    +0.000 C 
BRANCH  28  29
ATOM     29  C   UNL     1      -4.720  12.158  19.386  0.00  0.00    +0.000 A 
ATOM     30  C   UNL     1      -3.875  13.038  20.073  0.00  0.00    +0.000 A 
ATOM     31  C   UNL     1      -4.405  14.026  20.905  0.00  0.00    +0.000 A 
ATOM     32  C   UNL     1      -5.786  14.142  21.057  0.00  0.00    +0.000 A 
ATOM     33  C   UNL     1      -6.636  13.275  20.376  0.00  0.00    +0.000 A 
ATOM     34  C   UNL     1      -6.106  12.284  19.547  0.00  0.00    +0.000 A 
ENDBRANCH  28  29
ENDBRANCH  27  28
ENDBRANCH  11  27
TORSDOF 6
ENDMDL
MODEL 3
REMARK VINA RESULT:      -7.3      2.934      5.833
REMARK  Name = 
REMARK  8 active torsions:
REMARK  status: ('A' for Active; 'I' for Inactive)
REMARK    1  A    between atoms: C_1  and  O_2
REMARK    2  A    between atoms: O_2  and  C_3
REMARK    3  A    between atoms: C_8  and  C_9
REMARK    4  A    between atoms: C_13  and  C_14
REMARK    5  A    between atoms: N_20  and  C_21
REMARK    6  A    between atoms: C_24  and  C_26
REMARK    7  A    between atoms: C_26  and  C_27
REMARK    8  A    between atoms: C_27  and  C_28
REMARK                            x       y       z     vdW  Elec       q    Type
REMARK                         _______ _______ _______ _____ _____    ______ ____
ROOT
ATOM      1  C   UNL     1      -0.055  11.603  18.682  0.00  0.00    +0.000 C 
ATOM      2  C   UNL     1      -1.077  12.443  17.931  0.00  0.00    +0.000 C 
ATOM      3  C   UNL     1      -2.380  11.732  17.607  0.00  0.00    +0.000 C 
ATOM      4  C   UNL     1      -2.247  10.274  17.218  0.00  0.00    +0.000 C 
ATOM      5  C   UNL     1      -3.529   9.644  17.732  0.00  0.00    +0.000 C 
ATOM      6  O   UNL     1      -4.338  10.667  18.323  0.00  0.00    +0.000 OA
ATOM      7  N   UNL     1      -3.555  11.889  18.459  0.00  0.00    +0.000 NA
ATOM      8  C   UNL     1      -3.408  12.123  19.884  0.00  0.00    +0.000 C 
ATOM      9  C   UNL     1      -0.964   9.512  17.594  0.00  0.00    +0.000 C 
ATOM     10  N   UNL     1       0.192  10.329  17.992  0.00  0.00    +0.000 N 
ATOM     11  C   UNL     1       1.504   9.834  18.072  0.00  0.00    +0.000 C 
ATOM     12  O   UNL     1       2.459  10.555  18.380  0.00  0.00    +0.000 OA
ENDROOT
BRANCH   1  17
ATOM     13  C   UNL     1      -1.128  12.201  22.370  0.00  0.00    +0.000 A 
ATOM     14  C   UNL     1      -1.094  10.880  22.799  0.00  0.00    +0.000 A 
ATOM     15  C   UNL     1      -0.468   9.883  22.048  0.00  0.00    +0.000 A 
ATOM     16  C   UNL     1      -0.024  10.170  20.763  0.00  0.00    +0.000 A 
ATOM     17  C   UNL     1      -0.230  11.424  20.195  0.00  0.00    +0.000 A 
ATOM     18  C   UNL     1      -0.688  12.449  21.043  0.00  0.00    +0.000 A 
BRANCH  13  24
ATOM     19  C   UNL     1      -2.902  13.244  23.913  0.00  0.00    +0.000 A 
ATOM     20  C   UNL     1      -3.257  14.306  24.754  0.00  0.00    +0.000 A 
ATOM     21  C   UNL     1      -2.436  15.416  24.916  0.00  0.00    +0.000 A 
ATOM     22  C   UNL     1      -1.227  15.479  24.253  0.00  0.00    +0.000 A 
ATOM     23  C   UNL     1      -0.836  14.425  23.431  0.00  0.00    +0.000 A 
ATOM     24  C   UNL     1      -1.641  13.274  23.251  0.00  0.00    +0.000 A 
BRANCH  19  26
ATOM     25  C   UNL     1      -4.930  12.218  24.630  0.00  0.00    +0.000 C 
ATOM     26  O   UNL     1      -3.765  12.174  23.789  0.00  0.00    +0.000 OA
ENDBRANCH  19  26
ENDBRANCH  13  24
ENDBRANCH   1  17
BRANCH  11  27
ATOM     27  C   UNL     1       1.704   8.354  17.787  0.00  0.00    +0.000 C 
BRANCH  27  28
ATOM     28  C   UNL     1       2.556   7.688  18.874  0.00  0.00    +0.000 C 
BRANCH  28  29
ATOM     29  C   UNL     1       2.158   6.253  19.122  0.00  0.00    +0.000 A 
ATOM     30  C   UNL     1       2.215   5.314  18.085  0.00  0.00    +0.000 A 
ATOM     31  C   UNL     1       1.841   3.987  18.308  0.00  0.00    +0.000 A 
ATOM     32  C   UNL     1       1.407   3.589  19.572  0.00  0.00    +0.000 A 
ATOM     33  C   UNL     1       1.349   4.514  20.612  0.00  0.00    +0.000 A 
ATOM     34  C   UNL     1       1.720   5.842  20.387  0.00  0.00    +0.000 A 
ENDBRANCH  28  29
ENDBRANCH  27  28
ENDBRANCH  11  27
TORSDOF 6
ENDMDL
MODEL 4
REMARK VINA RESULT:      -7.2      1.900      3.330
REMARK  Name = 
REMARK  8 active torsions:
REMARK  status: ('A' for Active; 'I' for Inactive)
REMARK    1  A    between atoms: C_1  and  O_2
REMARK    2  A    between atoms: O_2  and  C_3
REMARK    3  A    between atoms: C_8  and  C_9
REMARK    4  A    between atoms: C_13  and  C_14
REMARK    5  A    between atoms: N_20  and  C_21
REMARK    6  A    between atoms: C_24  and  C_26
REMARK    7  A    between atoms: C_26  and  C_27
REMARK    8  A    between atoms: C_27  and  C_28
REMARK                            x       y       z     vdW  Elec       q    Type
REMARK                         _______ _______ _______ _____ _____    ______ ____
ROOT
ATOM      1  C   UNL     1      -0.273  11.865  20.339  0.00  0.00    +0.000 C 
ATOM      2  C   UNL     1       1.120  12.440  20.551  0.00  0.00    +0.000 C 
ATOM      3  C   UNL     1       1.305  13.869  20.069  0.00  0.00    +0.000 C 
ATOM      4  C   UNL     1       0.588  14.221  18.782  0.00  0.00    +0.000 C 
ATOM      5  C   UNL     1       0.239  15.689  18.952  0.00  0.00    +0.000 C 
ATOM      6  O   UNL     1       0.754  16.141  20.210  0.00  0.00    +0.000 OA
ATOM      7  N   UNL     1       1.197  14.994  20.994  0.00  0.00    +0.000 NA
ATOM      8  C   UNL     1       0.317  14.922  22.146  0.00  0.00    +0.000 C 
ATOM      9  C   UNL     1      -0.580  13.337  18.310  0.00  0.00    +0.000 C 
ATOM     10  N   UNL     1      -0.699  12.015  18.940  0.00  0.00    +0.000 N 
ATOM     11  C   UNL     1      -1.499  10.979  18.430  0.00  0.00    +0.000 C 
ATOM     12  O   UNL     1      -1.555   9.868  18.968  0.00  0.00    +0.000 OA
ENDROOT
BRANCH   1  17
ATOM     13  C   UNL     1      -3.697  12.979  21.804  0.00  0.00    +0.000 A 
ATOM     14  C   UNL     1      -3.580  12.377  23.050  0.00  0.00    +0.000 A 
ATOM     15  C   UNL     1      -2.354  11.901  23.521  0.00  0.00    +0.000 A 
ATOM     16  C   UNL     1      -1.261  11.860  22.664  0.00  0.00    +0.000 A 
ATOM     17  C   UNL     1      -1.377  12.248  21.332  0.00  0.00    +0.000 A 
ATOM     18  C   UNL     1      -2.566  12.895  20.950  0.00  0.00    +0.000 A 
BRANCH  13  24
ATOM     19  C   UNL     1      -6.252  13.264  21.860  0.00  0.00    +0.000 A 
ATOM     20  C   UNL     1      -7.369  13.987  21.421  0.00  0.00    +0.000 A 
ATOM     21  C   UNL     1      -7.255  15.018  20.495  0.00  0.00    +0.000 A 
ATOM     22  C   UNL     1      -6.014  15.363  20.000  0.00  0.00    +0.000 A 
ATOM     23  C   UNL     1      -4.883  14.679  20.439  0.00  0.00    +0.000 A 
ATOM     24  C   UNL     1      -4.959  13.632  21.390  0.00  0.00    +0.000 A 
BRANCH  19  26
ATOM     25  C   UNL     1      -7.799  11.954  23.112  0.00  0.00    +0.000 C 
ATOM     26  O   UNL     1      -6.433  12.247  22.775  0.00  0.00    +0.000 OA
ENDBRANCH  19  26
ENDBRANCH  13  24
ENDBRANCH   1  17
BRANCH  11  27
ATOM     27  C   UNL     1      -2.324  11.287  17.191  0.00  0.00    +0.000 C 
BRANCH  27  28
ATOM     28  C   UNL     1      -3.539  10.358  17.085  0.00  0.00    +0.000 C 
BRANCH  28  29
ATOM     29  C   UNL     1      -4.827  11.042  17.477  0.00  0.00    +0.000 A 
ATOM     30  C   UNL     1      -5.634  10.506  18.487  0.00  0.00    +0.000 A 
ATOM     31  C   UNL     1      -6.829  11.132  18.847  0.00  0.00    +0.000 A 
ATOM     32  C   UNL     1      -7.227  12.301  18.198  0.00  0.00    +0.000 A 
ATOM     33  C   UNL     1      -6.429  12.845  17.194  0.00  0.00    +0.000 A 
ATOM     34  C   UNL     1      -5.236  12.216  16.831  0.00  0.00    +0.000 A 
ENDBRANCH  28  29
ENDBRANCH  27  28
ENDBRANCH  11  27
TORSDOF 6
ENDMDL
MODEL 5
REMARK VINA RESULT:      -7.2      2.275      6.039
REMARK  Name = 
REMARK  8 active torsions:
REMARK  status: ('A' for Active; 'I' for Inactive)
REMARK    1  A    between atoms: C_1  and  O_2
REMARK    2  A    between atoms: O_2  and  C_3
REMARK    3  A    between atoms: C_8  and  C_9
REMARK    4  A    between atoms: C_13  and  C_14
REMARK    5  A    between atoms: N_20  and  C_21
REMARK    6  A    between atoms: C_24  and  C_26
REMARK    7  A    between atoms: C_26  and  C_27
REMARK    8  A    between atoms: C_27  and  C_28
REMARK                            x       y       z     vdW  Elec       q    Type
REMARK                         _______ _______ _______ _____ _____    ______ ____
ROOT
ATOM      1  C   UNL     1      -0.628  13.058  22.489  0.00  0.00    +0.000 C 
ATOM      2  C   UNL     1       0.243  14.287  22.282  0.00  0.00    +0.000 C 
ATOM      3  C   UNL     1       0.445  14.696  20.832  0.00  0.00    +0.000 C 
ATOM      4  C   UNL     1       0.596  13.553  19.849  0.00  0.00    +0.000 C 
ATOM      5  C   UNL     1      -0.016  14.094  18.570  0.00  0.00    +0.000 C 
ATOM      6  O   UNL     1      -0.439  15.444  18.797  0.00  0.00    +0.000 OA
ATOM      7  N   UNL     1      -0.375  15.739  20.224  0.00  0.00    +0.000 NA
ATOM      8  C   UNL     1      -1.743  15.951  20.659  0.00  0.00    +0.000 C 
ATOM      9  C   UNL     1       0.107  12.150  20.249  0.00  0.00    +0.000 C 
ATOM     10  N   UNL     1      -0.150  11.928  21.679  0.00  0.00    +0.000 N 
ATOM     11  C   UNL     1      -0.304  10.656  22.254  0.00  0.00    +0.000 C 
ATOM     12  O   UNL     1      -0.490  10.501  23.466  0.00  0.00    +0.000 OA
ENDROOT
BRANCH   1  17
ATOM     13  C   UNL     1      -4.335  12.693  21.375  0.00  0.00    +0.000 A 
ATOM     14  C   UNL     1      -4.934  13.006  22.588  0.00  0.00    +0.000 A 
ATOM     15  C   UNL     1      -4.215  13.601  23.627  0.00  0.00    +0.000 A 
ATOM     16  C   UNL     1      -2.835  13.724  23.523  0.00  0.00    +0.000 A 
ATOM     17  C   UNL     1      -2.151  13.226  22.418  0.00  0.00    +0.000 A 
ATOM     18  C   UNL     1      -2.921  12.809  21.317  0.00  0.00    +0.000 A 
BRANCH  13  24
ATOM     19  C   UNL     1      -4.612  11.890  18.948  0.00  0.00    +0.000 A 
ATOM     20  C   UNL     1      -5.477  11.418  17.952  0.00  0.00    +0.000 A 
ATOM     21  C   UNL     1      -6.848  11.320  18.162  0.00  0.00    +0.000 A 
ATOM     22  C   UNL     1      -7.384  11.673  19.383  0.00  0.00    +0.000 A 
ATOM     23  C   UNL     1      -6.544  12.120  20.400  0.00  0.00    +0.000 A 
ATOM     24  C   UNL     1      -5.142  12.223  20.227  0.00  0.00    +0.000 A 
BRANCH  19  26
ATOM     25  C   UNL     1      -2.679  10.801  18.078  0.00  0.00    +0.000 C 
ATOM     26  O   UNL     1      -3.262  11.972  18.674  0.00  0.00    +0.000 OA
ENDBRANCH  19  26
ENDBRANCH  13  24
ENDBRANCH   1  17
BRANCH  11  27
ATOM     27  C   UNL     1      -0.260   9.462  21.314  0.00  0.00    +0.000 C 
BRANCH  27  28
ATOM     28  C   UNL     1       1.033   8.658  21.495  0.00  0.00    +0.000 C 
BRANCH  28  29
ATOM     29  C   UNL     1       1.620   8.203  20.181  0.00  0.00    +0.000 A 
ATOM     30  C   UNL     1       2.213   6.939  20.070  0.00  0.00    +0.000 A 
ATOM     31  C   UNL     1       2.763   6.518  18.858  0.00  0.00    +0.000 A 
ATOM     32  C   UNL     1       2.725   7.358  17.745  0.00  0.00    +0.000 A 
ATOM     33  C   UNL     1       2.135   8.616  17.844  0.00  0.00    +0.000 A 
ATOM     34  C   UNL     1       1.588   9.039  19.057  0.00  0.00    +0.000 A 
ENDBRANCH  28  29
ENDBRANCH  27  28
ENDBRANCH  11  27
TORSDOF 6
ENDMDL
MODEL 6
REMARK VINA RESULT:      -7.1      3.370      7.047
REMARK  Name = 
REMARK  8 active torsions:
REMARK  status: ('A' for Active; 'I' for Inactive)
REMARK    1  A    between atoms: C_1  and  O_2
REMARK    2  A    between atoms: O_2  and  C_3
REMARK    3  A    between atoms: C_8  and  C_9
REMARK    4  A    between atoms: C_13  and  C_14
REMARK    5  A    between atoms: N_20  and  C_21
REMARK    6  A    between atoms: C_24  and  C_26
REMARK    7  A    between atoms: C_26  and  C_27
REMARK    8  A    between atoms: C_27  and  C_28
REMARK                            x       y       z     vdW  Elec       q    Type
REMARK                         _______ _______ _______ _____ _____    ______ ____
ROOT
ATOM      1  C   UNL     1       0.091  11.000  19.094  0.00  0.00    +0.000 C 
ATOM      2  C   UNL     1      -1.330  11.046  19.638  0.00  0.00    +0.000 C 
ATOM      3  C   UNL     1      -1.461  10.732  21.119  0.00  0.00    +0.000 C 
ATOM      4  C   UNL     1      -0.544   9.644  21.638  0.00  0.00    +0.000 C 
ATOM      5  C   UNL     1      -0.261  10.063  23.069  0.00  0.00    +0.000 C 
ATOM      6  O   UNL     1      -0.991  11.262  23.350  0.00  0.00    +0.000 OA
ATOM      7  N   UNL     1      -1.536  11.801  22.110  0.00  0.00    +0.000 NA
ATOM      8  C   UNL     1      -0.862  13.066  21.883  0.00  0.00    +0.000 C 
ATOM      9  C   UNL     1       0.705   9.265  20.823  0.00  0.00    +0.000 C 
ATOM     10  N   UNL     1       0.744   9.727  19.429  0.00  0.00    +0.000 N 
ATOM     11  C   UNL     1       1.641   9.229  18.468  0.00  0.00    +0.000 C 
ATOM     12  O   UNL     1       1.628   9.618  17.296  0.00  0.00    +0.000 OA
ENDROOT
BRANCH   1  17
ATOM     13  C   UNL     1       1.501  14.622  19.084  0.00  0.00    +0.000 A 
ATOM     14  C   UNL     1       2.274  14.533  20.234  0.00  0.00    +0.000 A 
ATOM     15  C   UNL     1       2.579  13.302  20.817  0.00  0.00    +0.000 A 
ATOM     16  C   UNL     1       1.957  12.150  20.350  0.00  0.00    +0.000 A 
ATOM     17  C   UNL     1       1.002  12.209  19.339  0.00  0.00    +0.000 A 
ATOM     18  C   UNL     1       0.863  13.429  18.653  0.00  0.00    +0.000 A 
BRANCH  13  24
ATOM     19  C   UNL     1       2.361  16.594  17.673  0.00  0.00    +0.000 A 
ATOM     20  C   UNL     1       2.062  17.794  17.015  0.00  0.00    +0.000 A 
ATOM     21  C   UNL     1       0.797  18.367  17.080  0.00  0.00    +0.000 A 
ATOM     22  C   UNL     1      -0.206  17.741  17.792  0.00  0.00    +0.000 A 
ATOM     23  C   UNL     1       0.057  16.534  18.435  0.00  0.00    +0.000 A 
ATOM     24  C   UNL     1       1.329  15.914  18.381  0.00  0.00    +0.000 A 
BRANCH  19  26
ATOM     25  C   UNL     1       4.605  16.654  18.472  0.00  0.00    +0.000 C 
ATOM     26  O   UNL     1       3.639  16.080  17.577  0.00  0.00    +0.000 OA
ENDBRANCH  19  26
ENDBRANCH  13  24
ENDBRANCH   1  17
BRANCH  11  27
ATOM     27  C   UNL     1       2.657   8.201  18.938  0.00  0.00    +0.000 C 
BRANCH  27  28
ATOM     28  C   UNL     1       2.709   6.996  17.992  0.00  0.00    +0.000 C 
BRANCH  28  29
ATOM     29  C   UNL     1       2.169   5.738  18.628  0.00  0.00    +0.000 A 
ATOM     30  C   UNL     1       2.008   5.659  20.017  0.00  0.00    +0.000 A 
ATOM     31  C   UNL     1       1.515   4.495  20.609  0.00  0.00    +0.000 A 
ATOM     32  C   UNL     1       1.179   3.398  19.816  0.00  0.00    +0.000 A 
ATOM     33  C   UNL     1       1.332   3.466  18.433  0.00  0.00    +0.000 A 
ATOM     34  C   UNL     1       1.829   4.629  17.841  0.00  0.00    +0.000 A 
ENDBRANCH  28  29
ENDBRANCH  27  28
ENDBRANCH  11  27
TORSDOF 6
ENDMDL
MODEL 7
REMARK VINA RESULT:      -7.1      2.855      5.614
REMARK  Name = 
REMARK  8 active torsions:
REMARK  status: ('A' for Active; 'I' for Inactive)
REMARK    1  A    between atoms: C_1  and  O_2
REMARK    2  A    between atoms: O_2  and  C_3
REMARK    3  A    between atoms: C_8  and  C_9
REMARK    4  A    between atoms: C_13  and  C_14
REMARK    5  A    between atoms: N_20  and  C_21
REMARK    6  A    between atoms: C_24  and  C_26
REMARK    7  A    between atoms: C_26  and  C_27
REMARK    8  A    between atoms: C_27  and  C_28
REMARK                            x       y       z     vdW  Elec       q    Type
REMARK                         _______ _______ _______ _____ _____    ______ ____
ROOT
ATOM      1  C   UNL     1       0.052  11.581  18.675  0.00  0.00    +0.000 C 
ATOM      2  C   UNL     1      -0.955  12.423  17.906  0.00  0.00    +0.000 C 
ATOM      3  C   UNL     1      -2.254  11.714  17.560  0.00  0.00    +0.000 C 
ATOM      4  C   UNL     1      -2.118  10.255  17.175  0.00  0.00    +0.000 C 
ATOM      5  C   UNL     1      -3.410   9.629  17.668  0.00  0.00    +0.000 C 
ATOM      6  O   UNL     1      -4.227  10.655  18.243  0.00  0.00    +0.000 OA
ATOM      7  N   UNL     1      -3.443  11.876  18.391  0.00  0.00    +0.000 NA
ATOM      8  C   UNL     1      -3.320  12.112  19.817  0.00  0.00    +0.000 C 
ATOM      9  C   UNL     1      -0.844   9.491  17.576  0.00  0.00    +0.000 C 
ATOM     10  N   UNL     1       0.307  10.305  17.992  0.00  0.00    +0.000 N 
ATOM     11  C   UNL     1       1.617   9.807  18.096  0.00  0.00    +0.000 C 
ATOM     12  O   UNL     1       2.568  10.525  18.420  0.00  0.00    +0.000 OA
ENDROOT
BRANCH   1  17
ATOM     13  C   UNL     1      -1.112  12.170  22.337  0.00  0.00    +0.000 A 
ATOM     14  C   UNL     1      -1.054  10.853  22.774  0.00  0.00    +0.000 A 
ATOM     15  C   UNL     1      -0.388   9.868  22.042  0.00  0.00    +0.000 A 
ATOM     16  C   UNL     1       0.075  10.160  20.764  0.00  0.00    +0.000 A 
ATOM     17  C   UNL     1      -0.150  11.406  20.185  0.00  0.00    +0.000 A 
ATOM     18  C   UNL     1      -0.651  12.423  21.018  0.00  0.00    +0.000 A 
BRANCH  13  24
ATOM     19  C   UNL     1      -1.008  14.459  23.506  0.00  0.00    +0.000 A 
ATOM     20  C   UNL     1      -1.659  15.406  24.308  0.00  0.00    +0.000 A 
ATOM     21  C   UNL     1      -2.910  15.159  24.860  0.00  0.00    +0.000 A 
ATOM     22  C   UNL     1      -3.550  13.963  24.607  0.00  0.00    +0.000 A 
ATOM     23  C   UNL     1      -2.938  13.014  23.792  0.00  0.00    +0.000 A 
ATOM     24  C   UNL     1      -1.669  13.235  23.202  0.00  0.00    +0.000 A 
BRANCH  19  26
ATOM     25  C   UNL     1       0.531  16.163  22.868  0.00  0.00    +0.000 C 
ATOM     26  O   UNL     1       0.238  14.761  22.994  0.00  0.00    +0.000 OA
ENDBRANCH  19  26
ENDBRANCH  13  24
ENDBRANCH   1  17
BRANCH  11  27
ATOM     27  C   UNL     1       1.817   8.326  17.818  0.00  0.00    +0.000 C 
BRANCH  27  28
ATOM     28  C   UNL     1       2.544   7.634  18.977  0.00  0.00    +0.000 C 
BRANCH  28  29
ATOM     29  C   UNL     1       2.107   6.201  19.160  0.00  0.00    +0.000 A 
ATOM     30  C   UNL     1       2.040   5.336  18.061  0.00  0.00    +0.000 A 
ATOM     31  C   UNL     1       1.630   4.011  18.226  0.00  0.00    +0.000 A 
ATOM     32  C   UNL     1       1.283   3.541  19.492  0.00  0.00    +0.000 A 
ATOM     33  C   UNL     1       1.350   4.392  20.593  0.00  0.00    +0.000 A 
ATOM     34  C   UNL     1       1.756   5.717  20.427  0.00  0.00    +0.000 A 
ENDBRANCH  28  29
ENDBRANCH  27  28
ENDBRANCH  11  27
TORSDOF 6
ENDMDL
MODEL 8
REMARK VINA RESULT:      -7.0      1.740      2.899
REMARK  Name = 
REMARK  8 active torsions:
REMARK  status: ('A' for Active; 'I' for Inactive)
REMARK    1  A    between atoms: C_1  and  O_2
REMARK    2  A    between atoms: O_2  and  C_3
REMARK    3  A    between atoms: C_8  and  C_9
REMARK    4  A    between atoms: C_13  and  C_14
REMARK    5  A    between atoms: N_20  and  C_21
REMARK    6  A    between atoms: C_24  and  C_26
REMARK    7  A    between atoms: C_26  and  C_27
REMARK    8  A    between atoms: C_27  and  C_28
REMARK                            x       y       z     vdW  Elec       q    Type
REMARK                         _______ _______ _______ _____ _____    ______ ____
ROOT
ATOM      1  C   UNL     1      -0.084  12.051  20.429  0.00  0.00    +0.000 C 
ATOM      2  C   UNL     1       1.211  12.840  20.548  0.00  0.00    +0.000 C 
ATOM      3  C   UNL     1       1.174  14.232  19.940  0.00  0.00    +0.000 C 
ATOM      4  C   UNL     1       0.390  14.359  18.650  0.00  0.00    +0.000 C 
ATOM      5  C   UNL     1      -0.168  15.769  18.703  0.00  0.00    +0.000 C 
ATOM      6  O   UNL     1       0.297  16.402  19.901  0.00  0.00    +0.000 OA
ATOM      7  N   UNL     1       0.918  15.407  20.767  0.00  0.00    +0.000 NA
ATOM      8  C   UNL     1       0.079  15.311  21.947  0.00  0.00    +0.000 C 
ATOM      9  C   UNL     1      -0.642  13.275  18.291  0.00  0.00    +0.000 C 
ATOM     10  N   UNL     1      -0.553  12.012  19.037  0.00  0.00    +0.000 N 
ATOM     11  C   UNL     1      -1.200  10.828  18.643  0.00  0.00    +0.000 C 
ATOM     12  O   UNL     1      -1.081   9.774  19.276  0.00  0.00    +0.000 OA
ENDROOT
BRANCH   1  17
ATOM     13  C   UNL     1      -3.580  12.933  21.884  0.00  0.00    +0.000 A 
ATOM     14  C   UNL     1      -3.429  12.335  23.129  0.00  0.00    +0.000 A 
ATOM     15  C   UNL     1      -2.177  11.937  23.602  0.00  0.00    +0.000 A 
ATOM     16  C   UNL     1      -1.079  11.972  22.750  0.00  0.00    +0.000 A 
ATOM     17  C   UNL     1      -1.215  12.357  21.419  0.00  0.00    +0.000 A 
ATOM     18  C   UNL     1      -2.442  12.927  21.035  0.00  0.00    +0.000 A 
BRANCH  13  24
ATOM     19  C   UNL     1      -5.047  14.788  20.874  0.00  0.00    +0.000 A 
ATOM     20  C   UNL     1      -6.329  15.200  20.486  0.00  0.00    +0.000 A 
ATOM     21  C   UNL     1      -7.450  14.412  20.718  0.00  0.00    +0.000 A 
ATOM     22  C   UNL     1      -7.312  13.181  21.326  0.00  0.00    +0.000 A 
ATOM     23  C   UNL     1      -6.046  12.735  21.698  0.00  0.00    +0.000 A 
ATOM     24  C   UNL     1      -4.880  13.505  21.467  0.00  0.00    +0.000 A 
BRANCH  19  26
ATOM     25  C   UNL     1      -3.749  16.649  21.601  0.00  0.00    +0.000 C 
ATOM     26  O   UNL     1      -3.975  15.620  20.623  0.00  0.00    +0.000 OA
ENDBRANCH  19  26
ENDBRANCH  13  24
ENDBRANCH   1  17
BRANCH  11  27
ATOM     27  C   UNL     1      -2.084  10.901  17.408  0.00  0.00    +0.000 C 
BRANCH  27  28
ATOM     28  C   UNL     1      -3.296   9.970  17.535  0.00  0.00    +0.000 C 
BRANCH  28  29
ATOM     29  C   UNL     1      -4.596  10.728  17.657  0.00  0.00    +0.000 A 
ATOM     30  C   UNL     1      -5.635  10.227  18.450  0.00  0.00    +0.000 A 
ATOM     31  C   UNL     1      -6.842  10.921  18.559  0.00  0.00    +0.000 A 
ATOM     32  C   UNL     1      -7.019  12.123  17.875  0.00  0.00    +0.000 A 
ATOM     33  C   UNL     1      -5.991  12.632  17.085  0.00  0.00    +0.000 A 
ATOM     34  C   UNL     1      -4.785  11.936  16.973  0.00  0.00    +0.000 A 
ENDBRANCH  28  29
ENDBRANCH  27  28
ENDBRANCH  11  27
TORSDOF 6
ENDMDL
MODEL 9
REMARK VINA RESULT:      -7.0      3.311      6.340
REMARK  Name = 
REMARK  8 active torsions:
REMARK  status: ('A' for Active; 'I' for Inactive)
REMARK    1  A    between atoms: C_1  and  O_2
REMARK    2  A    between atoms: O_2  and  C_3
REMARK    3  A    between atoms: C_8  and  C_9
REMARK    4  A    between atoms: C_13  and  C_14
REMARK    5  A    between atoms: N_20  and  C_21
REMARK    6  A    between atoms: C_24  and  C_26
REMARK    7  A    between atoms: C_26  and  C_27
REMARK    8  A    between atoms: C_27  and  C_28
REMARK                            x       y       z     vdW  Elec       q    Type
REMARK                         _______ _______ _______ _____ _____    ______ ____
ROOT
ATOM      1  C   UNL     1      -0.146  11.634  18.714  0.00  0.00    +0.000 C 
ATOM      2  C   UNL     1      -1.166  12.481  17.967  0.00  0.00    +0.000 C 
ATOM      3  C   UNL     1      -2.468  11.772  17.632  0.00  0.00    +0.000 C 
ATOM      4  C   UNL     1      -2.333  10.318  17.230  0.00  0.00    +0.000 C 
ATOM      5  C   UNL     1      -3.616   9.683  17.734  0.00  0.00    +0.000 C 
ATOM      6  O   UNL     1      -4.428  10.701  18.332  0.00  0.00    +0.000 OA
ATOM      7  N   UNL     1      -3.645  11.922  18.482  0.00  0.00    +0.000 NA
ATOM      8  C   UNL     1      -3.503  12.143  19.909  0.00  0.00    +0.000 C 
ATOM      9  C   UNL     1      -1.051   9.553  17.605  0.00  0.00    +0.000 C 
ATOM     10  N   UNL     1       0.103  10.367  18.013  0.00  0.00    +0.000 N 
ATOM     11  C   UNL     1       1.416   9.872  18.093  0.00  0.00    +0.000 C 
ATOM     12  O   UNL     1       2.369  10.590  18.411  0.00  0.00    +0.000 OA
ENDROOT
BRANCH   1  17
ATOM     13  C   UNL     1      -1.246  12.190  22.401  0.00  0.00    +0.000 A 
ATOM     14  C   UNL     1      -1.195  10.867  22.820  0.00  0.00    +0.000 A 
ATOM     15  C   UNL     1      -0.552   9.885  22.065  0.00  0.00    +0.000 A 
ATOM     16  C   UNL     1      -0.105  10.187  20.784  0.00  0.00    +0.000 A 
ATOM     17  C   UNL     1      -0.326  11.443  20.225  0.00  0.00    +0.000 A 
ATOM     18  C   UNL     1      -0.803  12.454  21.078  0.00  0.00    +0.000 A 
BRANCH  13  24
ATOM     19  C   UNL     1      -3.123  13.317  23.751  0.00  0.00    +0.000 A 
ATOM     20  C   UNL     1      -3.495  14.351  24.620  0.00  0.00    +0.000 A 
ATOM     21  C   UNL     1      -2.600  15.345  24.997  0.00  0.00    +0.000 A 
ATOM     22  C   UNL     1      -1.303  15.317  24.528  0.00  0.00    +0.000 A 
ATOM     23  C   UNL     1      -0.898  14.286  23.683  0.00  0.00    +0.000 A 
ATOM     24  C   UNL     1      -1.778  13.250  23.287  0.00  0.00    +0.000 A 
BRANCH  19  26
ATOM     25  C   UNL     1      -5.364  12.870  23.075  0.00  0.00    +0.000 C 
ATOM     26  O   UNL     1      -4.061  12.364  23.408  0.00  0.00    +0.000 OA
ENDBRANCH  19  26
ENDBRANCH  13  24
ENDBRANCH   1  17
BRANCH  11  27
ATOM     27  C   UNL     1       1.617   8.394  17.796  0.00  0.00    +0.000 C 
BRANCH  27  28
ATOM     28  C   UNL     1       3.031   7.938  18.173  0.00  0.00    +0.000 C 
BRANCH  28  29
ATOM     29  C   UNL     1       3.298   6.504  17.785  0.00  0.00    +0.000 A 
ATOM     30  C   UNL     1       2.381   5.498  18.115  0.00  0.00    +0.000 A 
ATOM     31  C   UNL     1       2.628   4.170  17.764  0.00  0.00    +0.000 A 
ATOM     32  C   UNL     1       3.797   3.835  17.080  0.00  0.00    +0.000 A 
ATOM     33  C   UNL     1       4.715   4.828  16.744  0.00  0.00    +0.000 A 
ATOM     34  C   UNL     1       4.469   6.156  17.098  0.00  0.00    +0.000 A 
ENDBRANCH  28  29
ENDBRANCH  27  28
ENDBRANCH  11  27
TORSDOF 6
ENDMDL
