MODEL 1
REMARK VINA RESULT:      -8.0      0.000      0.000
REMARK  Name = 
REMARK  8 active torsions:
REMARK  status: ('A' for Active; 'I' for Inactive)
REMARK    1  A    between atoms: C_1  and  N_2
REMARK    2  A    between atoms: C_6  and  C_7
REMARK    3  A    between atoms: C_7  and  O_8
REMARK    4  A    between atoms: C_7  and  C_9
REMARK    5  A    between atoms: C_10  and  C_11
REMARK    6  A    between atoms: C_25  and  C_26
REMARK    7  A    between atoms: C_27  and  C_28
REMARK    8  A    between atoms: C_28  and  O_29
REMARK                            x       y       z     vdW  Elec       q    Type
REMARK                         _______ _______ _______ _____ _____    ______ ____
ROOT
ATOM      1  C   UNL     1      -0.458  11.861  20.352  0.00  0.00    +0.000 A 
ATOM      2  C   UNL     1      -0.419  11.729  18.962  0.00  0.00    +0.000 A 
ATOM      3  N   UNL     1       0.083  10.479  18.614  0.00  0.00    +0.000 NA
ATOM      4  C   UNL     1       0.346   9.833  19.738  0.00  0.00    +0.000 A 
ATOM      5  N   UNL     1      -0.025  10.618  20.823  0.00  0.00    +0.000 N 
ATOM      6  C   UNL     1       0.086  10.288  22.241  0.00  0.00    +0.000 C 
ATOM      7  C   UNL     1      -0.829   9.104  22.628  0.00  0.00    +0.000 C 
ATOM      8  C   UNL     1       0.329   8.152  22.309  0.00  0.00    +0.000 C 
ATOM      9  C   UNL     1       1.253   9.361  22.691  0.00  0.00    +0.000 C 
ATOM     10  C   UNL     1       0.837   7.646  20.906  0.00  0.00    +0.000 A 
ATOM     11  C   UNL     1       1.513   6.407  20.893  0.00  0.00    +0.000 A 
ATOM     12  C   UNL     1       2.462   6.113  19.934  0.00  0.00    +0.000 A 
ATOM     13  F   UNL     1       3.178   4.985  20.059  0.00  0.00    +0.000 F 
ATOM     14  C   UNL     1       2.741   7.026  18.931  0.00  0.00    +0.000 A 
ATOM     15  C   UNL     1       1.983   8.199  18.824  0.00  0.00    +0.000 A 
ATOM     16  C   UNL     1       1.016   8.518  19.800  0.00  0.00    +0.000 A 
ENDROOT
BRANCH   2  17
ATOM     17  C   UNL     1      -0.770  12.743  17.942  0.00  0.00    +0.000 C 
ATOM     18  N   UNL     1      -1.680  12.288  17.012  0.00  0.00    +0.000 N 
ATOM     19  O   UNL     1      -0.323  13.860  17.890  0.00  0.00    +0.000 OA
ATOM     20  H   UNL     1      -1.911  11.307  16.986  0.00  0.00    +0.000 HD
ATOM     21  H   UNL     1      -1.906  12.892  16.235  0.00  0.00    +0.000 HD
ENDBRANCH   2  17
BRANCH  14  22
ATOM     22  C   UNL     1       3.818   6.759  18.044  0.00  0.00    +0.000 C 
ATOM     23  C   UNL     1       4.800   6.398  17.265  0.00  0.00    +0.000 C 
BRANCH  23  24
ATOM     24  C   UNL     1       5.944   5.977  16.357  0.00  0.00    +0.000 C 
ATOM     25  C   UNL     1       6.459   4.588  16.732  0.00  0.00    +0.000 C 
ATOM     26  C   UNL     1       7.113   4.091  15.452  0.00  0.00    +0.000 C 
ATOM     27  C   UNL     1       6.218   4.615  14.337  0.00  0.00    +0.000 C 
ATOM     28  C   UNL     1       5.472   5.826  14.906  0.00  0.00    +0.000 C 
BRANCH  24  29
ATOM     29  O   UNL     1       6.996   6.927  16.428  0.00  0.00    +0.000 OA
ATOM     30  H   UNL     1       6.583   7.807  16.413  0.00  0.00    +0.000 HD
ENDBRANCH  24  29
ENDBRANCH  23  24
ENDBRANCH  14  22
BRANCH   1  31
ATOM     31  C   UNL     1      -0.809  13.013  21.268  0.00  0.00    +0.000 C 
BRANCH  31  37
ATOM     32  C   UNL     1      -3.906  12.758  20.350  0.00  0.00    +0.000 C 
ATOM     33  N   UNL     1      -3.339  12.702  21.678  0.00  0.00    +0.000 N 
ATOM     34  N   UNL     1      -4.228  12.684  22.696  0.00  0.00    +0.000 NA
ATOM     35  C   UNL     1      -3.475  12.739  23.787  0.00  0.00    +0.000 A 
ATOM     36  C   UNL     1      -2.113  12.800  23.487  0.00  0.00    +0.000 A 
ATOM     37  C   UNL     1      -2.027  12.841  22.110  0.00  0.00    +0.000 A 
ENDBRANCH  31  37
BRANCH  31  38
ATOM     38  O   UNL     1       0.304  13.281  22.096  0.00  0.00    +0.000 OA
ATOM     39  H   UNL     1       0.700  12.422  22.334  0.00  0.00    +0.000 HD
ENDBRANCH  31  38
ENDBRANCH   1  31
TORSDOF 7
ENDMDL
MODEL 2
REMARK VINA RESULT:      -7.9      7.846      9.153
REMARK  Name = 
REMARK  8 active torsions:
REMARK  status: ('A' for Active; 'I' for Inactive)
REMARK    1  A    between atoms: C_1  and  N_2
REMARK    2  A    between atoms: C_6  and  C_7
REMARK    3  A    between atoms: C_7  and  O_8
REMARK    4  A    between atoms: C_7  and  C_9
REMARK    5  A    between atoms: C_10  and  C_11
REMARK    6  A    between atoms: C_25  and  C_26
REMARK    7  A    between atoms: C_27  and  C_28
REMARK    8  A    between atoms: C_28  and  O_29
REMARK                            x       y       z     vdW  Elec       q    Type
REMARK                         _______ _______ _______ _____ _____    ______ ____
ROOT
ATOM      1  C   UNL     1       8.447  14.364  23.694  0.00  0.00    +0.000 A 
ATOM      2  C   UNL     1       8.426  13.060  24.195  0.00  0.00    +0.000 A 
ATOM      3  N   UNL     1       8.920  12.174  23.244  0.00  0.00    +0.000 NA
ATOM      4  C   UNL     1       9.252  12.884  22.177  0.00  0.00    +0.000 A 
ATOM      5  N   UNL     1       9.035  14.232  22.432  0.00  0.00    +0.000 N 
ATOM      6  C   UNL     1       9.273  15.358  21.533  0.00  0.00    +0.000 C 
ATOM      7  C   UNL     1      10.776  15.534  21.219  0.00  0.00    +0.000 C 
ATOM      8  C   UNL     1      10.595  14.602  20.015  0.00  0.00    +0.000 C 
ATOM      9  C   UNL     1       9.115  15.123  20.003  0.00  0.00    +0.000 C 
ATOM     10  C   UNL     1      10.500  13.030  19.985  0.00  0.00    +0.000 A 
ATOM     11  C   UNL     1      10.883  12.400  18.781  0.00  0.00    +0.000 A 
ATOM     12  C   UNL     1      10.352  11.183  18.403  0.00  0.00    +0.000 A 
ATOM     13  F   UNL     1      10.637  10.706  17.182  0.00  0.00    +0.000 F 
ATOM     14  C   UNL     1       9.455  10.530  19.231  0.00  0.00    +0.000 A 
ATOM     15  C   UNL     1       9.170  11.050  20.500  0.00  0.00    +0.000 A 
ATOM     16  C   UNL     1       9.697  12.297  20.897  0.00  0.00    +0.000 A 
ENDROOT
BRANCH   2  17
ATOM     17  C   UNL     1       7.907  12.596  25.501  0.00  0.00    +0.000 C 
ATOM     18  N   UNL     1       8.610  13.095  26.577  0.00  0.00    +0.000 N 
ATOM     19  O   UNL     1       6.971  11.854  25.652  0.00  0.00    +0.000 OA
ATOM     20  H   UNL     1       9.479  13.579  26.416  0.00  0.00    +0.000 HD
ATOM     21  H   UNL     1       8.370  12.757  27.497  0.00  0.00    +0.000 HD
ENDBRANCH   2  17
BRANCH  14  22
ATOM     22  C   UNL     1       8.819   9.351  18.756  0.00  0.00    +0.000 C 
ATOM     23  C   UNL     1       8.189   8.338  18.230  0.00  0.00    +0.000 C 
BRANCH  23  24
ATOM     24  C   UNL     1       7.455   7.156  17.617  0.00  0.00    +0.000 C 
ATOM     25  C   UNL     1       7.530   5.932  18.529  0.00  0.00    +0.000 C 
ATOM     26  C   UNL     1       6.325   5.103  18.113  0.00  0.00    +0.000 C 
ATOM     27  C   UNL     1       5.239   6.128  17.817  0.00  0.00    +0.000 C 
ATOM     28  C   UNL     1       5.954   7.442  17.492  0.00  0.00    +0.000 C 
BRANCH  24  29
ATOM     29  O   UNL     1       7.998   6.854  16.341  0.00  0.00    +0.000 OA
ATOM     30  H   UNL     1       7.737   5.942  16.132  0.00  0.00    +0.000 HD
ENDBRANCH  24  29
ENDBRANCH  23  24
ENDBRANCH  14  22
BRANCH   1  31
ATOM     31  C   UNL     1       7.949  15.685  24.237  0.00  0.00    +0.000 C 
BRANCH  31  37
ATOM     32  C   UNL     1       5.405  15.563  22.233  0.00  0.00    +0.000 C 
ATOM     33  N   UNL     1       5.430  15.673  23.674  0.00  0.00    +0.000 N 
ATOM     34  N   UNL     1       4.236  15.900  24.265  0.00  0.00    +0.000 NA
ATOM     35  C   UNL     1       4.533  16.064  25.548  0.00  0.00    +0.000 A 
ATOM     36  C   UNL     1       5.904  15.953  25.791  0.00  0.00    +0.000 A 
ATOM     37  C   UNL     1       6.495  15.762  24.559  0.00  0.00    +0.000 A 
ENDBRANCH  31  37
BRANCH  31  38
ATOM     38  O   UNL     1       8.705  16.011  25.385  0.00  0.00    +0.000 OA
ATOM     39  H   UNL     1       9.570  15.571  25.296  0.00  0.00    +0.000 HD
ENDBRANCH  31  38
ENDBRANCH   1  31
TORSDOF 7
ENDMDL
MODEL 3
REMARK VINA RESULT:      -7.9      7.708      9.052
REMARK  Name = 
REMARK  8 active torsions:
REMARK  status: ('A' for Active; 'I' for Inactive)
REMARK    1  A    between atoms: C_1  and  N_2
REMARK    2  A    between atoms: C_6  and  C_7
REMARK    3  A    between atoms: C_7  and  O_8
REMARK    4  A    between atoms: C_7  and  C_9
REMARK    5  A    between atoms: C_10  and  C_11
REMARK    6  A    between atoms: C_25  and  C_26
REMARK    7  A    between atoms: C_27  and  C_28
REMARK    8  A    between atoms: C_28  and  O_29
REMARK                            x       y       z     vdW  Elec       q    Type
REMARK                         _______ _______ _______ _____ _____    ______ ____
ROOT
ATOM      1  C   UNL     1       8.201  14.138  23.739  0.00  0.00    +0.000 A 
ATOM      2  C   UNL     1       8.111  12.806  24.149  0.00  0.00    +0.000 A 
ATOM      3  N   UNL     1       8.632  11.967  23.169  0.00  0.00    +0.000 NA
ATOM      4  C   UNL     1       9.048  12.734  22.174  0.00  0.00    +0.000 A 
ATOM      5  N   UNL     1       8.857  14.069  22.506  0.00  0.00    +0.000 N 
ATOM      6  C   UNL     1       9.182  15.243  21.700  0.00  0.00    +0.000 C 
ATOM      7  C   UNL     1      10.706  15.387  21.483  0.00  0.00    +0.000 C 
ATOM      8  C   UNL     1      10.567  14.542  20.211  0.00  0.00    +0.000 C 
ATOM      9  C   UNL     1       9.107  15.114  20.151  0.00  0.00    +0.000 C 
ATOM     10  C   UNL     1      10.426  12.980  20.070  0.00  0.00    +0.000 A 
ATOM     11  C   UNL     1      10.859  12.418  18.849  0.00  0.00    +0.000 A 
ATOM     12  C   UNL     1      10.314  11.247  18.361  0.00  0.00    +0.000 A 
ATOM     13  F   UNL     1      10.655  10.842  17.129  0.00  0.00    +0.000 F 
ATOM     14  C   UNL     1       9.350  10.573  19.092  0.00  0.00    +0.000 A 
ATOM     15  C   UNL     1       9.008  11.018  20.374  0.00  0.00    +0.000 A 
ATOM     16  C   UNL     1       9.548  12.217  20.884  0.00  0.00    +0.000 A 
ENDROOT
BRANCH   2  17
ATOM     17  C   UNL     1       7.502  12.275  25.390  0.00  0.00    +0.000 C 
ATOM     18  N   UNL     1       6.498  11.359  25.156  0.00  0.00    +0.000 N 
ATOM     19  O   UNL     1       7.818  12.590  26.508  0.00  0.00    +0.000 OA
ATOM     20  H   UNL     1       6.150  11.238  24.218  0.00  0.00    +0.000 HD
ATOM     21  H   UNL     1       5.977  11.016  25.950  0.00  0.00    +0.000 HD
ENDBRANCH   2  17
BRANCH  14  22
ATOM     22  C   UNL     1       8.707   9.450  18.503  0.00  0.00    +0.000 C 
ATOM     23  C   UNL     1       8.127   8.366  18.070  0.00  0.00    +0.000 C 
BRANCH  23  24
ATOM     24  C   UNL     1       7.451   7.101  17.565  0.00  0.00    +0.000 C 
ATOM     25  C   UNL     1       7.626   5.952  18.558  0.00  0.00    +0.000 C 
ATOM     26  C   UNL     1       6.464   5.025  18.239  0.00  0.00    +0.000 C 
ATOM     27  C   UNL     1       5.309   5.959  17.905  0.00  0.00    +0.000 C 
ATOM     28  C   UNL     1       5.933   7.287  17.466  0.00  0.00    +0.000 C 
BRANCH  24  29
ATOM     29  O   UNL     1       7.978   6.741  16.297  0.00  0.00    +0.000 OA
ATOM     30  H   UNL     1       8.821   6.285  16.461  0.00  0.00    +0.000 HD
ENDBRANCH  24  29
ENDBRANCH  23  24
ENDBRANCH  14  22
BRANCH   1  31
ATOM     31  C   UNL     1       7.713  15.437  24.341  0.00  0.00    +0.000 C 
BRANCH  31  37
ATOM     32  C   UNL     1       6.135  18.169  25.083  0.00  0.00    +0.000 C 
ATOM     33  N   UNL     1       5.678  17.026  24.326  0.00  0.00    +0.000 N 
ATOM     34  N   UNL     1       4.367  17.025  23.999  0.00  0.00    +0.000 NA
ATOM     35  C   UNL     1       4.177  15.849  23.414  0.00  0.00    +0.000 A 
ATOM     36  C   UNL     1       5.347  15.088  23.366  0.00  0.00    +0.000 A 
ATOM     37  C   UNL     1       6.311  15.830  24.018  0.00  0.00    +0.000 A 
ENDBRANCH  31  37
BRANCH  31  38
ATOM     38  O   UNL     1       7.874  15.369  25.743  0.00  0.00    +0.000 OA
ATOM     39  H   UNL     1       8.817  15.193  25.917  0.00  0.00    +0.000 HD
ENDBRANCH  31  38
ENDBRANCH   1  31
TORSDOF 7
ENDMDL
MODEL 4
REMARK VINA RESULT:      -7.9      1.747      2.310
REMARK  Name = 
REMARK  8 active torsions:
REMARK  status: ('A' for Active; 'I' for Inactive)
REMARK    1  A    between atoms: C_1  and  N_2
REMARK    2  A    between atoms: C_6  and  C_7
REMARK    3  A    between atoms: C_7  and  O_8
REMARK    4  A    between atoms: C_7  and  C_9
REMARK    5  A    between atoms: C_10  and  C_11
REMARK    6  A    between atoms: C_25  and  C_26
REMARK    7  A    between atoms: C_27  and  C_28
REMARK    8  A    between atoms: C_28  and  O_29
REMARK                            x       y       z     vdW  Elec       q    Type
REMARK                         _______ _______ _______ _____ _____    ______ ____
ROOT
ATOM      1  C   UNL     1      -0.264  12.136  20.540  0.00  0.00    +0.000 A 
ATOM      2  C   UNL     1      -0.232  12.037  19.147  0.00  0.00    +0.000 A 
ATOM      3  N   UNL     1       0.198  10.769  18.767  0.00  0.00    +0.000 NA
ATOM      4  C   UNL     1       0.423  10.081  19.875  0.00  0.00    +0.000 A 
ATOM      5  N   UNL     1       0.097  10.859  20.978  0.00  0.00    +0.000 N 
ATOM      6  C   UNL     1       0.188  10.487  22.388  0.00  0.00    +0.000 C 
ATOM      7  C   UNL     1      -0.794   9.348  22.746  0.00  0.00    +0.000 C 
ATOM      8  C   UNL     1       0.308   8.339  22.402  0.00  0.00    +0.000 C 
ATOM      9  C   UNL     1       1.299   9.484  22.813  0.00  0.00    +0.000 C 
ATOM     10  C   UNL     1       0.787   7.841  20.987  0.00  0.00    +0.000 A 
ATOM     11  C   UNL     1       1.390   6.565  20.942  0.00  0.00    +0.000 A 
ATOM     12  C   UNL     1       2.321   6.242  19.975  0.00  0.00    +0.000 A 
ATOM     13  F   UNL     1       2.971   5.072  20.071  0.00  0.00    +0.000 F 
ATOM     14  C   UNL     1       2.652   7.162  18.995  0.00  0.00    +0.000 A 
ATOM     15  C   UNL     1       1.963   8.379  18.918  0.00  0.00    +0.000 A 
ATOM     16  C   UNL     1       1.015   8.728  19.903  0.00  0.00    +0.000 A 
ENDROOT
BRANCH   2  17
ATOM     17  C   UNL     1      -0.523  13.094  18.153  0.00  0.00    +0.000 C 
ATOM     18  N   UNL     1      -1.260  12.644  17.078  0.00  0.00    +0.000 N 
ATOM     19  O   UNL     1      -0.167  14.241  18.234  0.00  0.00    +0.000 OA
ATOM     20  H   UNL     1      -1.404  11.654  16.959  0.00  0.00    +0.000 HD
ATOM     21  H   UNL     1      -1.427  13.286  16.316  0.00  0.00    +0.000 HD
ENDBRANCH   2  17
BRANCH  14  22
ATOM     22  C   UNL     1       3.713   6.856  18.100  0.00  0.00    +0.000 C 
ATOM     23  C   UNL     1       4.696   6.468  17.336  0.00  0.00    +0.000 C 
BRANCH  23  24
ATOM     24  C   UNL     1       5.841   6.015  16.444  0.00  0.00    +0.000 C 
ATOM     25  C   UNL     1       6.365   4.646  16.877  0.00  0.00    +0.000 C 
ATOM     26  C   UNL     1       7.019   4.100  15.618  0.00  0.00    +0.000 C 
ATOM     27  C   UNL     1       6.120   4.570  14.484  0.00  0.00    +0.000 C 
ATOM     28  C   UNL     1       5.367   5.800  15.002  0.00  0.00    +0.000 C 
BRANCH  24  29
ATOM     29  O   UNL     1       6.887   6.974  16.472  0.00  0.00    +0.000 OA
ATOM     30  H   UNL     1       6.547   7.749  16.950  0.00  0.00    +0.000 HD
ENDBRANCH  24  29
ENDBRANCH  23  24
ENDBRANCH  14  22
BRANCH   1  31
ATOM     31  C   UNL     1      -0.548  13.282  21.485  0.00  0.00    +0.000 C 
BRANCH  31  37
ATOM     32  C   UNL     1      -0.450  15.862  23.444  0.00  0.00    +0.000 C 
ATOM     33  N   UNL     1       0.613  15.260  22.671  0.00  0.00    +0.000 N 
ATOM     34  N   UNL     1       1.778  15.945  22.642  0.00  0.00    +0.000 NA
ATOM     35  C   UNL     1       2.539  15.257  21.800  0.00  0.00    +0.000 A 
ATOM     36  C   UNL     1       1.878  14.142  21.280  0.00  0.00    +0.000 A 
ATOM     37  C   UNL     1       0.599  14.181  21.799  0.00  0.00    +0.000 A 
ENDBRANCH  31  37
BRANCH  31  38
ATOM     38  O   UNL     1      -1.615  14.044  20.957  0.00  0.00    +0.000 OA
ATOM     39  H   UNL     1      -1.742  13.761  20.033  0.00  0.00    +0.000 HD
ENDBRANCH  31  38
ENDBRANCH   1  31
TORSDOF 7
ENDMDL
MODEL 5
REMARK VINA RESULT:      -7.7      0.832      1.158
REMARK  Name = 
REMARK  8 active torsions:
REMARK  status: ('A' for Active; 'I' for Inactive)
REMARK    1  A    between atoms: C_1  and  N_2
REMARK    2  A    between atoms: C_6  and  C_7
REMARK    3  A    between atoms: C_7  and  O_8
REMARK    4  A    between atoms: C_7  and  C_9
REMARK    5  A    between atoms: C_10  and  C_11
REMARK    6  A    between atoms: C_25  and  C_26
REMARK    7  A    between atoms: C_27  and  C_28
REMARK    8  A    between atoms: C_28  and  O_29
REMARK                            x       y       z     vdW  Elec       q    Type
REMARK                         _______ _______ _______ _____ _____    ______ ____
ROOT
ATOM      1  C   UNL     1      -0.290  12.241  20.617  0.00  0.00    +0.000 A 
ATOM      2  C   UNL     1      -0.286  12.126  19.224  0.00  0.00    +0.000 A 
ATOM      3  N   UNL     1       0.111  10.846  18.852  0.00  0.00    +0.000 NA
ATOM      4  C   UNL     1       0.343  10.165  19.962  0.00  0.00    +0.000 A 
ATOM      5  N   UNL     1       0.054  10.962  21.063  0.00  0.00    +0.000 N 
ATOM      6  C   UNL     1       0.164  10.604  22.475  0.00  0.00    +0.000 C 
ATOM      7  C   UNL     1      -0.834   9.490  22.865  0.00  0.00    +0.000 C 
ATOM      8  C   UNL     1       0.241   8.455  22.511  0.00  0.00    +0.000 C 
ATOM      9  C   UNL     1       1.263   9.583  22.891  0.00  0.00    +0.000 C 
ATOM     10  C   UNL     1       0.682   7.931  21.093  0.00  0.00    +0.000 A 
ATOM     11  C   UNL     1       1.259   6.643  21.051  0.00  0.00    +0.000 A 
ATOM     12  C   UNL     1       2.165   6.290  20.071  0.00  0.00    +0.000 A 
ATOM     13  F   UNL     1       2.792   5.108  20.168  0.00  0.00    +0.000 F 
ATOM     14  C   UNL     1       2.495   7.192  19.074  0.00  0.00    +0.000 A 
ATOM     15  C   UNL     1       1.830   8.422  18.997  0.00  0.00    +0.000 A 
ATOM     16  C   UNL     1       0.908   8.801  19.995  0.00  0.00    +0.000 A 
ENDROOT
BRANCH   2  17
ATOM     17  C   UNL     1      -0.575  13.178  18.224  0.00  0.00    +0.000 C 
ATOM     18  N   UNL     1      -1.219  12.702  17.102  0.00  0.00    +0.000 N 
ATOM     19  O   UNL     1      -0.288  14.342  18.338  0.00  0.00    +0.000 OA
ATOM     20  H   UNL     1      -1.300  11.706  16.965  0.00  0.00    +0.000 HD
ATOM     21  H   UNL     1      -1.374  13.342  16.338  0.00  0.00    +0.000 HD
ENDBRANCH   2  17
BRANCH  14  22
ATOM     22  C   UNL     1       3.533   6.854  18.163  0.00  0.00    +0.000 C 
ATOM     23  C   UNL     1       4.563   6.569  17.416  0.00  0.00    +0.000 C 
BRANCH  23  24
ATOM     24  C   UNL     1       5.764   6.237  16.545  0.00  0.00    +0.000 C 
ATOM     25  C   UNL     1       6.424   4.934  16.997  0.00  0.00    +0.000 C 
ATOM     26  C   UNL     1       7.153   4.453  15.751  0.00  0.00    +0.000 C 
ATOM     27  C   UNL     1       6.226   4.818  14.600  0.00  0.00    +0.000 C 
ATOM     28  C   UNL     1       5.338   5.963  15.098  0.00  0.00    +0.000 C 
BRANCH  24  29
ATOM     29  O   UNL     1       6.701   7.302  16.581  0.00  0.00    +0.000 OA
ATOM     30  H   UNL     1       7.379   7.103  15.914  0.00  0.00    +0.000 HD
ENDBRANCH  24  29
ENDBRANCH  23  24
ENDBRANCH  14  22
BRANCH   1  31
ATOM     31  C   UNL     1      -0.532  13.404  21.554  0.00  0.00    +0.000 C 
BRANCH  31  37
ATOM     32  C   UNL     1      -1.253  15.017  24.270  0.00  0.00    +0.000 C 
ATOM     33  N   UNL     1      -2.053  14.066  23.533  0.00  0.00    +0.000 N 
ATOM     34  N   UNL     1      -3.204  13.682  24.127  0.00  0.00    +0.000 NA
ATOM     35  C   UNL     1      -3.691  12.747  23.321  0.00  0.00    +0.000 A 
ATOM     36  C   UNL     1      -2.865  12.518  22.218  0.00  0.00    +0.000 A 
ATOM     37  C   UNL     1      -1.765  13.333  22.390  0.00  0.00    +0.000 A 
ENDBRANCH  31  37
BRANCH  31  38
ATOM     38  O   UNL     1       0.598  13.549  22.389  0.00  0.00    +0.000 OA
ATOM     39  H   UNL     1       1.013  14.403  22.166  0.00  0.00    +0.000 HD
ENDBRANCH  31  38
ENDBRANCH   1  31
TORSDOF 7
ENDMDL
MODEL 6
REMARK VINA RESULT:      -7.6      3.221      4.861
REMARK  Name = 
REMARK  8 active torsions:
REMARK  status: ('A' for Active; 'I' for Inactive)
REMARK    1  A    between atoms: C_1  and  N_2
REMARK    2  A    between atoms: C_6  and  C_7
REMARK    3  A    between atoms: C_7  and  O_8
REMARK    4  A    between atoms: C_7  and  C_9
REMARK    5  A    between atoms: C_10  and  C_11
REMARK    6  A    between atoms: C_25  and  C_26
REMARK    7  A    between atoms: C_27  and  C_28
REMARK    8  A    between atoms: C_28  and  O_29
REMARK                            x       y       z     vdW  Elec       q    Type
REMARK                         _______ _______ _______ _____ _____    ______ ____
ROOT
ATOM      1  C   UNL     1      -2.776  12.714  21.093  0.00  0.00    +0.000 A 
ATOM      2  C   UNL     1      -2.320  12.145  22.284  0.00  0.00    +0.000 A 
ATOM      3  N   UNL     1      -1.174  11.392  22.047  0.00  0.00    +0.000 NA
ATOM      4  C   UNL     1      -0.903  11.482  20.755  0.00  0.00    +0.000 A 
ATOM      5  N   UNL     1      -1.822  12.328  20.146  0.00  0.00    +0.000 N 
ATOM      6  C   UNL     1      -1.885  12.709  18.738  0.00  0.00    +0.000 C 
ATOM      7  C   UNL     1      -0.654  13.541  18.312  0.00  0.00    +0.000 C 
ATOM      8  C   UNL     1       0.052  12.233  17.934  0.00  0.00    +0.000 C 
ATOM      9  C   UNL     1      -1.394  11.683  17.676  0.00  0.00    +0.000 C 
ATOM     10  C   UNL     1       0.754  11.180  18.871  0.00  0.00    +0.000 A 
ATOM     11  C   UNL     1       1.767  10.392  18.282  0.00  0.00    +0.000 A 
ATOM     12  C   UNL     1       2.058   9.126  18.748  0.00  0.00    +0.000 A 
ATOM     13  F   UNL     1       2.923   8.368  18.058  0.00  0.00    +0.000 F 
ATOM     14  C   UNL     1       1.381   8.617  19.843  0.00  0.00    +0.000 A 
ATOM     15  C   UNL     1       0.479   9.426  20.545  0.00  0.00    +0.000 A 
ATOM     16  C   UNL     1       0.164  10.719  20.077  0.00  0.00    +0.000 A 
ENDROOT
BRANCH   2  17
ATOM     17  C   UNL     1      -2.942  12.221  23.625  0.00  0.00    +0.000 C 
ATOM     18  N   UNL     1      -2.802  13.455  24.223  0.00  0.00    +0.000 N 
ATOM     19  O   UNL     1      -3.516  11.317  24.176  0.00  0.00    +0.000 OA
ATOM     20  H   UNL     1      -2.183  14.135  23.810  0.00  0.00    +0.000 HD
ATOM     21  H   UNL     1      -3.125  13.561  25.173  0.00  0.00    +0.000 HD
ENDBRANCH   2  17
BRANCH  14  22
ATOM     22  C   UNL     1       1.600   7.262  20.213  0.00  0.00    +0.000 C 
ATOM     23  C   UNL     1       1.841   6.000  20.439  0.00  0.00    +0.000 C 
BRANCH  23  24
ATOM     24  C   UNL     1       2.122   4.530  20.703  0.00  0.00    +0.000 C 
ATOM     25  C   UNL     1       0.916   3.666  20.332  0.00  0.00    +0.000 C 
ATOM     26  C   UNL     1       1.524   2.295  20.077  0.00  0.00    +0.000 C 
ATOM     27  C   UNL     1       2.856   2.586  19.401  0.00  0.00    +0.000 C 
ATOM     28  C   UNL     1       3.249   4.012  19.802  0.00  0.00    +0.000 C 
BRANCH  24  29
ATOM     29  O   UNL     1       2.465   4.337  22.066  0.00  0.00    +0.000 OA
ATOM     30  H   UNL     1       3.427   4.458  22.135  0.00  0.00    +0.000 HD
ENDBRANCH  24  29
ENDBRANCH  23  24
ENDBRANCH  14  22
BRANCH   1  31
ATOM     31  C   UNL     1      -4.004  13.526  20.742  0.00  0.00    +0.000 C 
BRANCH  31  37
ATOM     32  C   UNL     1      -5.448  11.586  18.585  0.00  0.00    +0.000 C 
ATOM     33  N   UNL     1      -5.886  11.969  19.908  0.00  0.00    +0.000 N 
ATOM     34  N   UNL     1      -7.138  11.584  20.245  0.00  0.00    +0.000 NA
ATOM     35  C   UNL     1      -7.338  12.136  21.435  0.00  0.00    +0.000 A 
ATOM     36  C   UNL     1      -6.236  12.877  21.867  0.00  0.00    +0.000 A 
ATOM     37  C   UNL     1      -5.314  12.820  20.842  0.00  0.00    +0.000 A 
ENDBRANCH  31  37
BRANCH  31  38
ATOM     38  O   UNL     1      -4.025  14.680  21.557  0.00  0.00    +0.000 OA
ATOM     39  H   UNL     1      -3.108  14.848  21.843  0.00  0.00    +0.000 HD
ENDBRANCH  31  38
ENDBRANCH   1  31
TORSDOF 7
ENDMDL
MODEL 7
REMARK VINA RESULT:      -7.6      1.695      2.439
REMARK  Name = 
REMARK  8 active torsions:
REMARK  status: ('A' for Active; 'I' for Inactive)
REMARK    1  A    between atoms: C_1  and  N_2
REMARK    2  A    between atoms: C_6  and  C_7
REMARK    3  A    between atoms: C_7  and  O_8
REMARK    4  A    between atoms: C_7  and  C_9
REMARK    5  A    between atoms: C_10  and  C_11
REMARK    6  A    between atoms: C_25  and  C_26
REMARK    7  A    between atoms: C_27  and  C_28
REMARK    8  A    between atoms: C_28  and  O_29
REMARK                            x       y       z     vdW  Elec       q    Type
REMARK                         _______ _______ _______ _____ _____    ______ ____
ROOT
ATOM      1  C   UNL     1      -0.194  12.142  20.541  0.00  0.00    +0.000 A 
ATOM      2  C   UNL     1      -0.197  12.032  19.148  0.00  0.00    +0.000 A 
ATOM      3  N   UNL     1       0.209  10.757  18.768  0.00  0.00    +0.000 NA
ATOM      4  C   UNL     1       0.455  10.074  19.874  0.00  0.00    +0.000 A 
ATOM      5  N   UNL     1       0.165  10.864  20.980  0.00  0.00    +0.000 N 
ATOM      6  C   UNL     1       0.287  10.501  22.390  0.00  0.00    +0.000 C 
ATOM      7  C   UNL     1      -0.697   9.376  22.782  0.00  0.00    +0.000 C 
ATOM      8  C   UNL     1       0.385   8.353  22.417  0.00  0.00    +0.000 C 
ATOM      9  C   UNL     1       1.398   9.489  22.795  0.00  0.00    +0.000 C 
ATOM     10  C   UNL     1       0.822   7.839  20.994  0.00  0.00    +0.000 A 
ATOM     11  C   UNL     1       1.411   6.557  20.943  0.00  0.00    +0.000 A 
ATOM     12  C   UNL     1       2.314   6.216  19.956  0.00  0.00    +0.000 A 
ATOM     13  F   UNL     1       2.953   5.040  20.044  0.00  0.00    +0.000 F 
ATOM     14  C   UNL     1       2.629   7.125  18.961  0.00  0.00    +0.000 A 
ATOM     15  C   UNL     1       1.952   8.349  18.893  0.00  0.00    +0.000 A 
ATOM     16  C   UNL     1       1.033   8.716  19.898  0.00  0.00    +0.000 A 
ENDROOT
BRANCH   2  17
ATOM     17  C   UNL     1      -0.503  13.085  18.154  0.00  0.00    +0.000 C 
ATOM     18  N   UNL     1      -1.281  12.638  17.107  0.00  0.00    +0.000 N 
ATOM     19  O   UNL     1      -0.124  14.227  18.213  0.00  0.00    +0.000 OA
ATOM     20  H   UNL     1      -1.445  11.649  17.003  0.00  0.00    +0.000 HD
ATOM     21  H   UNL     1      -1.461  13.276  16.346  0.00  0.00    +0.000 HD
ENDBRANCH   2  17
BRANCH  14  22
ATOM     22  C   UNL     1       3.664   6.801  18.042  0.00  0.00    +0.000 C 
ATOM     23  C   UNL     1       4.664   6.438  17.288  0.00  0.00    +0.000 C 
BRANCH  23  24
ATOM     24  C   UNL     1       5.829   6.014  16.408  0.00  0.00    +0.000 C 
ATOM     25  C   UNL     1       6.391   4.665  16.855  0.00  0.00    +0.000 C 
ATOM     26  C   UNL     1       7.072   4.130  15.604  0.00  0.00    +0.000 C 
ATOM     27  C   UNL     1       6.167   4.566  14.460  0.00  0.00    +0.000 C 
ATOM     28  C   UNL     1       5.374   5.775  14.964  0.00  0.00    +0.000 C 
BRANCH  24  29
ATOM     29  O   UNL     1       6.846   7.005  16.437  0.00  0.00    +0.000 OA
ATOM     30  H   UNL     1       7.269   6.948  17.310  0.00  0.00    +0.000 HD
ENDBRANCH  24  29
ENDBRANCH  23  24
ENDBRANCH  14  22
BRANCH   1  31
ATOM     31  C   UNL     1      -0.441  13.298  21.484  0.00  0.00    +0.000 C 
BRANCH  31  37
ATOM     32  C   UNL     1       2.739  13.497  20.895  0.00  0.00    +0.000 C 
ATOM     33  N   UNL     1       1.760  14.556  20.997  0.00  0.00    +0.000 N 
ATOM     34  N   UNL     1       2.253  15.814  20.988  0.00  0.00    +0.000 NA
ATOM     35  C   UNL     1       1.191  16.582  21.197  0.00  0.00    +0.000 A 
ATOM     36  C   UNL     1       0.021  15.835  21.347  0.00  0.00    +0.000 A 
ATOM     37  C   UNL     1       0.402  14.510  21.281  0.00  0.00    +0.000 A 
ENDBRANCH  31  37
BRANCH  31  38
ATOM     38  O   UNL     1      -1.806  13.653  21.408  0.00  0.00    +0.000 OA
ATOM     39  H   UNL     1      -1.998  14.227  22.172  0.00  0.00    +0.000 HD
ENDBRANCH  31  38
ENDBRANCH   1  31
TORSDOF 7
ENDMDL
MODEL 8
REMARK VINA RESULT:      -7.6      8.302      9.738
REMARK  Name = 
REMARK  8 active torsions:
REMARK  status: ('A' for Active; 'I' for Inactive)
REMARK    1  A    between atoms: C_1  and  N_2
REMARK    2  A    between atoms: C_6  and  C_7
REMARK    3  A    between atoms: C_7  and  O_8
REMARK    4  A    between atoms: C_7  and  C_9
REMARK    5  A    between atoms: C_10  and  C_11
REMARK    6  A    between atoms: C_25  and  C_26
REMARK    7  A    between atoms: C_27  and  C_28
REMARK    8  A    between atoms: C_28  and  O_29
REMARK                            x       y       z     vdW  Elec       q    Type
REMARK                         _______ _______ _______ _____ _____    ______ ____
ROOT
ATOM      1  C   UNL     1       8.071  13.876  23.800  0.00  0.00    +0.000 A 
ATOM      2  C   UNL     1       8.011  12.534  24.183  0.00  0.00    +0.000 A 
ATOM      3  N   UNL     1       8.553  11.728  23.188  0.00  0.00    +0.000 NA
ATOM      4  C   UNL     1       8.953  12.523  22.209  0.00  0.00    +0.000 A 
ATOM      5  N   UNL     1       8.732  13.847  22.568  0.00  0.00    +0.000 N 
ATOM      6  C   UNL     1       9.032  15.044  21.786  0.00  0.00    +0.000 C 
ATOM      7  C   UNL     1      10.552  15.227  21.577  0.00  0.00    +0.000 C 
ATOM      8  C   UNL     1      10.436  14.405  20.287  0.00  0.00    +0.000 C 
ATOM      9  C   UNL     1       8.963  14.944  20.235  0.00  0.00    +0.000 C 
ATOM     10  C   UNL     1      10.330  12.843  20.115  0.00  0.00    +0.000 A 
ATOM     11  C   UNL     1      10.779  12.316  18.884  0.00  0.00    +0.000 A 
ATOM     12  C   UNL     1      10.262  11.143  18.371  0.00  0.00    +0.000 A 
ATOM     13  F   UNL     1      10.615  10.770  17.132  0.00  0.00    +0.000 F 
ATOM     14  C   UNL     1       9.312  10.432  19.085  0.00  0.00    +0.000 A 
ATOM     15  C   UNL     1       8.956  10.844  20.376  0.00  0.00    +0.000 A 
ATOM     16  C   UNL     1       9.469  12.044  20.911  0.00  0.00    +0.000 A 
ENDROOT
BRANCH   2  17
ATOM     17  C   UNL     1       7.411  11.965  25.411  0.00  0.00    +0.000 C 
ATOM     18  N   UNL     1       8.024  12.396  26.568  0.00  0.00    +0.000 N 
ATOM     19  O   UNL     1       6.484  11.197  25.439  0.00  0.00    +0.000 OA
ATOM     20  H   UNL     1       8.890  12.907  26.506  0.00  0.00    +0.000 HD
ATOM     21  H   UNL     1       7.727  11.987  27.442  0.00  0.00    +0.000 HD
ENDBRANCH   2  17
BRANCH  14  22
ATOM     22  C   UNL     1       8.696   9.308  18.472  0.00  0.00    +0.000 C 
ATOM     23  C   UNL     1       8.105   8.236  18.021  0.00  0.00    +0.000 C 
BRANCH  23  24
ATOM     24  C   UNL     1       7.417   6.987  17.495  0.00  0.00    +0.000 C 
ATOM     25  C   UNL     1       7.589   5.817  18.463  0.00  0.00    +0.000 C 
ATOM     26  C   UNL     1       6.417   4.905  18.133  0.00  0.00    +0.000 C 
ATOM     27  C   UNL     1       5.268   5.855  17.824  0.00  0.00    +0.000 C 
ATOM     28  C   UNL     1       5.900   7.187  17.408  0.00  0.00    +0.000 C 
BRANCH  24  29
ATOM     29  O   UNL     1       7.934   6.648  16.217  0.00  0.00    +0.000 OA
ATOM     30  H   UNL     1       8.902   6.641  16.298  0.00  0.00    +0.000 HD
ENDBRANCH  24  29
ENDBRANCH  23  24
ENDBRANCH  14  22
BRANCH   1  31
ATOM     31  C   UNL     1       7.552  15.152  24.427  0.00  0.00    +0.000 C 
BRANCH  31  37
ATOM     32  C   UNL     1       6.952  17.402  26.680  0.00  0.00    +0.000 C 
ATOM     33  N   UNL     1       8.217  16.845  26.258  0.00  0.00    +0.000 N 
ATOM     34  N   UNL     1       9.319  17.441  26.767  0.00  0.00    +0.000 NA
ATOM     35  C   UNL     1      10.329  16.831  26.159  0.00  0.00    +0.000 A 
ATOM     36  C   UNL     1       9.893  15.855  25.260  0.00  0.00    +0.000 A 
ATOM     37  C   UNL     1       8.514  15.909  25.278  0.00  0.00    +0.000 A 
ENDBRANCH  31  37
BRANCH  31  38
ATOM     38  O   UNL     1       7.068  15.990  23.399  0.00  0.00    +0.000 OA
ATOM     39  H   UNL     1       7.744  16.008  22.697  0.00  0.00    +0.000 HD
ENDBRANCH  31  38
ENDBRANCH   1  31
TORSDOF 7
ENDMDL
MODEL 9
REMARK VINA RESULT:      -7.5      7.494      8.895
REMARK  Name = 
REMARK  8 active torsions:
REMARK  status: ('A' for Active; 'I' for Inactive)
REMARK    1  A    between atoms: C_1  and  N_2
REMARK    2  A    between atoms: C_6  and  C_7
REMARK    3  A    between atoms: C_7  and  O_8
REMARK    4  A    between atoms: C_7  and  C_9
REMARK    5  A    between atoms: C_10  and  C_11
REMARK    6  A    between atoms: C_25  and  C_26
REMARK    7  A    between atoms: C_27  and  C_28
REMARK    8  A    between atoms: C_28  and  O_29
REMARK                            x       y       z     vdW  Elec       q    Type
REMARK                         _______ _______ _______ _____ _____    ______ ____
ROOT
ATOM      1  C   UNL     1       7.920  14.104  23.628  0.00  0.00    +0.000 A 
ATOM      2  C   UNL     1       7.861  12.779  24.065  0.00  0.00    +0.000 A 
ATOM      3  N   UNL     1       8.438  11.937  23.120  0.00  0.00    +0.000 NA
ATOM      4  C   UNL     1       8.859  12.695  22.121  0.00  0.00    +0.000 A 
ATOM      5  N   UNL     1       8.616  14.030  22.417  0.00  0.00    +0.000 N 
ATOM      6  C   UNL     1       8.928  15.197  21.595  0.00  0.00    +0.000 C 
ATOM      7  C   UNL     1      10.452  15.386  21.421  0.00  0.00    +0.000 C 
ATOM      8  C   UNL     1      10.379  14.510  20.164  0.00  0.00    +0.000 C 
ATOM      9  C   UNL     1       8.904  15.032  20.047  0.00  0.00    +0.000 C 
ATOM     10  C   UNL     1      10.292  12.941  20.054  0.00  0.00    +0.000 A 
ATOM     11  C   UNL     1      10.780  12.368  18.860  0.00  0.00    +0.000 A 
ATOM     12  C   UNL     1      10.289  11.169  18.382  0.00  0.00    +0.000 A 
ATOM     13  F   UNL     1      10.680  10.749  17.170  0.00  0.00    +0.000 F 
ATOM     14  C   UNL     1       9.325  10.480  19.098  0.00  0.00    +0.000 A 
ATOM     15  C   UNL     1       8.929  10.941  20.360  0.00  0.00    +0.000 A 
ATOM     16  C   UNL     1       9.415  12.167  20.858  0.00  0.00    +0.000 A 
ENDROOT
BRANCH   2  17
ATOM     17  C   UNL     1       7.231  12.256  25.298  0.00  0.00    +0.000 C 
ATOM     18  N   UNL     1       8.100  12.184  26.366  0.00  0.00    +0.000 N 
ATOM     19  O   UNL     1       6.082  11.911  25.399  0.00  0.00    +0.000 OA
ATOM     20  H   UNL     1       9.085  12.325  26.210  0.00  0.00    +0.000 HD
ATOM     21  H   UNL     1       7.767  11.758  27.219  0.00  0.00    +0.000 HD
ENDBRANCH   2  17
BRANCH  14  22
ATOM     22  C   UNL     1       8.737   9.324  18.515  0.00  0.00    +0.000 C 
ATOM     23  C   UNL     1       8.119   8.264  18.074  0.00  0.00    +0.000 C 
BRANCH  23  24
ATOM     24  C   UNL     1       7.399   7.029  17.558  0.00  0.00    +0.000 C 
ATOM     25  C   UNL     1       7.569   5.854  18.522  0.00  0.00    +0.000 C 
ATOM     26  C   UNL     1       6.375   4.963  18.212  0.00  0.00    +0.000 C 
ATOM     27  C   UNL     1       5.237   5.933  17.927  0.00  0.00    +0.000 C 
ATOM     28  C   UNL     1       5.884   7.255  17.501  0.00  0.00    +0.000 C 
BRANCH  24  29
ATOM     29  O   UNL     1       7.886   6.683  16.270  0.00  0.00    +0.000 OA
ATOM     30  H   UNL     1       7.880   5.713  16.218  0.00  0.00    +0.000 HD
ENDBRANCH  24  29
ENDBRANCH  23  24
ENDBRANCH  14  22
BRANCH   1  31
ATOM     31  C   UNL     1       7.372  15.399  24.186  0.00  0.00    +0.000 C 
BRANCH  31  37
ATOM     32  C   UNL     1       4.796  14.261  22.584  0.00  0.00    +0.000 C 
ATOM     33  N   UNL     1       5.288  15.616  22.677  0.00  0.00    +0.000 N 
ATOM     34  N   UNL     1       4.681  16.517  21.874  0.00  0.00    +0.000 NA
ATOM     35  C   UNL     1       5.368  17.637  22.063  0.00  0.00    +0.000 A 
ATOM     36  C   UNL     1       6.416  17.468  22.971  0.00  0.00    +0.000 A 
ATOM     37  C   UNL     1       6.403  16.133  23.323  0.00  0.00    +0.000 A 
ENDBRANCH  31  37
BRANCH  31  38
ATOM     38  O   UNL     1       6.781  15.131  25.440  0.00  0.00    +0.000 OA
ATOM     39  H   UNL     1       6.964  14.198  25.653  0.00  0.00    +0.000 HD
ENDBRANCH  31  38
ENDBRANCH   1  31
TORSDOF 7
ENDMDL
