MODEL 1
REMARK VINA RESULT:      -6.6      0.000      0.000
REMARK  Name = 
REMARK  6 active torsions:
REMARK  status: ('A' for Active; 'I' for Inactive)
REMARK    1  A    between atoms: C_1  and  C_2
REMARK    2  A    between atoms: C_2  and  C_3
REMARK    3  A    between atoms: C_3  and  O_4
REMARK    4  A    between atoms: O_4  and  C_5
REMARK    5  A    between atoms: C_5  and  N_6
REMARK    6  A    between atoms: N_11  and  C_12
REMARK                            x       y       z     vdW  Elec       q    Type
REMARK                         _______ _______ _______ _____ _____    ______ ____
ROOT
ATOM      1  N   UNL     1       3.387   4.749  18.539  0.00  0.00    +0.000 N 
ATOM      2  C   UNL     1       4.596   4.125  18.308  0.00  0.00    +0.000 A 
ATOM      3  N   UNL     1       5.342   4.459  17.220  0.00  0.00    +0.000 N 
ATOM      4  C   UNL     1       6.810   4.349  17.360  0.00  0.00    +0.000 C 
ATOM      5  C   UNL     1       7.485   5.077  16.165  0.00  0.00    +0.000 C 
ATOM      6  N   UNL     1       7.038   4.571  14.842  0.00  0.00    +0.000 NA
ATOM      7  C   UNL     1       7.611   5.361  13.755  0.00  0.00    +0.000 C 
ATOM      8  C   UNL     1       5.561   4.594  14.771  0.00  0.00    +0.000 C 
ATOM      9  C   UNL     1       4.905   3.842  15.948  0.00  0.00    +0.000 C 
ATOM     10  N   UNL     1       4.853   3.236  19.241  0.00  0.00    +0.000 NA
ATOM     11  C   UNL     1       3.720   3.192  20.027  0.00  0.00    +0.000 A 
ATOM     12  C   UNL     1       3.415   2.364  21.120  0.00  0.00    +0.000 A 
ATOM     13  C   UNL     1       2.164   2.492  21.739  0.00  0.00    +0.000 A 
ATOM     14  C   UNL     1       1.238   3.434  21.293  0.00  0.00    +0.000 A 
ATOM     15  C   UNL     1       1.526   4.271  20.213  0.00  0.00    +0.000 A 
ATOM     16  C   UNL     1       2.777   4.121  19.600  0.00  0.00    +0.000 A 
ENDROOT
BRANCH   1  17
ATOM     17  C   UNL     1       2.829   5.794  17.700  0.00  0.00    +0.000 C 
BRANCH  17  18
ATOM     18  O   UNL     1       3.312   7.073  18.109  0.00  0.00    +0.000 OA
BRANCH  18  19
ATOM     19  C   UNL     1       2.285   7.827  18.742  0.00  0.00    +0.000 C 
BRANCH  19  21
ATOM     20  C   UNL     1       1.373  10.148  18.441  0.00  0.00    +0.000 C 
ATOM     21  C   UNL     1       1.778   8.861  17.748  0.00  0.00    +0.000 C 
ENDBRANCH  19  21
ENDBRANCH  18  19
ENDBRANCH  17  18
ENDBRANCH   1  17
TORSDOF 4
ENDMDL
MODEL 2
REMARK VINA RESULT:      -6.5      2.384      6.254
REMARK  Name = 
REMARK  6 active torsions:
REMARK  status: ('A' for Active; 'I' for Inactive)
REMARK    1  A    between atoms: C_1  and  C_2
REMARK    2  A    between atoms: C_2  and  C_3
REMARK    3  A    between atoms: C_3  and  O_4
REMARK    4  A    between atoms: O_4  and  C_5
REMARK    5  A    between atoms: C_5  and  N_6
REMARK    6  A    between atoms: N_11  and  C_12
REMARK                            x       y       z     vdW  Elec       q    Type
REMARK                         _______ _______ _______ _____ _____    ______ ____
ROOT
ATOM      1  N   UNL     1       5.662   4.565  17.157  0.00  0.00    +0.000 N 
ATOM      2  C   UNL     1       4.408   3.991  17.097  0.00  0.00    +0.000 A 
ATOM      3  N   UNL     1       3.718   3.731  18.240  0.00  0.00    +0.000 N 
ATOM      4  C   UNL     1       2.243   3.804  18.160  0.00  0.00    +0.000 C 
ATOM      5  C   UNL     1       1.661   3.814  19.600  0.00  0.00    +0.000 C 
ATOM      6  N   UNL     1       2.091   2.649  20.414  0.00  0.00    +0.000 NA
ATOM      7  C   UNL     1       1.613   2.763  21.789  0.00  0.00    +0.000 C 
ATOM      8  C   UNL     1       3.565   2.539  20.390  0.00  0.00    +0.000 C 
ATOM      9  C   UNL     1       4.127   2.501  18.953  0.00  0.00    +0.000 C 
ATOM     10  N   UNL     1       4.054   3.762  15.852  0.00  0.00    +0.000 NA
ATOM     11  C   UNL     1       5.161   4.079  15.093  0.00  0.00    +0.000 A 
ATOM     12  C   UNL     1       5.369   3.953  13.709  0.00  0.00    +0.000 A 
ATOM     13  C   UNL     1       6.612   4.317  13.174  0.00  0.00    +0.000 A 
ATOM     14  C   UNL     1       7.627   4.811  13.993  0.00  0.00    +0.000 A 
ATOM     15  C   UNL     1       7.436   4.951  15.370  0.00  0.00    +0.000 A 
ATOM     16  C   UNL     1       6.191   4.572  15.888  0.00  0.00    +0.000 A 
ENDROOT
BRANCH   1  17
ATOM     17  C   UNL     1       6.326   4.957  18.387  0.00  0.00    +0.000 C 
BRANCH  17  18
ATOM     18  O   UNL     1       6.420   6.378  18.472  0.00  0.00    +0.000 OA
BRANCH  18  19
ATOM     19  C   UNL     1       7.777   6.803  18.404  0.00  0.00    +0.000 C 
BRANCH  19  21
ATOM     20  C   UNL     1       8.485   9.212  18.314  0.00  0.00    +0.000 C 
ATOM     21  C   UNL     1       7.833   8.068  17.560  0.00  0.00    +0.000 C 
ENDBRANCH  19  21
ENDBRANCH  18  19
ENDBRANCH  17  18
ENDBRANCH   1  17
TORSDOF 4
ENDMDL
MODEL 3
REMARK VINA RESULT:      -6.3      2.144      2.435
REMARK  Name = 
REMARK  6 active torsions:
REMARK  status: ('A' for Active; 'I' for Inactive)
REMARK    1  A    between atoms: C_1  and  C_2
REMARK    2  A    between atoms: C_2  and  C_3
REMARK    3  A    between atoms: C_3  and  O_4
REMARK    4  A    between atoms: O_4  and  C_5
REMARK    5  A    between atoms: C_5  and  N_6
REMARK    6  A    between atoms: N_11  and  C_12
REMARK                            x       y       z     vdW  Elec       q    Type
REMARK                         _______ _______ _______ _____ _____    ______ ____
ROOT
ATOM      1  N   UNL     1       3.374   5.228  18.968  0.00  0.00    +0.000 N 
ATOM      2  C   UNL     1       4.650   4.896  18.562  0.00  0.00    +0.000 A 
ATOM      3  N   UNL     1       5.583   5.868  18.372  0.00  0.00    +0.000 N 
ATOM      4  C   UNL     1       6.991   5.501  18.636  0.00  0.00    +0.000 C 
ATOM      5  C   UNL     1       7.846   6.796  18.695  0.00  0.00    +0.000 C 
ATOM      6  N   UNL     1       7.735   7.628  17.470  0.00  0.00    +0.000 NA
ATOM      7  C   UNL     1       8.463   8.885  17.620  0.00  0.00    +0.000 C 
ATOM      8  C   UNL     1       6.312   7.891  17.171  0.00  0.00    +0.000 C 
ATOM      9  C   UNL     1       5.480   6.594  17.087  0.00  0.00    +0.000 C 
ATOM     10  N   UNL     1       4.771   3.597  18.402  0.00  0.00    +0.000 NA
ATOM     11  C   UNL     1       3.503   3.087  18.587  0.00  0.00    +0.000 A 
ATOM     12  C   UNL     1       3.037   1.767  18.461  0.00  0.00    +0.000 A 
ATOM     13  C   UNL     1       1.677   1.505  18.671  0.00  0.00    +0.000 A 
ATOM     14  C   UNL     1       0.796   2.529  19.016  0.00  0.00    +0.000 A 
ATOM     15  C   UNL     1       1.242   3.846  19.154  0.00  0.00    +0.000 A 
ATOM     16  C   UNL     1       2.602   4.090  18.929  0.00  0.00    +0.000 A 
ENDROOT
BRANCH   1  17
ATOM     17  C   UNL     1       2.928   6.580  19.250  0.00  0.00    +0.000 C 
BRANCH  17  18
ATOM     18  O   UNL     1       2.219   7.115  18.133  0.00  0.00    +0.000 OA
BRANCH  18  19
ATOM     19  C   UNL     1       2.531   8.490  17.942  0.00  0.00    +0.000 C 
BRANCH  19  21
ATOM     20  C   UNL     1       0.900   9.769  19.361  0.00  0.00    +0.000 C 
ATOM     21  C   UNL     1       1.230   9.277  17.964  0.00  0.00    +0.000 C 
ENDBRANCH  19  21
ENDBRANCH  18  19
ENDBRANCH  17  18
ENDBRANCH   1  17
TORSDOF 4
ENDMDL
MODEL 4
REMARK VINA RESULT:      -6.3      2.442      3.070
REMARK  Name = 
REMARK  6 active torsions:
REMARK  status: ('A' for Active; 'I' for Inactive)
REMARK    1  A    between atoms: C_1  and  C_2
REMARK    2  A    between atoms: C_2  and  C_3
REMARK    3  A    between atoms: C_3  and  O_4
REMARK    4  A    between atoms: O_4  and  C_5
REMARK    5  A    between atoms: C_5  and  N_6
REMARK    6  A    between atoms: N_11  and  C_12
REMARK                            x       y       z     vdW  Elec       q    Type
REMARK                         _______ _______ _______ _____ _____    ______ ____
ROOT
ATOM      1  N   UNL     1       4.248   4.636  18.678  0.00  0.00    +0.000 N 
ATOM      2  C   UNL     1       4.206   4.077  17.417  0.00  0.00    +0.000 A 
ATOM      3  N   UNL     1       5.136   4.421  16.485  0.00  0.00    +0.000 N 
ATOM      4  C   UNL     1       5.502   3.386  15.496  0.00  0.00    +0.000 C 
ATOM      5  C   UNL     1       6.788   3.835  14.749  0.00  0.00    +0.000 C 
ATOM      6  N   UNL     1       6.655   5.165  14.101  0.00  0.00    +0.000 NA
ATOM      7  C   UNL     1       7.921   5.593  13.512  0.00  0.00    +0.000 C 
ATOM      8  C   UNL     1       6.186   6.159  15.090  0.00  0.00    +0.000 C 
ATOM      9  C   UNL     1       4.892   5.712  15.803  0.00  0.00    +0.000 C 
ATOM     10  N   UNL     1       3.196   3.245  17.304  0.00  0.00    +0.000 NA
ATOM     11  C   UNL     1       2.490   3.364  18.482  0.00  0.00    +0.000 A 
ATOM     12  C   UNL     1       1.281   2.763  18.872  0.00  0.00    +0.000 A 
ATOM     13  C   UNL     1       0.741   3.076  20.126  0.00  0.00    +0.000 A 
ATOM     14  C   UNL     1       1.394   3.957  20.986  0.00  0.00    +0.000 A 
ATOM     15  C   UNL     1       2.600   4.559  20.621  0.00  0.00    +0.000 A 
ATOM     16  C   UNL     1       3.119   4.243  19.358  0.00  0.00    +0.000 A 
ENDROOT
BRANCH   1  17
ATOM     17  C   UNL     1       5.256   5.579  19.126  0.00  0.00    +0.000 C 
BRANCH  17  18
ATOM     18  O   UNL     1       6.362   4.890  19.707  0.00  0.00    +0.000 OA
BRANCH  18  19
ATOM     19  C   UNL     1       7.552   5.665  19.613  0.00  0.00    +0.000 C 
BRANCH  19  21
ATOM     20  C   UNL     1       8.027   7.646  18.144  0.00  0.00    +0.000 C 
ATOM     21  C   UNL     1       7.674   6.171  18.184  0.00  0.00    +0.000 C 
ENDBRANCH  19  21
ENDBRANCH  18  19
ENDBRANCH  17  18
ENDBRANCH   1  17
TORSDOF 4
ENDMDL
MODEL 5
REMARK VINA RESULT:      -6.2      2.293      5.394
REMARK  Name = 
REMARK  6 active torsions:
REMARK  status: ('A' for Active; 'I' for Inactive)
REMARK    1  A    between atoms: C_1  and  C_2
REMARK    2  A    between atoms: C_2  and  C_3
REMARK    3  A    between atoms: C_3  and  O_4
REMARK    4  A    between atoms: O_4  and  C_5
REMARK    5  A    between atoms: C_5  and  N_6
REMARK    6  A    between atoms: N_11  and  C_12
REMARK                            x       y       z     vdW  Elec       q    Type
REMARK                         _______ _______ _______ _____ _____    ______ ____
ROOT
ATOM      1  N   UNL     1       2.820   7.374  18.301  0.00  0.00    +0.000 N 
ATOM      2  C   UNL     1       2.466   6.422  19.236  0.00  0.00    +0.000 A 
ATOM      3  N   UNL     1       2.840   5.125  19.068  0.00  0.00    +0.000 N 
ATOM      4  C   UNL     1       3.082   4.337  20.295  0.00  0.00    +0.000 C 
ATOM      5  C   UNL     1       3.811   3.019  19.911  0.00  0.00    +0.000 C 
ATOM      6  N   UNL     1       3.077   2.216  18.901  0.00  0.00    +0.000 NA
ATOM      7  C   UNL     1       3.854   1.050  18.490  0.00  0.00    +0.000 C 
ATOM      8  C   UNL     1       2.756   3.059  17.729  0.00  0.00    +0.000 C 
ATOM      9  C   UNL     1       2.007   4.350  18.122  0.00  0.00    +0.000 C 
ATOM     10  N   UNL     1       1.764   6.956  20.210  0.00  0.00    +0.000 NA
ATOM     11  C   UNL     1       1.550   8.265  19.831  0.00  0.00    +0.000 A 
ATOM     12  C   UNL     1       0.797   9.272  20.459  0.00  0.00    +0.000 A 
ATOM     13  C   UNL     1       0.704  10.529  19.849  0.00  0.00    +0.000 A 
ATOM     14  C   UNL     1       1.357  10.791  18.645  0.00  0.00    +0.000 A 
ATOM     15  C   UNL     1       2.116   9.805  18.009  0.00  0.00    +0.000 A 
ATOM     16  C   UNL     1       2.189   8.551  18.629  0.00  0.00    +0.000 A 
ENDROOT
BRANCH   1  17
ATOM     17  C   UNL     1       3.614   7.105  17.117  0.00  0.00    +0.000 C 
BRANCH  17  18
ATOM     18  O   UNL     1       5.006   7.158  17.426  0.00  0.00    +0.000 OA
BRANCH  18  19
ATOM     19  C   UNL     1       5.646   5.927  17.108  0.00  0.00    +0.000 C 
BRANCH  19  21
ATOM     20  C   UNL     1       7.528   7.522  17.583  0.00  0.00    +0.000 C 
ATOM     21  C   UNL     1       7.136   6.194  16.962  0.00  0.00    +0.000 C 
ENDBRANCH  19  21
ENDBRANCH  18  19
ENDBRANCH  17  18
ENDBRANCH   1  17
TORSDOF 4
ENDMDL
MODEL 6
REMARK VINA RESULT:      -6.1      2.137      5.440
REMARK  Name = 
REMARK  6 active torsions:
REMARK  status: ('A' for Active; 'I' for Inactive)
REMARK    1  A    between atoms: C_1  and  C_2
REMARK    2  A    between atoms: C_2  and  C_3
REMARK    3  A    between atoms: C_3  and  O_4
REMARK    4  A    between atoms: O_4  and  C_5
REMARK    5  A    between atoms: C_5  and  N_6
REMARK    6  A    between atoms: N_11  and  C_12
REMARK                            x       y       z     vdW  Elec       q    Type
REMARK                         _______ _______ _______ _____ _____    ______ ____
ROOT
ATOM      1  N   UNL     1       2.834   7.379  18.266  0.00  0.00    +0.000 N 
ATOM      2  C   UNL     1       2.478   6.429  19.202  0.00  0.00    +0.000 A 
ATOM      3  N   UNL     1       2.850   5.130  19.036  0.00  0.00    +0.000 N 
ATOM      4  C   UNL     1       3.090   4.344  20.264  0.00  0.00    +0.000 C 
ATOM      5  C   UNL     1       3.817   3.024  19.883  0.00  0.00    +0.000 C 
ATOM      6  N   UNL     1       3.082   2.221  18.873  0.00  0.00    +0.000 NA
ATOM      7  C   UNL     1       3.857   1.053  18.463  0.00  0.00    +0.000 C 
ATOM      8  C   UNL     1       2.763   3.063  17.700  0.00  0.00    +0.000 C 
ATOM      9  C   UNL     1       2.016   4.356  18.091  0.00  0.00    +0.000 C 
ATOM     10  N   UNL     1       1.777   6.965  20.175  0.00  0.00    +0.000 NA
ATOM     11  C   UNL     1       1.565   8.274  19.795  0.00  0.00    +0.000 A 
ATOM     12  C   UNL     1       0.814   9.283  20.421  0.00  0.00    +0.000 A 
ATOM     13  C   UNL     1       0.723  10.540  19.809  0.00  0.00    +0.000 A 
ATOM     14  C   UNL     1       1.377  10.798  18.605  0.00  0.00    +0.000 A 
ATOM     15  C   UNL     1       2.135   9.811  17.971  0.00  0.00    +0.000 A 
ATOM     16  C   UNL     1       2.205   8.557  18.592  0.00  0.00    +0.000 A 
ENDROOT
BRANCH   1  17
ATOM     17  C   UNL     1       3.628   7.107  17.082  0.00  0.00    +0.000 C 
BRANCH  17  18
ATOM     18  O   UNL     1       5.020   7.208  17.381  0.00  0.00    +0.000 OA
BRANCH  18  19
ATOM     19  C   UNL     1       5.680   5.967  17.157  0.00  0.00    +0.000 C 
BRANCH  19  21
ATOM     20  C   UNL     1       6.047   4.275  15.337  0.00  0.00    +0.000 C 
ATOM     21  C   UNL     1       5.143   5.373  15.864  0.00  0.00    +0.000 C 
ENDBRANCH  19  21
ENDBRANCH  18  19
ENDBRANCH  17  18
ENDBRANCH   1  17
TORSDOF 4
ENDMDL
MODEL 7
REMARK VINA RESULT:      -5.9      1.957      4.583
REMARK  Name = 
REMARK  6 active torsions:
REMARK  status: ('A' for Active; 'I' for Inactive)
REMARK    1  A    between atoms: C_1  and  C_2
REMARK    2  A    between atoms: C_2  and  C_3
REMARK    3  A    between atoms: C_3  and  O_4
REMARK    4  A    between atoms: O_4  and  C_5
REMARK    5  A    between atoms: C_5  and  N_6
REMARK    6  A    between atoms: N_11  and  C_12
REMARK                            x       y       z     vdW  Elec       q    Type
REMARK                         _______ _______ _______ _____ _____    ______ ____
ROOT
ATOM      1  N   UNL     1       2.880   6.650  19.104  0.00  0.00    +0.000 N 
ATOM      2  C   UNL     1       3.410   7.222  17.966  0.00  0.00    +0.000 A 
ATOM      3  N   UNL     1       4.388   6.582  17.269  0.00  0.00    +0.000 N 
ATOM      4  C   UNL     1       4.424   6.809  15.809  0.00  0.00    +0.000 C 
ATOM      5  C   UNL     1       5.365   5.758  15.159  0.00  0.00    +0.000 C 
ATOM      6  N   UNL     1       6.736   5.766  15.731  0.00  0.00    +0.000 NA
ATOM      7  C   UNL     1       7.546   4.688  15.171  0.00  0.00    +0.000 C 
ATOM      8  C   UNL     1       6.664   5.643  17.203  0.00  0.00    +0.000 C 
ATOM      9  C   UNL     1       5.749   6.711  17.837  0.00  0.00    +0.000 C 
ATOM     10  N   UNL     1       2.851   8.385  17.719  0.00  0.00    +0.000 NA
ATOM     11  C   UNL     1       2.027   8.631  18.797  0.00  0.00    +0.000 A 
ATOM     12  C   UNL     1       1.246   9.761  19.094  0.00  0.00    +0.000 A 
ATOM     13  C   UNL     1       0.511   9.783  20.287  0.00  0.00    +0.000 A 
ATOM     14  C   UNL     1       0.537   8.700  21.163  0.00  0.00    +0.000 A 
ATOM     15  C   UNL     1       1.300   7.564  20.882  0.00  0.00    +0.000 A 
ATOM     16  C   UNL     1       2.036   7.564  19.690  0.00  0.00    +0.000 A 
ENDROOT
BRANCH   1  17
ATOM     17  C   UNL     1       3.272   5.356  19.631  0.00  0.00    +0.000 C 
BRANCH  17  18
ATOM     18  O   UNL     1       2.585   4.309  18.948  0.00  0.00    +0.000 OA
BRANCH  18  19
ATOM     19  C   UNL     1       1.409   3.927  19.652  0.00  0.00    +0.000 C 
BRANCH  19  21
ATOM     20  C   UNL     1       2.002   2.529  21.653  0.00  0.00    +0.000 C 
ATOM     21  C   UNL     1       1.727   3.930  21.140  0.00  0.00    +0.000 C 
ENDBRANCH  19  21
ENDBRANCH  18  19
ENDBRANCH  17  18
ENDBRANCH   1  17
TORSDOF 4
ENDMDL
MODEL 8
REMARK VINA RESULT:      -5.9      3.753      6.827
REMARK  Name = 
REMARK  6 active torsions:
REMARK  status: ('A' for Active; 'I' for Inactive)
REMARK    1  A    between atoms: C_1  and  C_2
REMARK    2  A    between atoms: C_2  and  C_3
REMARK    3  A    between atoms: C_3  and  O_4
REMARK    4  A    between atoms: O_4  and  C_5
REMARK    5  A    between atoms: C_5  and  N_6
REMARK    6  A    between atoms: N_11  and  C_12
REMARK                            x       y       z     vdW  Elec       q    Type
REMARK                         _______ _______ _______ _____ _____    ______ ____
ROOT
ATOM      1  N   UNL     1       1.694   8.175  20.176  0.00  0.00    +0.000 N 
ATOM      2  C   UNL     1       1.793   8.916  19.016  0.00  0.00    +0.000 A 
ATOM      3  N   UNL     1       1.409  10.222  19.003  0.00  0.00    +0.000 N 
ATOM      4  C   UNL     1       2.131  11.119  18.076  0.00  0.00    +0.000 C 
ATOM      5  C   UNL     1       1.798  12.592  18.439  0.00  0.00    +0.000 C 
ATOM      6  N   UNL     1       0.342  12.882  18.433  0.00  0.00    +0.000 NA
ATOM      7  C   UNL     1       0.074  14.243  18.891  0.00  0.00    +0.000 C 
ATOM      8  C   UNL     1      -0.367  11.905  19.285  0.00  0.00    +0.000 C 
ATOM      9  C   UNL     1      -0.049  10.446  18.895  0.00  0.00    +0.000 C 
ATOM     10  N   UNL     1       2.269   8.189  18.032  0.00  0.00    +0.000 NA
ATOM     11  C   UNL     1       2.362   6.908  18.535  0.00  0.00    +0.000 A 
ATOM     12  C   UNL     1       2.739   5.715  17.895  0.00  0.00    +0.000 A 
ATOM     13  C   UNL     1       2.721   4.519  18.625  0.00  0.00    +0.000 A 
ATOM     14  C   UNL     1       2.349   4.507  19.969  0.00  0.00    +0.000 A 
ATOM     15  C   UNL     1       1.979   5.683  20.624  0.00  0.00    +0.000 A 
ATOM     16  C   UNL     1       1.994   6.867  19.876  0.00  0.00    +0.000 A 
ENDROOT
BRANCH   1  17
ATOM     17  C   UNL     1       1.223   8.697  21.446  0.00  0.00    +0.000 C 
BRANCH  17  18
ATOM     18  O   UNL     1      -0.158   8.390  21.630  0.00  0.00    +0.000 OA
BRANCH  18  19
ATOM     19  C   UNL     1      -0.680   9.056  22.775  0.00  0.00    +0.000 C 
BRANCH  19  21
ATOM     20  C   UNL     1      -1.533  11.407  23.008  0.00  0.00    +0.000 C 
ATOM     21  C   UNL     1      -0.343  10.534  22.655  0.00  0.00    +0.000 C 
ENDBRANCH  19  21
ENDBRANCH  18  19
ENDBRANCH  17  18
ENDBRANCH   1  17
TORSDOF 4
ENDMDL
MODEL 9
REMARK VINA RESULT:      -5.8      5.633      9.473
REMARK  Name = 
REMARK  6 active torsions:
REMARK  status: ('A' for Active; 'I' for Inactive)
REMARK    1  A    between atoms: C_1  and  C_2
REMARK    2  A    between atoms: C_2  and  C_3
REMARK    3  A    between atoms: C_3  and  O_4
REMARK    4  A    between atoms: O_4  and  C_5
REMARK    5  A    between atoms: C_5  and  N_6
REMARK    6  A    between atoms: N_11  and  C_12
REMARK                            x       y       z     vdW  Elec       q    Type
REMARK                         _______ _______ _______ _____ _____    ______ ____
ROOT
ATOM      1  N   UNL     1      -0.053  10.683  19.522  0.00  0.00    +0.000 N 
ATOM      2  C   UNL     1      -0.103  10.640  20.901  0.00  0.00    +0.000 A 
ATOM      3  N   UNL     1      -0.743  11.620  21.594  0.00  0.00    +0.000 N 
ATOM      4  C   UNL     1      -1.373  11.228  22.873  0.00  0.00    +0.000 C 
ATOM      5  C   UNL     1      -2.321  12.368  23.337  0.00  0.00    +0.000 C 
ATOM      6  N   UNL     1      -1.640  13.682  23.461  0.00  0.00    +0.000 NA
ATOM      7  C   UNL     1      -2.593  14.740  23.787  0.00  0.00    +0.000 C 
ATOM      8  C   UNL     1      -0.931  13.999  22.203  0.00  0.00    +0.000 C 
ATOM      9  C   UNL     1       0.028  12.870  21.769  0.00  0.00    +0.000 C 
ATOM     10  N   UNL     1       0.531   9.585  21.362  0.00  0.00    +0.000 NA
ATOM     11  C   UNL     1       1.114   8.997  20.260  0.00  0.00    +0.000 A 
ATOM     12  C   UNL     1       1.968   7.884  20.179  0.00  0.00    +0.000 A 
ATOM     13  C   UNL     1       2.463   7.499  18.926  0.00  0.00    +0.000 A 
ATOM     14  C   UNL     1       2.108   8.193  17.771  0.00  0.00    +0.000 A 
ATOM     15  C   UNL     1       1.253   9.297  17.830  0.00  0.00    +0.000 A 
ATOM     16  C   UNL     1       0.777   9.675  19.092  0.00  0.00    +0.000 A 
ENDROOT
BRANCH   1  17
ATOM     17  C   UNL     1      -0.675  11.713  18.711  0.00  0.00    +0.000 C 
BRANCH  17  18
ATOM     18  O   UNL     1      -2.020  11.358  18.397  0.00  0.00    +0.000 OA
BRANCH  18  19
ATOM     19  C   UNL     1      -2.290  11.552  17.014  0.00  0.00    +0.000 C 
BRANCH  19  21
ATOM     20  C   UNL     1      -2.892  10.198  14.985  0.00  0.00    +0.000 C 
ATOM     21  C   UNL     1      -3.006  10.315  16.494  0.00  0.00    +0.000 C 
ENDBRANCH  19  21
ENDBRANCH  18  19
ENDBRANCH  17  18
ENDBRANCH   1  17
TORSDOF 4
ENDMDL
