MODEL 1
REMARK VINA RESULT:      -7.8      0.000      0.000
REMARK  Name = 
REMARK  6 active torsions:
REMARK  status: ('A' for Active; 'I' for Inactive)
REMARK    1  A    between atoms: C_2  and  O_3
REMARK    2  A    between atoms: C_2  and  C_4
REMARK    3  A    between atoms: C_4  and  C_5
REMARK    4  A    between atoms: C_10  and  O_11
REMARK    5  A    between atoms: O_11  and  C_12
REMARK    6  A    between atoms: C_17  and  C_18
REMARK                            x       y       z     vdW  Elec       q    Type
REMARK                         _______ _______ _______ _____ _____    ______ ____
ROOT
ATOM      1  C   UNL     1       5.934   4.848  16.705  0.00  0.00    +0.000 A 
ATOM      2  C   UNL     1       7.275   4.512  16.984  0.00  0.00    +0.000 A 
ATOM      3  C   UNL     1       7.852   4.808  18.220  0.00  0.00    +0.000 A 
ATOM      4  C   UNL     1       7.120   5.504  19.173  0.00  0.00    +0.000 A 
ATOM      5  C   UNL     1       5.793   5.840  18.914  0.00  0.00    +0.000 A 
ATOM      6  C   UNL     1       5.161   5.423  17.730  0.00  0.00    +0.000 A 
ENDROOT
BRANCH   1   7
ATOM      7  C   UNL     1       5.425   4.618  15.300  0.00  0.00    +0.000 C 
BRANCH   7   9
ATOM      8  O   UNL     1       7.291   5.321  13.937  0.00  0.00    +0.000 OA
ATOM      9  C   UNL     1       6.480   4.452  14.233  0.00  0.00    +0.000 C 
BRANCH   9  10
ATOM     10  O   UNL     1       6.419   3.285  13.549  0.00  0.00    +0.000 OA
ATOM     11  H   UNL     1       5.705   2.699  13.860  0.00  0.00    +0.000 HD
ENDBRANCH   9  10
ENDBRANCH   7   9
ENDBRANCH   1   7
BRANCH   6  12
ATOM     12  O   UNL     1       3.782   5.537  17.566  0.00  0.00    +0.000 OA
BRANCH  12  13
ATOM     13  C   UNL     1       2.979   5.112  18.621  0.00  0.00    +0.000 A 
ATOM     14  C   UNL     1       2.698   5.972  19.701  0.00  0.00    +0.000 A 
ATOM     15  C   UNL     1       1.731   5.641  20.648  0.00  0.00    +0.000 A 
ATOM     16  C   UNL     1       1.090   4.411  20.583  0.00  0.00    +0.000 A 
ATOM     17  C   UNL     1       1.453   3.500  19.591  0.00  0.00    +0.000 A 
ATOM     18  C   UNL     1       2.412   3.829  18.604  0.00  0.00    +0.000 A 
BRANCH  18  19
ATOM     19  C   UNL     1       2.775   2.756  17.613  0.00  0.00    +0.000 C 
ATOM     20  F   UNL     1       2.044   1.613  17.687  0.00  0.00    +0.000 F 
ATOM     21  F   UNL     1       2.637   3.197  16.327  0.00  0.00    +0.000 F 
ATOM     22  F   UNL     1       4.080   2.372  17.722  0.00  0.00    +0.000 F 
ENDBRANCH  18  19
ENDBRANCH  12  13
ENDBRANCH   6  12
TORSDOF 6
ENDMDL
MODEL 2
REMARK VINA RESULT:      -7.7      2.222      3.447
REMARK  Name = 
REMARK  6 active torsions:
REMARK  status: ('A' for Active; 'I' for Inactive)
REMARK    1  A    between atoms: C_2  and  O_3
REMARK    2  A    between atoms: C_2  and  C_4
REMARK    3  A    between atoms: C_4  and  C_5
REMARK    4  A    between atoms: C_10  and  O_11
REMARK    5  A    between atoms: O_11  and  C_12
REMARK    6  A    between atoms: C_17  and  C_18
REMARK                            x       y       z     vdW  Elec       q    Type
REMARK                         _______ _______ _______ _____ _____    ______ ____
ROOT
ATOM      1  C   UNL     1       6.738   4.663  17.186  0.00  0.00    +0.000 A 
ATOM      2  C   UNL     1       6.987   5.137  15.882  0.00  0.00    +0.000 A 
ATOM      3  C   UNL     1       6.013   5.055  14.886  0.00  0.00    +0.000 A 
ATOM      4  C   UNL     1       4.799   4.438  15.158  0.00  0.00    +0.000 A 
ATOM      5  C   UNL     1       4.537   3.966  16.441  0.00  0.00    +0.000 A 
ATOM      6  C   UNL     1       5.455   4.171  17.487  0.00  0.00    +0.000 A 
ENDROOT
BRANCH   1   7
ATOM      7  C   UNL     1       7.887   4.661  18.170  0.00  0.00    +0.000 C 
BRANCH   7   9
ATOM      8  O   UNL     1       8.156   6.993  18.741  0.00  0.00    +0.000 OA
ATOM      9  C   UNL     1       7.955   5.841  19.109  0.00  0.00    +0.000 C 
BRANCH   9  10
ATOM     10  O   UNL     1       7.861   5.529  20.423  0.00  0.00    +0.000 OA
ATOM     11  H   UNL     1       7.256   6.117  20.911  0.00  0.00    +0.000 HD
ENDBRANCH   9  10
ENDBRANCH   7   9
ENDBRANCH   1   7
BRANCH   6  12
ATOM     12  O   UNL     1       5.107   3.928  18.814  0.00  0.00    +0.000 OA
BRANCH  12  13
ATOM     13  C   UNL     1       4.040   4.655  19.335  0.00  0.00    +0.000 A 
ATOM     14  C   UNL     1       3.987   6.055  19.190  0.00  0.00    +0.000 A 
ATOM     15  C   UNL     1       2.833   6.766  19.513  0.00  0.00    +0.000 A 
ATOM     16  C   UNL     1       1.743   6.104  20.063  0.00  0.00    +0.000 A 
ATOM     17  C   UNL     1       1.833   4.738  20.330  0.00  0.00    +0.000 A 
ATOM     18  C   UNL     1       2.986   3.995  19.983  0.00  0.00    +0.000 A 
BRANCH  18  19
ATOM     19  C   UNL     1       3.007   2.538  20.364  0.00  0.00    +0.000 C 
ATOM     20  F   UNL     1       4.075   2.138  21.103  0.00  0.00    +0.000 F 
ATOM     21  F   UNL     1       1.905   2.197  21.096  0.00  0.00    +0.000 F 
ATOM     22  F   UNL     1       2.980   1.718  19.273  0.00  0.00    +0.000 F 
ENDBRANCH  18  19
ENDBRANCH  12  13
ENDBRANCH   6  12
TORSDOF 6
ENDMDL
MODEL 3
REMARK VINA RESULT:      -7.6      1.960      3.333
REMARK  Name = 
REMARK  6 active torsions:
REMARK  status: ('A' for Active; 'I' for Inactive)
REMARK    1  A    between atoms: C_2  and  O_3
REMARK    2  A    between atoms: C_2  and  C_4
REMARK    3  A    between atoms: C_4  and  C_5
REMARK    4  A    between atoms: C_10  and  O_11
REMARK    5  A    between atoms: O_11  and  C_12
REMARK    6  A    between atoms: C_17  and  C_18
REMARK                            x       y       z     vdW  Elec       q    Type
REMARK                         _______ _______ _______ _____ _____    ______ ____
ROOT
ATOM      1  C   UNL     1       7.024   4.543  16.613  0.00  0.00    +0.000 A 
ATOM      2  C   UNL     1       7.592   4.956  15.390  0.00  0.00    +0.000 A 
ATOM      3  C   UNL     1       6.888   4.841  14.190  0.00  0.00    +0.000 A 
ATOM      4  C   UNL     1       5.632   4.249  14.183  0.00  0.00    +0.000 A 
ATOM      5  C   UNL     1       5.056   3.838  15.382  0.00  0.00    +0.000 A 
ATOM      6  C   UNL     1       5.696   4.079  16.611  0.00  0.00    +0.000 A 
ENDROOT
BRANCH   1   7
ATOM      7  C   UNL     1       7.899   4.573  17.846  0.00  0.00    +0.000 C 
BRANCH   7   9
ATOM      8  O   UNL     1       8.087   6.853  18.621  0.00  0.00    +0.000 OA
ATOM      9  C   UNL     1       7.660   5.718  18.799  0.00  0.00    +0.000 C 
BRANCH   9  10
ATOM     10  O   UNL     1       6.998   5.387  19.933  0.00  0.00    +0.000 OA
ATOM     11  H   UNL     1       7.039   4.434  20.133  0.00  0.00    +0.000 HD
ENDBRANCH   9  10
ENDBRANCH   7   9
ENDBRANCH   1   7
BRANCH   6  12
ATOM     12  O   UNL     1       5.031   3.899  17.822  0.00  0.00    +0.000 OA
BRANCH  12  13
ATOM     13  C   UNL     1       3.942   4.727  18.078  0.00  0.00    +0.000 A 
ATOM     14  C   UNL     1       4.106   6.124  18.159  0.00  0.00    +0.000 A 
ATOM     15  C   UNL     1       3.002   6.974  18.200  0.00  0.00    +0.000 A 
ATOM     16  C   UNL     1       1.720   6.443  18.245  0.00  0.00    +0.000 A 
ATOM     17  C   UNL     1       1.552   5.059  18.294  0.00  0.00    +0.000 A 
ATOM     18  C   UNL     1       2.658   4.180  18.225  0.00  0.00    +0.000 A 
BRANCH  18  19
ATOM     19  C   UNL     1       2.376   2.706  18.343  0.00  0.00    +0.000 C 
ATOM     20  F   UNL     1       2.761   1.947  17.284  0.00  0.00    +0.000 F 
ATOM     21  F   UNL     1       2.999   2.163  19.430  0.00  0.00    +0.000 F 
ATOM     22  F   UNL     1       1.049   2.447  18.524  0.00  0.00    +0.000 F 
ENDBRANCH  18  19
ENDBRANCH  12  13
ENDBRANCH   6  12
TORSDOF 6
ENDMDL
MODEL 4
REMARK VINA RESULT:      -7.6      2.532      3.861
REMARK  Name = 
REMARK  6 active torsions:
REMARK  status: ('A' for Active; 'I' for Inactive)
REMARK    1  A    between atoms: C_2  and  O_3
REMARK    2  A    between atoms: C_2  and  C_4
REMARK    3  A    between atoms: C_4  and  C_5
REMARK    4  A    between atoms: C_10  and  O_11
REMARK    5  A    between atoms: O_11  and  C_12
REMARK    6  A    between atoms: C_17  and  C_18
REMARK                            x       y       z     vdW  Elec       q    Type
REMARK                         _______ _______ _______ _____ _____    ______ ____
ROOT
ATOM      1  C   UNL     1       6.943   4.621  16.939  0.00  0.00    +0.000 A 
ATOM      2  C   UNL     1       7.370   5.144  15.701  0.00  0.00    +0.000 A 
ATOM      3  C   UNL     1       6.549   5.096  14.574  0.00  0.00    +0.000 A 
ATOM      4  C   UNL     1       5.315   4.464  14.647  0.00  0.00    +0.000 A 
ATOM      5  C   UNL     1       4.877   3.944  15.862  0.00  0.00    +0.000 A 
ATOM      6  C   UNL     1       5.634   4.113  17.035  0.00  0.00    +0.000 A 
ENDROOT
BRANCH   1   7
ATOM      7  C   UNL     1       7.940   4.588  18.076  0.00  0.00    +0.000 C 
BRANCH   7   9
ATOM      8  O   UNL     1       7.228   5.498  20.197  0.00  0.00    +0.000 OA
ATOM      9  C   UNL     1       7.788   5.667  19.120  0.00  0.00    +0.000 C 
BRANCH   9  10
ATOM     10  O   UNL     1       8.247   6.886  18.750  0.00  0.00    +0.000 OA
ATOM     11  H   UNL     1       9.199   6.888  18.545  0.00  0.00    +0.000 HD
ENDBRANCH   9  10
ENDBRANCH   7   9
ENDBRANCH   1   7
BRANCH   6  12
ATOM     12  O   UNL     1       5.104   3.820  18.289  0.00  0.00    +0.000 OA
BRANCH  12  13
ATOM     13  C   UNL     1       3.752   3.492  18.346  0.00  0.00    +0.000 A 
ATOM     14  C   UNL     1       3.324   2.169  18.123  0.00  0.00    +0.000 A 
ATOM     15  C   UNL     1       2.011   1.786  18.387  0.00  0.00    +0.000 A 
ATOM     16  C   UNL     1       1.082   2.733  18.797  0.00  0.00    +0.000 A 
ATOM     17  C   UNL     1       1.465   4.070  18.897  0.00  0.00    +0.000 A 
ATOM     18  C   UNL     1       2.800   4.474  18.661  0.00  0.00    +0.000 A 
BRANCH  18  19
ATOM     19  C   UNL     1       3.099   5.947  18.741  0.00  0.00    +0.000 C 
ATOM     20  F   UNL     1       3.398   6.551  17.560  0.00  0.00    +0.000 F 
ATOM     21  F   UNL     1       2.042   6.645  19.253  0.00  0.00    +0.000 F 
ATOM     22  F   UNL     1       4.145   6.219  19.573  0.00  0.00    +0.000 F 
ENDBRANCH  18  19
ENDBRANCH  12  13
ENDBRANCH   6  12
TORSDOF 6
ENDMDL
MODEL 5
REMARK VINA RESULT:      -7.5      0.175      1.089
REMARK  Name = 
REMARK  6 active torsions:
REMARK  status: ('A' for Active; 'I' for Inactive)
REMARK    1  A    between atoms: C_2  and  O_3
REMARK    2  A    between atoms: C_2  and  C_4
REMARK    3  A    between atoms: C_4  and  C_5
REMARK    4  A    between atoms: C_10  and  O_11
REMARK    5  A    between atoms: O_11  and  C_12
REMARK    6  A    between atoms: C_17  and  C_18
REMARK                            x       y       z     vdW  Elec       q    Type
REMARK                         _______ _______ _______ _____ _____    ______ ____
ROOT
ATOM      1  C   UNL     1       5.874   4.743  16.595  0.00  0.00    +0.000 A 
ATOM      2  C   UNL     1       7.214   4.392  16.858  0.00  0.00    +0.000 A 
ATOM      3  C   UNL     1       7.831   4.745  18.059  0.00  0.00    +0.000 A 
ATOM      4  C   UNL     1       7.141   5.512  18.988  0.00  0.00    +0.000 A 
ATOM      5  C   UNL     1       5.816   5.865  18.745  0.00  0.00    +0.000 A 
ATOM      6  C   UNL     1       5.142   5.395  17.604  0.00  0.00    +0.000 A 
ENDROOT
BRANCH   1   7
ATOM      7  C   UNL     1       5.321   4.445  15.218  0.00  0.00    +0.000 C 
BRANCH   7   9
ATOM      8  O   UNL     1       6.420   3.568  13.254  0.00  0.00    +0.000 OA
ATOM      9  C   UNL     1       6.320   4.462  14.087  0.00  0.00    +0.000 C 
BRANCH   9  10
ATOM     10  O   UNL     1       7.175   5.511  14.098  0.00  0.00    +0.000 OA
ATOM     11  H   UNL     1       7.314   5.880  14.989  0.00  0.00    +0.000 HD
ENDBRANCH   9  10
ENDBRANCH   7   9
ENDBRANCH   1   7
BRANCH   6  12
ATOM     12  O   UNL     1       3.762   5.533  17.470  0.00  0.00    +0.000 OA
BRANCH  12  13
ATOM     13  C   UNL     1       2.977   5.149  18.554  0.00  0.00    +0.000 A 
ATOM     14  C   UNL     1       2.719   6.048  19.606  0.00  0.00    +0.000 A 
ATOM     15  C   UNL     1       1.768   5.755  20.582  0.00  0.00    +0.000 A 
ATOM     16  C   UNL     1       1.121   4.527  20.572  0.00  0.00    +0.000 A 
ATOM     17  C   UNL     1       1.463   3.579  19.608  0.00  0.00    +0.000 A 
ATOM     18  C   UNL     1       2.404   3.869  18.593  0.00  0.00    +0.000 A 
BRANCH  18  19
ATOM     19  C   UNL     1       2.747   2.760  17.634  0.00  0.00    +0.000 C 
ATOM     20  F   UNL     1       4.029   2.311  17.686  0.00  0.00    +0.000 F 
ATOM     21  F   UNL     1       1.964   1.660  17.841  0.00  0.00    +0.000 F 
ATOM     22  F   UNL     1       2.529   3.114  16.334  0.00  0.00    +0.000 F 
ENDBRANCH  18  19
ENDBRANCH  12  13
ENDBRANCH   6  12
TORSDOF 6
ENDMDL
MODEL 6
REMARK VINA RESULT:      -7.5      2.001      2.627
REMARK  Name = 
REMARK  6 active torsions:
REMARK  status: ('A' for Active; 'I' for Inactive)
REMARK    1  A    between atoms: C_2  and  O_3
REMARK    2  A    between atoms: C_2  and  C_4
REMARK    3  A    between atoms: C_4  and  C_5
REMARK    4  A    between atoms: C_10  and  O_11
REMARK    5  A    between atoms: O_11  and  C_12
REMARK    6  A    between atoms: C_17  and  C_18
REMARK                            x       y       z     vdW  Elec       q    Type
REMARK                         _______ _______ _______ _____ _____    ______ ____
ROOT
ATOM      1  C   UNL     1       5.913   4.781  16.376  0.00  0.00    +0.000 A 
ATOM      2  C   UNL     1       7.244   4.412  16.661  0.00  0.00    +0.000 A 
ATOM      3  C   UNL     1       7.805   4.644  17.918  0.00  0.00    +0.000 A 
ATOM      4  C   UNL     1       7.069   5.310  18.888  0.00  0.00    +0.000 A 
ATOM      5  C   UNL     1       5.753   5.679  18.624  0.00  0.00    +0.000 A 
ATOM      6  C   UNL     1       5.132   5.324  17.413  0.00  0.00    +0.000 A 
ENDROOT
BRANCH   1   7
ATOM      7  C   UNL     1       5.423   4.621  14.954  0.00  0.00    +0.000 C 
BRANCH   7   9
ATOM      8  O   UNL     1       7.328   5.263  13.614  0.00  0.00    +0.000 OA
ATOM      9  C   UNL     1       6.490   4.417  13.906  0.00  0.00    +0.000 C 
BRANCH   9  10
ATOM     10  O   UNL     1       6.411   3.245  13.233  0.00  0.00    +0.000 OA
ATOM     11  H   UNL     1       6.886   2.519  13.678  0.00  0.00    +0.000 HD
ENDBRANCH   9  10
ENDBRANCH   7   9
ENDBRANCH   1   7
BRANCH   6  12
ATOM     12  O   UNL     1       3.759   5.467  17.233  0.00  0.00    +0.000 OA
BRANCH  12  13
ATOM     13  C   UNL     1       2.937   4.511  17.824  0.00  0.00    +0.000 A 
ATOM     14  C   UNL     1       2.796   3.233  17.249  0.00  0.00    +0.000 A 
ATOM     15  C   UNL     1       2.154   2.204  17.937  0.00  0.00    +0.000 A 
ATOM     16  C   UNL     1       1.570   2.456  19.171  0.00  0.00    +0.000 A 
ATOM     17  C   UNL     1       1.594   3.750  19.690  0.00  0.00    +0.000 A 
ATOM     18  C   UNL     1       2.264   4.800  19.020  0.00  0.00    +0.000 A 
BRANCH  18  19
ATOM     19  C   UNL     1       2.183   6.172  19.635  0.00  0.00    +0.000 C 
ATOM     20  F   UNL     1       1.284   6.312  20.645  0.00  0.00    +0.000 F 
ATOM     21  F   UNL     1       3.385   6.558  20.157  0.00  0.00    +0.000 F 
ATOM     22  F   UNL     1       1.866   7.131  18.718  0.00  0.00    +0.000 F 
ENDBRANCH  18  19
ENDBRANCH  12  13
ENDBRANCH   6  12
TORSDOF 6
ENDMDL
MODEL 7
REMARK VINA RESULT:      -7.4      2.162      5.051
REMARK  Name = 
REMARK  6 active torsions:
REMARK  status: ('A' for Active; 'I' for Inactive)
REMARK    1  A    between atoms: C_2  and  O_3
REMARK    2  A    between atoms: C_2  and  C_4
REMARK    3  A    between atoms: C_4  and  C_5
REMARK    4  A    between atoms: C_10  and  O_11
REMARK    5  A    between atoms: O_11  and  C_12
REMARK    6  A    between atoms: C_17  and  C_18
REMARK                            x       y       z     vdW  Elec       q    Type
REMARK                         _______ _______ _______ _____ _____    ______ ____
ROOT
ATOM      1  C   UNL     1       2.579   4.071  18.686  0.00  0.00    +0.000 A 
ATOM      2  C   UNL     1       1.542   3.729  19.578  0.00  0.00    +0.000 A 
ATOM      3  C   UNL     1       1.034   4.659  20.486  0.00  0.00    +0.000 A 
ATOM      4  C   UNL     1       1.599   5.925  20.564  0.00  0.00    +0.000 A 
ATOM      5  C   UNL     1       2.622   6.279  19.689  0.00  0.00    +0.000 A 
ATOM      6  C   UNL     1       3.043   5.399  18.677  0.00  0.00    +0.000 A 
ENDROOT
BRANCH   1   7
ATOM      7  C   UNL     1       3.167   2.971  17.830  0.00  0.00    +0.000 C 
BRANCH   7   9
ATOM      8  O   UNL     1       3.842   0.743  18.472  0.00  0.00    +0.000 OA
ATOM      9  C   UNL     1       4.016   1.953  18.552  0.00  0.00    +0.000 C 
BRANCH   9  10
ATOM     10  O   UNL     1       4.951   2.476  19.380  0.00  0.00    +0.000 OA
ATOM     11  H   UNL     1       5.827   2.557  18.960  0.00  0.00    +0.000 HD
ENDBRANCH   9  10
ENDBRANCH   7   9
ENDBRANCH   1   7
BRANCH   6  12
ATOM     12  O   UNL     1       3.884   5.824  17.650  0.00  0.00    +0.000 OA
BRANCH  12  13
ATOM     13  C   UNL     1       5.251   5.625  17.824  0.00  0.00    +0.000 A 
ATOM     14  C   UNL     1       5.845   5.793  19.090  0.00  0.00    +0.000 A 
ATOM     15  C   UNL     1       7.159   5.392  19.324  0.00  0.00    +0.000 A 
ATOM     16  C   UNL     1       7.928   4.896  18.280  0.00  0.00    +0.000 A 
ATOM     17  C   UNL     1       7.389   4.845  16.995  0.00  0.00    +0.000 A 
ATOM     18  C   UNL     1       6.049   5.221  16.743  0.00  0.00    +0.000 A 
BRANCH  18  19
ATOM     19  C   UNL     1       5.579   5.184  15.313  0.00  0.00    +0.000 C 
ATOM     20  F   UNL     1       4.650   4.235  15.023  0.00  0.00    +0.000 F 
ATOM     21  F   UNL     1       5.019   6.373  14.940  0.00  0.00    +0.000 F 
ATOM     22  F   UNL     1       6.605   4.981  14.437  0.00  0.00    +0.000 F 
ENDBRANCH  18  19
ENDBRANCH  12  13
ENDBRANCH   6  12
TORSDOF 6
ENDMDL
MODEL 8
REMARK VINA RESULT:      -7.4      1.939      3.271
REMARK  Name = 
REMARK  6 active torsions:
REMARK  status: ('A' for Active; 'I' for Inactive)
REMARK    1  A    between atoms: C_2  and  O_3
REMARK    2  A    between atoms: C_2  and  C_4
REMARK    3  A    between atoms: C_4  and  C_5
REMARK    4  A    between atoms: C_10  and  O_11
REMARK    5  A    between atoms: O_11  and  C_12
REMARK    6  A    between atoms: C_17  and  C_18
REMARK                            x       y       z     vdW  Elec       q    Type
REMARK                         _______ _______ _______ _____ _____    ______ ____
ROOT
ATOM      1  C   UNL     1       7.025   4.530  16.614  0.00  0.00    +0.000 A 
ATOM      2  C   UNL     1       7.606   4.968  15.406  0.00  0.00    +0.000 A 
ATOM      3  C   UNL     1       6.916   4.873  14.197  0.00  0.00    +0.000 A 
ATOM      4  C   UNL     1       5.662   4.278  14.164  0.00  0.00    +0.000 A 
ATOM      5  C   UNL     1       5.073   3.843  15.349  0.00  0.00    +0.000 A 
ATOM      6  C   UNL     1       5.699   4.063  16.589  0.00  0.00    +0.000 A 
ENDROOT
BRANCH   1   7
ATOM      7  C   UNL     1       7.886   4.540  17.858  0.00  0.00    +0.000 C 
BRANCH   7   9
ATOM      8  O   UNL     1       7.257   5.490  19.988  0.00  0.00    +0.000 OA
ATOM      9  C   UNL     1       7.628   5.663  18.833  0.00  0.00    +0.000 C 
BRANCH   9  10
ATOM     10  O   UNL     1       7.752   6.907  18.314  0.00  0.00    +0.000 OA
ATOM     11  H   UNL     1       7.212   7.570  18.782  0.00  0.00    +0.000 HD
ENDBRANCH   9  10
ENDBRANCH   7   9
ENDBRANCH   1   7
BRANCH   6  12
ATOM     12  O   UNL     1       5.021   3.858  17.788  0.00  0.00    +0.000 OA
BRANCH  12  13
ATOM     13  C   UNL     1       3.957   4.711  18.071  0.00  0.00    +0.000 A 
ATOM     14  C   UNL     1       4.156   6.103  18.156  0.00  0.00    +0.000 A 
ATOM     15  C   UNL     1       3.075   6.979  18.223  0.00  0.00    +0.000 A 
ATOM     16  C   UNL     1       1.781   6.479  18.291  0.00  0.00    +0.000 A 
ATOM     17  C   UNL     1       1.581   5.099  18.337  0.00  0.00    +0.000 A 
ATOM     18  C   UNL     1       2.664   4.194  18.241  0.00  0.00    +0.000 A 
BRANCH  18  19
ATOM     19  C   UNL     1       2.348   2.727  18.358  0.00  0.00    +0.000 C 
ATOM     20  F   UNL     1       1.050   2.423  18.622  0.00  0.00    +0.000 F 
ATOM     21  F   UNL     1       2.654   2.057  17.207  0.00  0.00    +0.000 F 
ATOM     22  F   UNL     1       3.080   2.116  19.334  0.00  0.00    +0.000 F 
ENDBRANCH  18  19
ENDBRANCH  12  13
ENDBRANCH   6  12
TORSDOF 6
ENDMDL
MODEL 9
REMARK VINA RESULT:      -7.4      1.536      1.933
REMARK  Name = 
REMARK  6 active torsions:
REMARK  status: ('A' for Active; 'I' for Inactive)
REMARK    1  A    between atoms: C_2  and  O_3
REMARK    2  A    between atoms: C_2  and  C_4
REMARK    3  A    between atoms: C_4  and  C_5
REMARK    4  A    between atoms: C_10  and  O_11
REMARK    5  A    between atoms: O_11  and  C_12
REMARK    6  A    between atoms: C_17  and  C_18
REMARK                            x       y       z     vdW  Elec       q    Type
REMARK                         _______ _______ _______ _____ _____    ______ ____
ROOT
ATOM      1  C   UNL     1       6.091   5.052  16.984  0.00  0.00    +0.000 A 
ATOM      2  C   UNL     1       7.121   6.010  17.079  0.00  0.00    +0.000 A 
ATOM      3  C   UNL     1       7.674   6.358  18.312  0.00  0.00    +0.000 A 
ATOM      4  C   UNL     1       7.160   5.806  19.477  0.00  0.00    +0.000 A 
ATOM      5  C   UNL     1       6.143   4.857  19.402  0.00  0.00    +0.000 A 
ATOM      6  C   UNL     1       5.678   4.395  18.158  0.00  0.00    +0.000 A 
ENDROOT
BRANCH   1   7
ATOM      7  C   UNL     1       5.452   4.831  15.631  0.00  0.00    +0.000 C 
BRANCH   7   9
ATOM      8  O   UNL     1       7.146   5.327  13.983  0.00  0.00    +0.000 OA
ATOM      9  C   UNL     1       6.396   4.506  14.499  0.00  0.00    +0.000 C 
BRANCH   9  10
ATOM     10  O   UNL     1       6.302   3.243  14.023  0.00  0.00    +0.000 OA
ATOM     11  H   UNL     1       5.981   3.206  13.103  0.00  0.00    +0.000 HD
ENDBRANCH   9  10
ENDBRANCH   7   9
ENDBRANCH   1   7
BRANCH   6  12
ATOM     12  O   UNL     1       4.846   3.282  18.063  0.00  0.00    +0.000 OA
BRANCH  12  13
ATOM     13  C   UNL     1       3.846   3.153  19.023  0.00  0.00    +0.000 A 
ATOM     14  C   UNL     1       4.079   2.433  20.211  0.00  0.00    +0.000 A 
ATOM     15  C   UNL     1       3.170   2.476  21.266  0.00  0.00    +0.000 A 
ATOM     16  C   UNL     1       1.975   3.168  21.122  0.00  0.00    +0.000 A 
ATOM     17  C   UNL     1       1.678   3.778  19.903  0.00  0.00    +0.000 A 
ATOM     18  C   UNL     1       2.600   3.768  18.831  0.00  0.00    +0.000 A 
BRANCH  18  19
ATOM     19  C   UNL     1       2.161   4.405  17.539  0.00  0.00    +0.000 C 
ATOM     20  F   UNL     1       2.465   3.712  16.409  0.00  0.00    +0.000 F 
ATOM     21  F   UNL     1       0.807   4.586  17.505  0.00  0.00    +0.000 F 
ATOM     22  F   UNL     1       2.694   5.649  17.368  0.00  0.00    +0.000 F 
ENDBRANCH  18  19
ENDBRANCH  12  13
ENDBRANCH   6  12
TORSDOF 6
ENDMDL
