MODEL 1
REMARK VINA RESULT:      -9.1      0.000      0.000
REMARK  Name = 
REMARK  4 active torsions:
REMARK  status: ('A' for Active; 'I' for Inactive)
REMARK    1  A    between atoms: C_1  and  C_2
REMARK    2  A    between atoms: N_4  and  C_5
REMARK    3  A    between atoms: C_9  and  C_10
REMARK    4  A    between atoms: C_16  and  C_17
REMARK                            x       y       z     vdW  Elec       q    Type
REMARK                         _______ _______ _______ _____ _____    ______ ____
ROOT
ATOM      1  C   UNL     1       4.497   3.827  19.090  0.00  0.00    +0.000 A 
ATOM      2  C   UNL     1       4.294   2.623  19.751  0.00  0.00    +0.000 A 
ATOM      3  N   UNL     1       3.214   2.665  20.590  0.00  0.00    +0.000 NA
ATOM      4  C   UNL     1       2.733   3.879  20.453  0.00  0.00    +0.000 A 
ATOM      5  C   UNL     1       1.606   4.487  21.043  0.00  0.00    +0.000 A 
ATOM      6  C   UNL     1       1.302   5.753  20.737  0.00  0.00    +0.000 A 
ATOM      7  C   UNL     1       2.199   6.470  19.780  0.00  0.00    +0.000 A 
ATOM      8  N   UNL     1       3.232   5.935  19.197  0.00  0.00    +0.000 NA
ATOM      9  N   UNL     1       3.474   4.636  19.560  0.00  0.00    +0.000 N 
ENDROOT
BRANCH   1  14
ATOM     10  C   UNL     1       6.397   4.079  15.797  0.00  0.00    +0.000 A 
ATOM     11  C   UNL     1       7.473   4.867  16.200  0.00  0.00    +0.000 A 
ATOM     12  C   UNL     1       7.572   5.315  17.518  0.00  0.00    +0.000 A 
ATOM     13  C   UNL     1       6.596   4.966  18.446  0.00  0.00    +0.000 A 
ATOM     14  C   UNL     1       5.496   4.181  18.074  0.00  0.00    +0.000 A 
ATOM     15  C   UNL     1       5.398   3.764  16.734  0.00  0.00    +0.000 A 
BRANCH  10  19
ATOM     16  C   UNL     1       6.331   3.456  12.075  0.00  0.00    +0.000 C 
ATOM     17  C   UNL     1       6.724   4.196  13.327  0.00  0.00    +0.000 C 
ATOM     18  O   UNL     1       7.384   5.227  13.255  0.00  0.00    +0.000 OA
ATOM     19  N   UNL     1       6.260   3.584  14.478  0.00  0.00    +0.000 N 
ATOM     20  H   UNL     1       5.879   2.651  14.387  0.00  0.00    +0.000 HD
ENDBRANCH  10  19
ENDBRANCH   1  14
BRANCH   7  21
ATOM     21  C   UNL     1       1.861   7.885  19.475  0.00  0.00    +0.000 A 
ATOM     22  C   UNL     1       2.087   8.472  18.227  0.00  0.00    +0.000 A 
ATOM     23  C   UNL     1       1.731   9.803  18.022  0.00  0.00    +0.000 A 
ATOM     24  C   UNL     1       1.150  10.502  19.068  0.00  0.00    +0.000 A 
ATOM     25  N   UNL     1       0.899   9.963  20.279  0.00  0.00    +0.000 NA
ATOM     26  C   UNL     1       1.256   8.665  20.456  0.00  0.00    +0.000 A 
ENDBRANCH   7  21
TORSDOF 3
ENDMDL
MODEL 2
REMARK VINA RESULT:      -8.9      0.735      1.054
REMARK  Name = 
REMARK  4 active torsions:
REMARK  status: ('A' for Active; 'I' for Inactive)
REMARK    1  A    between atoms: C_1  and  C_2
REMARK    2  A    between atoms: N_4  and  C_5
REMARK    3  A    between atoms: C_9  and  C_10
REMARK    4  A    between atoms: C_16  and  C_17
REMARK                            x       y       z     vdW  Elec       q    Type
REMARK                         _______ _______ _______ _____ _____    ______ ____
ROOT
ATOM      1  C   UNL     1       4.540   3.949  18.816  0.00  0.00    +0.000 A 
ATOM      2  C   UNL     1       4.419   2.769  19.537  0.00  0.00    +0.000 A 
ATOM      3  N   UNL     1       3.426   2.832  20.476  0.00  0.00    +0.000 NA
ATOM      4  C   UNL     1       2.918   4.035  20.344  0.00  0.00    +0.000 A 
ATOM      5  C   UNL     1       1.846   4.654  21.020  0.00  0.00    +0.000 A 
ATOM      6  C   UNL     1       1.497   5.905  20.699  0.00  0.00    +0.000 A 
ATOM      7  C   UNL     1       2.286   6.593  19.632  0.00  0.00    +0.000 A 
ATOM      8  N   UNL     1       3.264   6.048  18.970  0.00  0.00    +0.000 NA
ATOM      9  N   UNL     1       3.558   4.765  19.354  0.00  0.00    +0.000 N 
ENDROOT
BRANCH   1  14
ATOM     10  C   UNL     1       6.173   4.007  15.374  0.00  0.00    +0.000 A 
ATOM     11  C   UNL     1       7.200   4.918  15.610  0.00  0.00    +0.000 A 
ATOM     12  C   UNL     1       7.352   5.508  16.866  0.00  0.00    +0.000 A 
ATOM     13  C   UNL     1       6.480   5.181  17.898  0.00  0.00    +0.000 A 
ATOM     14  C   UNL     1       5.429   4.274  17.693  0.00  0.00    +0.000 A 
ATOM     15  C   UNL     1       5.275   3.712  16.413  0.00  0.00    +0.000 A 
BRANCH  10  19
ATOM     16  C   UNL     1       6.034   2.939  11.756  0.00  0.00    +0.000 C 
ATOM     17  C   UNL     1       6.494   3.792  12.909  0.00  0.00    +0.000 C 
ATOM     18  O   UNL     1       7.237   4.748  12.714  0.00  0.00    +0.000 OA
ATOM     19  N   UNL     1       5.987   3.367  14.125  0.00  0.00    +0.000 N 
ATOM     20  H   UNL     1       5.530   2.464  14.147  0.00  0.00    +0.000 HD
ENDBRANCH  10  19
ENDBRANCH   1  14
BRANCH   7  21
ATOM     21  C   UNL     1       1.901   7.992  19.311  0.00  0.00    +0.000 A 
ATOM     22  C   UNL     1       1.215   8.820  20.204  0.00  0.00    +0.000 A 
ATOM     23  C   UNL     1       0.901  10.124  19.827  0.00  0.00    +0.000 A 
ATOM     24  C   UNL     1       1.293  10.563  18.572  0.00  0.00    +0.000 A 
ATOM     25  N   UNL     1       1.973   9.799  17.692  0.00  0.00    +0.000 NA
ATOM     26  C   UNL     1       2.266   8.532  18.081  0.00  0.00    +0.000 A 
ENDBRANCH   7  21
TORSDOF 3
ENDMDL
MODEL 3
REMARK VINA RESULT:      -8.9      1.960      2.973
REMARK  Name = 
REMARK  4 active torsions:
REMARK  status: ('A' for Active; 'I' for Inactive)
REMARK    1  A    between atoms: C_1  and  C_2
REMARK    2  A    between atoms: N_4  and  C_5
REMARK    3  A    between atoms: C_9  and  C_10
REMARK    4  A    between atoms: C_16  and  C_17
REMARK                            x       y       z     vdW  Elec       q    Type
REMARK                         _______ _______ _______ _____ _____    ______ ____
ROOT
ATOM      1  C   UNL     1       4.240   3.740  18.410  0.00  0.00    +0.000 A 
ATOM      2  C   UNL     1       4.099   2.415  18.797  0.00  0.00    +0.000 A 
ATOM      3  N   UNL     1       3.105   2.245  19.723  0.00  0.00    +0.000 NA
ATOM      4  C   UNL     1       2.616   3.449  19.911  0.00  0.00    +0.000 A 
ATOM      5  C   UNL     1       1.554   3.886  20.727  0.00  0.00    +0.000 A 
ATOM      6  C   UNL     1       1.225   5.183  20.746  0.00  0.00    +0.000 A 
ATOM      7  C   UNL     1       2.027   6.114  19.895  0.00  0.00    +0.000 A 
ATOM      8  N   UNL     1       2.997   5.745  19.110  0.00  0.00    +0.000 NA
ATOM      9  N   UNL     1       3.270   4.402  19.145  0.00  0.00    +0.000 N 
ENDROOT
BRANCH   1  14
ATOM     10  C   UNL     1       6.579   6.138  16.595  0.00  0.00    +0.000 A 
ATOM     11  C   UNL     1       6.805   5.416  15.425  0.00  0.00    +0.000 A 
ATOM     12  C   UNL     1       6.212   4.167  15.236  0.00  0.00    +0.000 A 
ATOM     13  C   UNL     1       5.379   3.636  16.215  0.00  0.00    +0.000 A 
ATOM     14  C   UNL     1       5.136   4.333  17.409  0.00  0.00    +0.000 A 
ATOM     15  C   UNL     1       5.767   5.576  17.594  0.00  0.00    +0.000 A 
BRANCH  10  19
ATOM     16  C   UNL     1       8.281   9.239  17.911  0.00  0.00    +0.000 C 
ATOM     17  C   UNL     1       7.919   7.777  17.914  0.00  0.00    +0.000 C 
ATOM     18  O   UNL     1       8.308   7.045  18.819  0.00  0.00    +0.000 OA
ATOM     19  N   UNL     1       7.141   7.416  16.828  0.00  0.00    +0.000 N 
ATOM     20  H   UNL     1       7.048   8.091  16.079  0.00  0.00    +0.000 HD
ENDBRANCH  10  19
ENDBRANCH   1  14
BRANCH   7  21
ATOM     21  C   UNL     1       1.665   7.554  19.951  0.00  0.00    +0.000 A 
ATOM     22  C   UNL     1       1.189   8.177  21.108  0.00  0.00    +0.000 A 
ATOM     23  C   UNL     1       0.881   9.536  21.079  0.00  0.00    +0.000 A 
ATOM     24  C   UNL     1       1.071  10.232  19.895  0.00  0.00    +0.000 A 
ATOM     25  N   UNL     1       1.548   9.668  18.765  0.00  0.00    +0.000 NA
ATOM     26  C   UNL     1       1.838   8.344  18.818  0.00  0.00    +0.000 A 
ENDBRANCH   7  21
TORSDOF 3
ENDMDL
MODEL 4
REMARK VINA RESULT:      -8.8      1.936      2.822
REMARK  Name = 
REMARK  4 active torsions:
REMARK  status: ('A' for Active; 'I' for Inactive)
REMARK    1  A    between atoms: C_1  and  C_2
REMARK    2  A    between atoms: N_4  and  C_5
REMARK    3  A    between atoms: C_9  and  C_10
REMARK    4  A    between atoms: C_16  and  C_17
REMARK                            x       y       z     vdW  Elec       q    Type
REMARK                         _______ _______ _______ _____ _____    ______ ____
ROOT
ATOM      1  C   UNL     1       4.398   3.929  18.650  0.00  0.00    +0.000 A 
ATOM      2  C   UNL     1       4.278   2.634  19.133  0.00  0.00    +0.000 A 
ATOM      3  N   UNL     1       3.275   2.512  20.057  0.00  0.00    +0.000 NA
ATOM      4  C   UNL     1       2.761   3.717  20.150  0.00  0.00    +0.000 A 
ATOM      5  C   UNL     1       1.679   4.191  20.919  0.00  0.00    +0.000 A 
ATOM      6  C   UNL     1       1.325   5.478  20.838  0.00  0.00    +0.000 A 
ATOM      7  C   UNL     1       2.119   6.361  19.929  0.00  0.00    +0.000 A 
ATOM      8  N   UNL     1       3.107   5.955  19.185  0.00  0.00    +0.000 NA
ATOM      9  N   UNL     1       3.406   4.623  19.323  0.00  0.00    +0.000 N 
ENDROOT
BRANCH   1  14
ATOM     10  C   UNL     1       6.730   6.226  16.701  0.00  0.00    +0.000 A 
ATOM     11  C   UNL     1       6.968   5.434  15.580  0.00  0.00    +0.000 A 
ATOM     12  C   UNL     1       6.384   4.171  15.466  0.00  0.00    +0.000 A 
ATOM     13  C   UNL     1       5.550   3.697  16.473  0.00  0.00    +0.000 A 
ATOM     14  C   UNL     1       5.295   4.465  17.619  0.00  0.00    +0.000 A 
ATOM     15  C   UNL     1       5.916   5.722  17.728  0.00  0.00    +0.000 A 
BRANCH  10  19
ATOM     16  C   UNL     1       8.398   9.418  17.831  0.00  0.00    +0.000 C 
ATOM     17  C   UNL     1       8.045   7.957  17.925  0.00  0.00    +0.000 C 
ATOM     18  O   UNL     1       8.426   7.289  18.880  0.00  0.00    +0.000 OA
ATOM     19  N   UNL     1       7.282   7.520  16.856  0.00  0.00    +0.000 N 
ATOM     20  H   UNL     1       7.194   8.144  16.064  0.00  0.00    +0.000 HD
ENDBRANCH  10  19
ENDBRANCH   1  14
BRANCH   7  21
ATOM     21  C   UNL     1       1.728   7.793  19.875  0.00  0.00    +0.000 A 
ATOM     22  C   UNL     1       1.772   8.553  18.703  0.00  0.00    +0.000 A 
ATOM     23  C   UNL     1       1.378   9.889  18.736  0.00  0.00    +0.000 A 
ATOM     24  C   UNL     1       0.941  10.420  19.939  0.00  0.00    +0.000 A 
ATOM     25  N   UNL     1       0.867   9.712  21.086  0.00  0.00    +0.000 NA
ATOM     26  C   UNL     1       1.258   8.414  21.028  0.00  0.00    +0.000 A 
ENDBRANCH   7  21
TORSDOF 3
ENDMDL
MODEL 5
REMARK VINA RESULT:      -8.5      4.188      7.143
REMARK  Name = 
REMARK  4 active torsions:
REMARK  status: ('A' for Active; 'I' for Inactive)
REMARK    1  A    between atoms: C_1  and  C_2
REMARK    2  A    between atoms: N_4  and  C_5
REMARK    3  A    between atoms: C_9  and  C_10
REMARK    4  A    between atoms: C_16  and  C_17
REMARK                            x       y       z     vdW  Elec       q    Type
REMARK                         _______ _______ _______ _____ _____    ______ ____
ROOT
ATOM      1  C   UNL     1       0.857   9.514  20.740  0.00  0.00    +0.000 A 
ATOM      2  C   UNL     1       1.101  10.087  21.980  0.00  0.00    +0.000 A 
ATOM      3  N   UNL     1       0.250  11.124  22.252  0.00  0.00    +0.000 NA
ATOM      4  C   UNL     1      -0.530  11.199  21.198  0.00  0.00    +0.000 A 
ATOM      5  C   UNL     1      -1.616  12.055  20.925  0.00  0.00    +0.000 A 
ATOM      6  C   UNL     1      -2.278  11.934  19.769  0.00  0.00    +0.000 A 
ATOM      7  C   UNL     1      -1.811  10.888  18.809  0.00  0.00    +0.000 A 
ATOM      8  N   UNL     1      -0.830  10.064  19.035  0.00  0.00    +0.000 NA
ATOM      9  N   UNL     1      -0.206  10.250  20.242  0.00  0.00    +0.000 N 
ENDROOT
BRANCH   1  14
ATOM     10  C   UNL     1       2.305   6.043  20.125  0.00  0.00    +0.000 A 
ATOM     11  C   UNL     1       2.767   6.203  18.820  0.00  0.00    +0.000 A 
ATOM     12  C   UNL     1       2.602   7.416  18.152  0.00  0.00    +0.000 A 
ATOM     13  C   UNL     1       1.981   8.484  18.791  0.00  0.00    +0.000 A 
ATOM     14  C   UNL     1       1.496   8.356  20.101  0.00  0.00    +0.000 A 
ATOM     15  C   UNL     1       1.645   7.116  20.747  0.00  0.00    +0.000 A 
BRANCH  10  19
ATOM     16  C   UNL     1       2.026   2.655  21.765  0.00  0.00    +0.000 C 
ATOM     17  C   UNL     1       1.631   3.736  20.793  0.00  0.00    +0.000 C 
ATOM     18  O   UNL     1       0.661   3.584  20.058  0.00  0.00    +0.000 OA
ATOM     19  N   UNL     1       2.464   4.840  20.854  0.00  0.00    +0.000 N 
ATOM     20  H   UNL     1       3.320   4.747  21.385  0.00  0.00    +0.000 HD
ENDBRANCH  10  19
ENDBRANCH   1  14
BRANCH   7  21
ATOM     21  C   UNL     1      -2.542  10.789  17.518  0.00  0.00    +0.000 A 
ATOM     22  C   UNL     1      -2.118   9.980  16.461  0.00  0.00    +0.000 A 
ATOM     23  C   UNL     1      -2.867   9.937  15.287  0.00  0.00    +0.000 A 
ATOM     24  C   UNL     1      -4.024  10.697  15.212  0.00  0.00    +0.000 A 
ATOM     25  N   UNL     1      -4.474  11.474  16.219  0.00  0.00    +0.000 NA
ATOM     26  C   UNL     1      -3.726  11.501  17.351  0.00  0.00    +0.000 A 
ENDBRANCH   7  21
TORSDOF 3
ENDMDL
MODEL 6
REMARK VINA RESULT:      -8.4      1.314      1.405
REMARK  Name = 
REMARK  4 active torsions:
REMARK  status: ('A' for Active; 'I' for Inactive)
REMARK    1  A    between atoms: C_1  and  C_2
REMARK    2  A    between atoms: N_4  and  C_5
REMARK    3  A    between atoms: C_9  and  C_10
REMARK    4  A    between atoms: C_16  and  C_17
REMARK                            x       y       z     vdW  Elec       q    Type
REMARK                         _______ _______ _______ _____ _____    ______ ____
ROOT
ATOM      1  C   UNL     1       4.257   3.901  17.974  0.00  0.00    +0.000 A 
ATOM      2  C   UNL     1       4.243   2.628  18.527  0.00  0.00    +0.000 A 
ATOM      3  N   UNL     1       3.443   2.549  19.634  0.00  0.00    +0.000 NA
ATOM      4  C   UNL     1       2.948   3.757  19.775  0.00  0.00    +0.000 A 
ATOM      5  C   UNL     1       2.036   4.267  20.721  0.00  0.00    +0.000 A 
ATOM      6  C   UNL     1       1.664   5.550  20.655  0.00  0.00    +0.000 A 
ATOM      7  C   UNL     1       2.259   6.390  19.571  0.00  0.00    +0.000 A 
ATOM      8  N   UNL     1       3.083   5.951  18.666  0.00  0.00    +0.000 NA
ATOM      9  N   UNL     1       3.412   4.626  18.799  0.00  0.00    +0.000 N 
ENDROOT
BRANCH   1  14
ATOM     10  C   UNL     1       5.925   4.045  14.552  0.00  0.00    +0.000 A 
ATOM     11  C   UNL     1       6.258   5.397  14.503  0.00  0.00    +0.000 A 
ATOM     12  C   UNL     1       5.938   6.246  15.562  0.00  0.00    +0.000 A 
ATOM     13  C   UNL     1       5.288   5.744  16.685  0.00  0.00    +0.000 A 
ATOM     14  C   UNL     1       4.930   4.390  16.764  0.00  0.00    +0.000 A 
ATOM     15  C   UNL     1       5.236   3.556  15.674  0.00  0.00    +0.000 A 
BRANCH  10  19
ATOM     16  C   UNL     1       6.089   1.860  11.478  0.00  0.00    +0.000 C 
ATOM     17  C   UNL     1       5.543   2.975  12.331  0.00  0.00    +0.000 C 
ATOM     18  O   UNL     1       4.575   3.626  11.952  0.00  0.00    +0.000 OA
ATOM     19  N   UNL     1       6.244   3.138  13.513  0.00  0.00    +0.000 N 
ATOM     20  H   UNL     1       7.121   2.641  13.604  0.00  0.00    +0.000 HD
ENDBRANCH  10  19
ENDBRANCH   1  14
BRANCH   7  21
ATOM     21  C   UNL     1       1.855   7.820  19.533  0.00  0.00    +0.000 A 
ATOM     22  C   UNL     1       1.951   8.610  18.385  0.00  0.00    +0.000 A 
ATOM     23  C   UNL     1       1.541   9.941  18.432  0.00  0.00    +0.000 A 
ATOM     24  C   UNL     1       1.037  10.437  19.624  0.00  0.00    +0.000 A 
ATOM     25  N   UNL     1       0.912   9.698  20.747  0.00  0.00    +0.000 NA
ATOM     26  C   UNL     1       1.319   8.406  20.677  0.00  0.00    +0.000 A 
ENDBRANCH   7  21
TORSDOF 3
ENDMDL
MODEL 7
REMARK VINA RESULT:      -8.4      2.088      3.242
REMARK  Name = 
REMARK  4 active torsions:
REMARK  status: ('A' for Active; 'I' for Inactive)
REMARK    1  A    between atoms: C_1  and  C_2
REMARK    2  A    between atoms: N_4  and  C_5
REMARK    3  A    between atoms: C_9  and  C_10
REMARK    4  A    between atoms: C_16  and  C_17
REMARK                            x       y       z     vdW  Elec       q    Type
REMARK                         _______ _______ _______ _____ _____    ______ ____
ROOT
ATOM      1  C   UNL     1       4.687   4.011  19.120  0.00  0.00    +0.000 A 
ATOM      2  C   UNL     1       4.549   2.676  19.471  0.00  0.00    +0.000 A 
ATOM      3  N   UNL     1       3.404   2.439  20.182  0.00  0.00    +0.000 NA
ATOM      4  C   UNL     1       2.820   3.611  20.271  0.00  0.00    +0.000 A 
ATOM      5  C   UNL     1       1.594   3.978  20.863  0.00  0.00    +0.000 A 
ATOM      6  C   UNL     1       1.194   5.254  20.817  0.00  0.00    +0.000 A 
ATOM      7  C   UNL     1       2.092   6.239  20.141  0.00  0.00    +0.000 A 
ATOM      8  N   UNL     1       3.217   5.935  19.563  0.00  0.00    +0.000 NA
ATOM      9  N   UNL     1       3.555   4.609  19.650  0.00  0.00    +0.000 N 
ENDROOT
BRANCH   1  14
ATOM     10  C   UNL     1       7.492   6.337  18.006  0.00  0.00    +0.000 A 
ATOM     11  C   UNL     1       7.667   5.894  16.697  0.00  0.00    +0.000 A 
ATOM     12  C   UNL     1       6.890   4.851  16.190  0.00  0.00    +0.000 A 
ATOM     13  C   UNL     1       5.924   4.251  16.990  0.00  0.00    +0.000 A 
ATOM     14  C   UNL     1       5.727   4.666  18.316  0.00  0.00    +0.000 A 
ATOM     15  C   UNL     1       6.540   5.698  18.817  0.00  0.00    +0.000 A 
BRANCH  10  19
ATOM     16  C   UNL     1       9.178   9.594  18.899  0.00  0.00    +0.000 C 
ATOM     17  C   UNL     1       8.184   8.728  18.170  0.00  0.00    +0.000 C 
ATOM     18  O   UNL     1       7.437   9.216  17.329  0.00  0.00    +0.000 OA
ATOM     19  N   UNL     1       8.241   7.402  18.562  0.00  0.00    +0.000 N 
ATOM     20  H   UNL     1       8.786   7.185  19.386  0.00  0.00    +0.000 HD
ENDBRANCH  10  19
ENDBRANCH   1  14
BRANCH   7  21
ATOM     21  C   UNL     1       1.644   7.656  20.127  0.00  0.00    +0.000 A 
ATOM     22  C   UNL     1       1.101   8.297  21.244  0.00  0.00    +0.000 A 
ATOM     23  C   UNL     1       0.714   9.632  21.148  0.00  0.00    +0.000 A 
ATOM     24  C   UNL     1       0.894  10.287  19.940  0.00  0.00    +0.000 A 
ATOM     25  N   UNL     1       1.433   9.707  18.847  0.00  0.00    +0.000 NA
ATOM     26  C   UNL     1       1.800   8.406  18.965  0.00  0.00    +0.000 A 
ENDBRANCH   7  21
TORSDOF 3
ENDMDL
MODEL 8
REMARK VINA RESULT:      -8.3      1.176      1.576
REMARK  Name = 
REMARK  4 active torsions:
REMARK  status: ('A' for Active; 'I' for Inactive)
REMARK    1  A    between atoms: C_1  and  C_2
REMARK    2  A    between atoms: N_4  and  C_5
REMARK    3  A    between atoms: C_9  and  C_10
REMARK    4  A    between atoms: C_16  and  C_17
REMARK                            x       y       z     vdW  Elec       q    Type
REMARK                         _______ _______ _______ _____ _____    ______ ____
ROOT
ATOM      1  C   UNL     1       4.627   4.156  19.145  0.00  0.00    +0.000 A 
ATOM      2  C   UNL     1       4.450   2.791  19.322  0.00  0.00    +0.000 A 
ATOM      3  N   UNL     1       3.244   2.492  19.896  0.00  0.00    +0.000 NA
ATOM      4  C   UNL     1       2.661   3.655  20.070  0.00  0.00    +0.000 A 
ATOM      5  C   UNL     1       1.388   3.970  20.589  0.00  0.00    +0.000 A 
ATOM      6  C   UNL     1       1.001   5.248  20.658  0.00  0.00    +0.000 A 
ATOM      7  C   UNL     1       1.963   6.291  20.186  0.00  0.00    +0.000 A 
ATOM      8  N   UNL     1       3.134   6.038  19.678  0.00  0.00    +0.000 NA
ATOM      9  N   UNL     1       3.455   4.706  19.638  0.00  0.00    +0.000 N 
ENDROOT
BRANCH   1  14
ATOM     10  C   UNL     1       7.021   5.612  16.562  0.00  0.00    +0.000 A 
ATOM     11  C   UNL     1       7.919   6.262  17.406  0.00  0.00    +0.000 A 
ATOM     12  C   UNL     1       7.742   6.232  18.790  0.00  0.00    +0.000 A 
ATOM     13  C   UNL     1       6.667   5.542  19.340  0.00  0.00    +0.000 A 
ATOM     14  C   UNL     1       5.739   4.883  18.520  0.00  0.00    +0.000 A 
ATOM     15  C   UNL     1       5.918   4.949  17.126  0.00  0.00    +0.000 A 
BRANCH  10  19
ATOM     16  C   UNL     1       7.160   4.824  12.873  0.00  0.00    +0.000 C 
ATOM     17  C   UNL     1       6.780   4.569  14.309  0.00  0.00    +0.000 C 
ATOM     18  O   UNL     1       6.195   3.537  14.621  0.00  0.00    +0.000 OA
ATOM     19  N   UNL     1       7.165   5.595  15.154  0.00  0.00    +0.000 N 
ATOM     20  H   UNL     1       7.483   6.455  14.725  0.00  0.00    +0.000 HD
ENDBRANCH  10  19
ENDBRANCH   1  14
BRANCH   7  21
ATOM     21  C   UNL     1       1.526   7.707  20.298  0.00  0.00    +0.000 A 
ATOM     22  C   UNL     1       1.039   8.264  21.483  0.00  0.00    +0.000 A 
ATOM     23  C   UNL     1       0.659   9.605  21.506  0.00  0.00    +0.000 A 
ATOM     24  C   UNL     1       0.789  10.349  20.344  0.00  0.00    +0.000 A 
ATOM     25  N   UNL     1       1.273   9.850  19.187  0.00  0.00    +0.000 NA
ATOM     26  C   UNL     1       1.635   8.542  19.190  0.00  0.00    +0.000 A 
ENDBRANCH   7  21
TORSDOF 3
ENDMDL
MODEL 9
REMARK VINA RESULT:      -8.3      2.844      7.454
REMARK  Name = 
REMARK  4 active torsions:
REMARK  status: ('A' for Active; 'I' for Inactive)
REMARK    1  A    between atoms: C_1  and  C_2
REMARK    2  A    between atoms: N_4  and  C_5
REMARK    3  A    between atoms: C_9  and  C_10
REMARK    4  A    between atoms: C_16  and  C_17
REMARK                            x       y       z     vdW  Elec       q    Type
REMARK                         _______ _______ _______ _____ _____    ______ ____
ROOT
ATOM      1  C   UNL     1       2.277   5.983  19.881  0.00  0.00    +0.000 A 
ATOM      2  C   UNL     1       1.810   5.255  20.966  0.00  0.00    +0.000 A 
ATOM      3  N   UNL     1       2.381   4.014  21.045  0.00  0.00    +0.000 NA
ATOM      4  C   UNL     1       3.207   3.962  20.025  0.00  0.00    +0.000 A 
ATOM      5  C   UNL     1       4.091   2.942  19.617  0.00  0.00    +0.000 A 
ATOM      6  C   UNL     1       4.855   3.125  18.534  0.00  0.00    +0.000 A 
ATOM      7  C   UNL     1       4.715   4.417  17.796  0.00  0.00    +0.000 A 
ATOM      8  N   UNL     1       3.929   5.390  18.156  0.00  0.00    +0.000 NA
ATOM      9  N   UNL     1       3.184   5.127  19.276  0.00  0.00    +0.000 N 
ENDROOT
BRANCH   1  14
ATOM     10  C   UNL     1       0.907   9.539  19.838  0.00  0.00    +0.000 A 
ATOM     11  C   UNL     1       1.390   9.968  18.604  0.00  0.00    +0.000 A 
ATOM     12  C   UNL     1       2.154   9.117  17.805  0.00  0.00    +0.000 A 
ATOM     13  C   UNL     1       2.432   7.824  18.234  0.00  0.00    +0.000 A 
ATOM     14  C   UNL     1       1.969   7.361  19.474  0.00  0.00    +0.000 A 
ATOM     15  C   UNL     1       1.226   8.243  20.278  0.00  0.00    +0.000 A 
BRANCH  10  19
ATOM     16  C   UNL     1      -0.857  11.324  22.657  0.00  0.00    +0.000 C 
ATOM     17  C   UNL     1       0.196  10.430  22.057  0.00  0.00    +0.000 C 
ATOM     18  O   UNL     1       1.008   9.859  22.778  0.00  0.00    +0.000 OA
ATOM     19  N   UNL     1       0.112  10.355  20.678  0.00  0.00    +0.000 N 
ATOM     20  H   UNL     1      -0.499  11.016  20.214  0.00  0.00    +0.000 HD
ENDBRANCH  10  19
ENDBRANCH   1  14
BRANCH   7  21
ATOM     21  C   UNL     1       5.551   4.588  16.579  0.00  0.00    +0.000 A 
ATOM     22  C   UNL     1       5.263   3.966  15.362  0.00  0.00    +0.000 A 
ATOM     23  C   UNL     1       6.094   4.188  14.265  0.00  0.00    +0.000 A 
ATOM     24  C   UNL     1       7.180   5.035  14.419  0.00  0.00    +0.000 A 
ATOM     25  N   UNL     1       7.477   5.668  15.573  0.00  0.00    +0.000 NA
ATOM     26  C   UNL     1       6.654   5.434  16.627  0.00  0.00    +0.000 A 
ENDBRANCH   7  21
TORSDOF 3
ENDMDL
