MODEL 1
REMARK VINA RESULT:      -6.9      0.000      0.000
REMARK  Name = 
REMARK  10 active torsions:
REMARK  status: ('A' for Active; 'I' for Inactive)
REMARK    1  A    between atoms: C_1  and  C_2
REMARK    2  A    between atoms: C_2  and  C_3
REMARK    3  A    between atoms: C_2  and  C_4
REMARK    4  A    between atoms: C_2  and  C_5
REMARK    5  A    between atoms: C_5  and  O_6
REMARK    6  A    between atoms: C_5  and  C_7
REMARK    7  A    between atoms: C_5  and  C_16
REMARK    8  A    between atoms: C_7  and  C_8
REMARK    9  A    between atoms: C_8  and  C_9
REMARK   10  A    between atoms: C_16  and  N_17
REMARK                            x       y       z     vdW  Elec       q    Type
REMARK                         _______ _______ _______ _____ _____    ______ ____
ROOT
ATOM      1  C   UNL     1       3.341   4.767  18.688  0.00  0.00    +0.000 C 
ENDROOT
BRANCH   1   3
ATOM      2  C   UNL     1       3.469   2.552  20.071  0.00  0.00    +0.000 C 
ATOM      3  C   UNL     1       2.601   3.788  19.722  0.00  0.00    +0.000 C 
ATOM      4  C   UNL     1       1.279   3.221  19.135  0.00  0.00    +0.000 C 
ATOM      5  C   UNL     1       2.203   4.478  21.043  0.00  0.00    +0.000 C 
ENDBRANCH   1   3
BRANCH   1   6
ATOM      6  O   UNL     1       3.865   3.934  17.621  0.00  0.00    +0.000 OA
ATOM      7  H   UNL     1       3.872   3.008  17.923  0.00  0.00    +0.000 HD
ENDBRANCH   1   6
BRANCH   1   8
ATOM      8  C   UNL     1       2.354   5.780  18.022  0.00  0.00    +0.000 C 
BRANCH   8   9
ATOM      9  C   UNL     1       2.842   7.238  17.923  0.00  0.00    +0.000 C 
BRANCH   9  10
ATOM     10  C   UNL     1       2.007   8.161  18.786  0.00  0.00    +0.000 A 
ATOM     11  C   UNL     1       1.817   7.870  20.146  0.00  0.00    +0.000 A 
ATOM     12  C   UNL     1       1.038   8.703  20.958  0.00  0.00    +0.000 A 
ATOM     13  C   UNL     1       0.444   9.836  20.403  0.00  0.00    +0.000 A 
ATOM     14 CL   UNL     1      -0.506  10.874  21.395  0.00  0.00    +0.000 Cl
ATOM     15  C   UNL     1       0.619  10.135  19.055  0.00  0.00    +0.000 A 
ATOM     16  C   UNL     1       1.396   9.301  18.245  0.00  0.00    +0.000 A 
ENDBRANCH   9  10
ENDBRANCH   8   9
ENDBRANCH   1   8
BRANCH   1  17
ATOM     17  C   UNL     1       4.612   5.475  19.261  0.00  0.00    +0.000 C 
BRANCH  17  18
ATOM     18  N   UNL     1       5.830   5.381  18.499  0.00  0.00    +0.000 N 
ATOM     19  C   UNL     1       6.307   6.272  17.585  0.00  0.00    +0.000 A 
ATOM     20  N   UNL     1       7.408   5.800  17.047  0.00  0.00    +0.000 NA
ATOM     21  C   UNL     1       7.586   4.615  17.701  0.00  0.00    +0.000 A 
ATOM     22  N   UNL     1       6.663   4.331  18.623  0.00  0.00    +0.000 NA
ENDBRANCH  17  18
ENDBRANCH   1  17
TORSDOF 7
ENDMDL
MODEL 2
REMARK VINA RESULT:      -6.9      1.102      1.366
REMARK  Name = 
REMARK  10 active torsions:
REMARK  status: ('A' for Active; 'I' for Inactive)
REMARK    1  A    between atoms: C_1  and  C_2
REMARK    2  A    between atoms: C_2  and  C_3
REMARK    3  A    between atoms: C_2  and  C_4
REMARK    4  A    between atoms: C_2  and  C_5
REMARK    5  A    between atoms: C_5  and  O_6
REMARK    6  A    between atoms: C_5  and  C_7
REMARK    7  A    between atoms: C_5  and  C_16
REMARK    8  A    between atoms: C_7  and  C_8
REMARK    9  A    between atoms: C_8  and  C_9
REMARK   10  A    between atoms: C_16  and  N_17
REMARK                            x       y       z     vdW  Elec       q    Type
REMARK                         _______ _______ _______ _____ _____    ______ ____
ROOT
ATOM      1  C   UNL     1       3.320   4.327  18.902  0.00  0.00    +0.000 C 
ENDROOT
BRANCH   1   3
ATOM      2  C   UNL     1       1.399   2.554  18.894  0.00  0.00    +0.000 C 
ATOM      3  C   UNL     1       2.237   3.521  19.769  0.00  0.00    +0.000 C 
ATOM      4  C   UNL     1       1.211   4.474  20.442  0.00  0.00    +0.000 C 
ATOM      5  C   UNL     1       2.858   2.704  20.921  0.00  0.00    +0.000 C 
ENDBRANCH   1   3
BRANCH   1   6
ATOM      6  O   UNL     1       2.854   4.315  17.527  0.00  0.00    +0.000 OA
ATOM      7  H   UNL     1       3.493   3.819  16.986  0.00  0.00    +0.000 HD
ENDBRANCH   1   6
BRANCH   1   8
ATOM      8  C   UNL     1       3.421   5.829  19.327  0.00  0.00    +0.000 C 
BRANCH   8   9
ATOM      9  C   UNL     1       3.146   6.867  18.223  0.00  0.00    +0.000 C 
BRANCH   9  10
ATOM     10  C   UNL     1       2.210   7.955  18.706  0.00  0.00    +0.000 A 
ATOM     11  C   UNL     1       1.826   8.002  20.056  0.00  0.00    +0.000 A 
ATOM     12  C   UNL     1       0.952   8.992  20.520  0.00  0.00    +0.000 A 
ATOM     13  C   UNL     1       0.456   9.941  19.626  0.00  0.00    +0.000 A 
ATOM     14 CL   UNL     1      -0.610  11.169  20.188  0.00  0.00    +0.000 Cl
ATOM     15  C   UNL     1       0.823   9.903  18.283  0.00  0.00    +0.000 A 
ATOM     16  C   UNL     1       1.696   8.913  17.821  0.00  0.00    +0.000 A 
ENDBRANCH   9  10
ENDBRANCH   8   9
ENDBRANCH   1   8
BRANCH   1  17
ATOM     17  C   UNL     1       4.724   3.644  18.821  0.00  0.00    +0.000 C 
BRANCH  17  18
ATOM     18  N   UNL     1       5.667   4.166  17.865  0.00  0.00    +0.000 N 
ATOM     19  C   UNL     1       6.829   4.828  18.123  0.00  0.00    +0.000 A 
ATOM     20  N   UNL     1       7.375   5.211  16.992  0.00  0.00    +0.000 NA
ATOM     21  C   UNL     1       6.514   4.719  16.053  0.00  0.00    +0.000 A 
ATOM     22  N   UNL     1       5.470   4.044  16.539  0.00  0.00    +0.000 NA
ENDBRANCH  17  18
ENDBRANCH   1  17
TORSDOF 7
ENDMDL
MODEL 3
REMARK VINA RESULT:      -6.9      1.121      1.881
REMARK  Name = 
REMARK  10 active torsions:
REMARK  status: ('A' for Active; 'I' for Inactive)
REMARK    1  A    between atoms: C_1  and  C_2
REMARK    2  A    between atoms: C_2  and  C_3
REMARK    3  A    between atoms: C_2  and  C_4
REMARK    4  A    between atoms: C_2  and  C_5
REMARK    5  A    between atoms: C_5  and  O_6
REMARK    6  A    between atoms: C_5  and  C_7
REMARK    7  A    between atoms: C_5  and  C_16
REMARK    8  A    between atoms: C_7  and  C_8
REMARK    9  A    between atoms: C_8  and  C_9
REMARK   10  A    between atoms: C_16  and  N_17
REMARK                            x       y       z     vdW  Elec       q    Type
REMARK                         _______ _______ _______ _____ _____    ______ ____
ROOT
ATOM      1  C   UNL     1       3.344   4.286  18.871  0.00  0.00    +0.000 C 
ENDROOT
BRANCH   1   3
ATOM      2  C   UNL     1       1.189   4.406  20.346  0.00  0.00    +0.000 C 
ATOM      3  C   UNL     1       2.253   3.469  19.719  0.00  0.00    +0.000 C 
ATOM      4  C   UNL     1       2.899   2.710  20.910  0.00  0.00    +0.000 C 
ATOM      5  C   UNL     1       1.516   2.394  18.894  0.00  0.00    +0.000 C 
ENDBRANCH   1   3
BRANCH   1   6
ATOM      6  O   UNL     1       2.890   4.290  17.492  0.00  0.00    +0.000 OA
ATOM      7  H   UNL     1       3.466   3.702  16.973  0.00  0.00    +0.000 HD
ENDBRANCH   1   6
BRANCH   1   8
ATOM      8  C   UNL     1       3.442   5.782  19.315  0.00  0.00    +0.000 C 
BRANCH   8   9
ATOM      9  C   UNL     1       3.167   6.834  18.223  0.00  0.00    +0.000 C 
BRANCH   9  10
ATOM     10  C   UNL     1       2.224   7.911  18.717  0.00  0.00    +0.000 A 
ATOM     11  C   UNL     1       1.748   8.889  17.828  0.00  0.00    +0.000 A 
ATOM     12  C   UNL     1       0.886   9.900  18.268  0.00  0.00    +0.000 A 
ATOM     13  C   UNL     1       0.499   9.935  19.607  0.00  0.00    +0.000 A 
ATOM     14 CL   UNL     1      -0.570  11.168  20.154  0.00  0.00    +0.000 Cl
ATOM     15  C   UNL     1       0.966   8.976  20.500  0.00  0.00    +0.000 A 
ATOM     16  C   UNL     1       1.829   7.966  20.061  0.00  0.00    +0.000 A 
ENDBRANCH   9  10
ENDBRANCH   8   9
ENDBRANCH   1   8
BRANCH   1  17
ATOM     17  C   UNL     1       4.749   3.604  18.793  0.00  0.00    +0.000 C 
BRANCH  17  18
ATOM     18  N   UNL     1       5.687   4.113  17.827  0.00  0.00    +0.000 N 
ATOM     19  C   UNL     1       6.844   4.789  18.070  0.00  0.00    +0.000 A 
ATOM     20  N   UNL     1       7.387   5.153  16.931  0.00  0.00    +0.000 NA
ATOM     21  C   UNL     1       6.529   4.635  16.003  0.00  0.00    +0.000 A 
ATOM     22  N   UNL     1       5.491   3.961  16.503  0.00  0.00    +0.000 NA
ENDBRANCH  17  18
ENDBRANCH   1  17
TORSDOF 7
ENDMDL
MODEL 4
REMARK VINA RESULT:      -6.9      0.395      1.046
REMARK  Name = 
REMARK  10 active torsions:
REMARK  status: ('A' for Active; 'I' for Inactive)
REMARK    1  A    between atoms: C_1  and  C_2
REMARK    2  A    between atoms: C_2  and  C_3
REMARK    3  A    between atoms: C_2  and  C_4
REMARK    4  A    between atoms: C_2  and  C_5
REMARK    5  A    between atoms: C_5  and  O_6
REMARK    6  A    between atoms: C_5  and  C_7
REMARK    7  A    between atoms: C_5  and  C_16
REMARK    8  A    between atoms: C_7  and  C_8
REMARK    9  A    between atoms: C_8  and  C_9
REMARK   10  A    between atoms: C_16  and  N_17
REMARK                            x       y       z     vdW  Elec       q    Type
REMARK                         _______ _______ _______ _____ _____    ______ ____
ROOT
ATOM      1  C   UNL     1       3.355   4.824  18.446  0.00  0.00    +0.000 C 
ENDROOT
BRANCH   1   3
ATOM      2  C   UNL     1       1.270   3.267  18.692  0.00  0.00    +0.000 C 
ATOM      3  C   UNL     1       2.649   3.653  19.285  0.00  0.00    +0.000 C 
ATOM      4  C   UNL     1       2.370   4.082  20.752  0.00  0.00    +0.000 C 
ATOM      5  C   UNL     1       3.501   2.371  19.385  0.00  0.00    +0.000 C 
ENDBRANCH   1   3
BRANCH   1   6
ATOM      6  O   UNL     1       3.902   4.214  17.248  0.00  0.00    +0.000 OA
ATOM      7  H   UNL     1       4.868   4.341  17.247  0.00  0.00    +0.000 HD
ENDBRANCH   1   6
BRANCH   1   8
ATOM      8  C   UNL     1       2.336   5.910  17.969  0.00  0.00    +0.000 C 
BRANCH   8   9
ATOM      9  C   UNL     1       2.813   7.372  18.051  0.00  0.00    +0.000 C 
BRANCH   9  10
ATOM     10  C   UNL     1       1.990   8.169  19.041  0.00  0.00    +0.000 A 
ATOM     11  C   UNL     1       1.797   7.682  20.344  0.00  0.00    +0.000 A 
ATOM     12  C   UNL     1       1.029   8.397  21.272  0.00  0.00    +0.000 A 
ATOM     13  C   UNL     1       0.450   9.607  20.892  0.00  0.00    +0.000 A 
ATOM     14 CL   UNL     1      -0.486  10.500  22.028  0.00  0.00    +0.000 Cl
ATOM     15  C   UNL     1       0.628  10.099  19.602  0.00  0.00    +0.000 A 
ATOM     16  C   UNL     1       1.394   9.384  18.676  0.00  0.00    +0.000 A 
ENDBRANCH   9  10
ENDBRANCH   8   9
ENDBRANCH   1   8
BRANCH   1  17
ATOM     17  C   UNL     1       4.605   5.457  19.140  0.00  0.00    +0.000 C 
BRANCH  17  18
ATOM     18  N   UNL     1       5.863   5.391  18.443  0.00  0.00    +0.000 N 
ATOM     19  C   UNL     1       6.429   6.351  17.659  0.00  0.00    +0.000 A 
ATOM     20  N   UNL     1       7.541   5.890  17.137  0.00  0.00    +0.000 NA
ATOM     21  C   UNL     1       7.634   4.636  17.669  0.00  0.00    +0.000 A 
ATOM     22  N   UNL     1       6.646   4.297  18.501  0.00  0.00    +0.000 NA
ENDBRANCH  17  18
ENDBRANCH   1  17
TORSDOF 7
ENDMDL
MODEL 5
REMARK VINA RESULT:      -6.9      1.211      1.672
REMARK  Name = 
REMARK  10 active torsions:
REMARK  status: ('A' for Active; 'I' for Inactive)
REMARK    1  A    between atoms: C_1  and  C_2
REMARK    2  A    between atoms: C_2  and  C_3
REMARK    3  A    between atoms: C_2  and  C_4
REMARK    4  A    between atoms: C_2  and  C_5
REMARK    5  A    between atoms: C_5  and  O_6
REMARK    6  A    between atoms: C_5  and  C_7
REMARK    7  A    between atoms: C_5  and  C_16
REMARK    8  A    between atoms: C_7  and  C_8
REMARK    9  A    between atoms: C_8  and  C_9
REMARK   10  A    between atoms: C_16  and  N_17
REMARK                            x       y       z     vdW  Elec       q    Type
REMARK                         _______ _______ _______ _____ _____    ______ ____
ROOT
ATOM      1  C   UNL     1       3.824   4.322  18.372  0.00  0.00    +0.000 C 
ENDROOT
BRANCH   1   3
ATOM      2  C   UNL     1       3.443   1.738  18.250  0.00  0.00    +0.000 C 
ATOM      3  C   UNL     1       2.982   3.065  18.906  0.00  0.00    +0.000 C 
ATOM      4  C   UNL     1       1.471   3.197  18.568  0.00  0.00    +0.000 C 
ATOM      5  C   UNL     1       3.049   2.888  20.437  0.00  0.00    +0.000 C 
ENDBRANCH   1   3
BRANCH   1   6
ATOM      6  O   UNL     1       3.529   4.456  16.956  0.00  0.00    +0.000 OA
ATOM      7  H   UNL     1       3.562   5.400  16.719  0.00  0.00    +0.000 HD
ENDBRANCH   1   6
BRANCH   1   8
ATOM      8  C   UNL     1       3.385   5.661  19.048  0.00  0.00    +0.000 C 
BRANCH   8   9
ATOM      9  C   UNL     1       3.219   6.873  18.112  0.00  0.00    +0.000 C 
BRANCH   9  10
ATOM     10  C   UNL     1       2.261   7.893  18.690  0.00  0.00    +0.000 A 
ATOM     11  C   UNL     1       1.747   8.914  17.875  0.00  0.00    +0.000 A 
ATOM     12  C   UNL     1       0.869   9.874  18.393  0.00  0.00    +0.000 A 
ATOM     13  C   UNL     1       0.506   9.813  19.738  0.00  0.00    +0.000 A 
ATOM     14 CL   UNL     1      -0.582  10.982  20.382  0.00  0.00    +0.000 Cl
ATOM     15  C   UNL     1       1.012   8.809  20.560  0.00  0.00    +0.000 A 
ATOM     16  C   UNL     1       1.889   7.852  20.041  0.00  0.00    +0.000 A 
ENDBRANCH   9  10
ENDBRANCH   8   9
ENDBRANCH   1   8
BRANCH   1  17
ATOM     17  C   UNL     1       5.375   4.127  18.408  0.00  0.00    +0.000 C 
BRANCH  17  18
ATOM     18  N   UNL     1       6.133   4.585  17.273  0.00  0.00    +0.000 N 
ATOM     19  C   UNL     1       6.870   5.727  17.173  0.00  0.00    +0.000 A 
ATOM     20  N   UNL     1       7.352   5.833  15.957  0.00  0.00    +0.000 NA
ATOM     21  C   UNL     1       6.906   4.694  15.349  0.00  0.00    +0.000 A 
ATOM     22  N   UNL     1       6.182   3.883  16.125  0.00  0.00    +0.000 NA
ENDBRANCH  17  18
ENDBRANCH   1  17
TORSDOF 7
ENDMDL
MODEL 6
REMARK VINA RESULT:      -6.8      0.907      1.705
REMARK  Name = 
REMARK  10 active torsions:
REMARK  status: ('A' for Active; 'I' for Inactive)
REMARK    1  A    between atoms: C_1  and  C_2
REMARK    2  A    between atoms: C_2  and  C_3
REMARK    3  A    between atoms: C_2  and  C_4
REMARK    4  A    between atoms: C_2  and  C_5
REMARK    5  A    between atoms: C_5  and  O_6
REMARK    6  A    between atoms: C_5  and  C_7
REMARK    7  A    between atoms: C_5  and  C_16
REMARK    8  A    between atoms: C_7  and  C_8
REMARK    9  A    between atoms: C_8  and  C_9
REMARK   10  A    between atoms: C_16  and  N_17
REMARK                            x       y       z     vdW  Elec       q    Type
REMARK                         _______ _______ _______ _____ _____    ______ ____
ROOT
ATOM      1  C   UNL     1       3.472   4.499  18.871  0.00  0.00    +0.000 C 
ENDROOT
BRANCH   1   3
ATOM      2  C   UNL     1       1.572   4.413  20.665  0.00  0.00    +0.000 C 
ATOM      3  C   UNL     1       2.248   3.665  19.488  0.00  0.00    +0.000 C 
ATOM      4  C   UNL     1       2.714   2.301  20.069  0.00  0.00    +0.000 C 
ATOM      5  C   UNL     1       1.157   3.321  18.453  0.00  0.00    +0.000 C 
ENDBRANCH   1   3
BRANCH   1   6
ATOM      6  O   UNL     1       3.320   4.465  17.428  0.00  0.00    +0.000 OA
ATOM      7  H   UNL     1       2.497   3.992  17.212  0.00  0.00    +0.000 HD
ENDBRANCH   1   6
BRANCH   1   8
ATOM      8  C   UNL     1       3.435   6.005  19.290  0.00  0.00    +0.000 C 
BRANCH   8   9
ATOM      9  C   UNL     1       3.023   7.005  18.193  0.00  0.00    +0.000 C 
BRANCH   9  10
ATOM     10  C   UNL     1       2.121   8.090  18.743  0.00  0.00    +0.000 A 
ATOM     11  C   UNL     1       1.718   9.153  17.919  0.00  0.00    +0.000 A 
ATOM     12  C   UNL     1       0.895  10.173  18.412  0.00  0.00    +0.000 A 
ATOM     13  C   UNL     1       0.473  10.129  19.740  0.00  0.00    +0.000 A 
ATOM     14 CL   UNL     1      -0.548  11.372  20.352  0.00  0.00    +0.000 Cl
ATOM     15  C   UNL     1       0.868   9.084  20.571  0.00  0.00    +0.000 A 
ATOM     16  C   UNL     1       1.692   8.067  20.077  0.00  0.00    +0.000 A 
ENDBRANCH   9  10
ENDBRANCH   8   9
ENDBRANCH   1   8
BRANCH   1  17
ATOM     17  C   UNL     1       4.878   3.858  19.108  0.00  0.00    +0.000 C 
BRANCH  17  18
ATOM     18  N   UNL     1       6.036   4.638  18.757  0.00  0.00    +0.000 N 
ATOM     19  C   UNL     1       6.582   4.803  17.519  0.00  0.00    +0.000 A 
ATOM     20  N   UNL     1       7.675   5.523  17.615  0.00  0.00    +0.000 NA
ATOM     21  C   UNL     1       7.738   5.812  18.948  0.00  0.00    +0.000 A 
ATOM     22  N   UNL     1       6.738   5.320  19.683  0.00  0.00    +0.000 NA
ENDBRANCH  17  18
ENDBRANCH   1  17
TORSDOF 7
ENDMDL
MODEL 7
REMARK VINA RESULT:      -6.8      3.832      5.498
REMARK  Name = 
REMARK  10 active torsions:
REMARK  status: ('A' for Active; 'I' for Inactive)
REMARK    1  A    between atoms: C_1  and  C_2
REMARK    2  A    between atoms: C_2  and  C_3
REMARK    3  A    between atoms: C_2  and  C_4
REMARK    4  A    between atoms: C_2  and  C_5
REMARK    5  A    between atoms: C_5  and  O_6
REMARK    6  A    between atoms: C_5  and  C_7
REMARK    7  A    between atoms: C_5  and  C_16
REMARK    8  A    between atoms: C_7  and  C_8
REMARK    9  A    between atoms: C_8  and  C_9
REMARK   10  A    between atoms: C_16  and  N_17
REMARK                            x       y       z     vdW  Elec       q    Type
REMARK                         _______ _______ _______ _____ _____    ______ ____
ROOT
ATOM      1  C   UNL     1       6.253   5.019  16.472  0.00  0.00    +0.000 C 
ENDROOT
BRANCH   1   3
ATOM      2  C   UNL     1       7.420   7.134  17.471  0.00  0.00    +0.000 C 
ATOM      3  C   UNL     1       6.237   6.143  17.617  0.00  0.00    +0.000 C 
ATOM      4  C   UNL     1       6.378   5.524  19.035  0.00  0.00    +0.000 C 
ATOM      5  C   UNL     1       4.930   6.963  17.652  0.00  0.00    +0.000 C 
ENDBRANCH   1   3
BRANCH   1   6
ATOM      6  O   UNL     1       7.645   4.693  16.221  0.00  0.00    +0.000 OA
ATOM      7  H   UNL     1       7.825   3.803  16.573  0.00  0.00    +0.000 HD
ENDBRANCH   1   6
BRANCH   1   8
ATOM      8  C   UNL     1       5.560   3.694  16.931  0.00  0.00    +0.000 C 
BRANCH   8   9
ATOM      9  C   UNL     1       4.036   3.616  16.720  0.00  0.00    +0.000 C 
BRANCH   9  10
ATOM     10  C   UNL     1       3.307   3.385  18.026  0.00  0.00    +0.000 A 
ATOM     11  C   UNL     1       3.972   2.779  19.104  0.00  0.00    +0.000 A 
ATOM     12  C   UNL     1       3.312   2.546  20.317  0.00  0.00    +0.000 A 
ATOM     13  C   UNL     1       1.976   2.919  20.451  0.00  0.00    +0.000 A 
ATOM     14 CL   UNL     1       1.158   2.647  21.941  0.00  0.00    +0.000 Cl
ATOM     15  C   UNL     1       1.301   3.516  19.389  0.00  0.00    +0.000 A 
ATOM     16  C   UNL     1       1.961   3.748  18.178  0.00  0.00    +0.000 A 
ENDBRANCH   9  10
ENDBRANCH   8   9
ENDBRANCH   1   8
BRANCH   1  17
ATOM     17  C   UNL     1       5.731   5.502  15.080  0.00  0.00    +0.000 C 
BRANCH  17  18
ATOM     18  N   UNL     1       6.266   4.862  13.906  0.00  0.00    +0.000 N 
ATOM     19  C   UNL     1       5.761   3.782  13.247  0.00  0.00    +0.000 A 
ATOM     20  N   UNL     1       6.570   3.448  12.269  0.00  0.00    +0.000 NA
ATOM     21  C   UNL     1       7.555   4.391  12.348  0.00  0.00    +0.000 A 
ATOM     22  N   UNL     1       7.394   5.299  13.315  0.00  0.00    +0.000 NA
ENDBRANCH  17  18
ENDBRANCH   1  17
TORSDOF 7
ENDMDL
MODEL 8
REMARK VINA RESULT:      -6.8      1.072      1.492
REMARK  Name = 
REMARK  10 active torsions:
REMARK  status: ('A' for Active; 'I' for Inactive)
REMARK    1  A    between atoms: C_1  and  C_2
REMARK    2  A    between atoms: C_2  and  C_3
REMARK    3  A    between atoms: C_2  and  C_4
REMARK    4  A    between atoms: C_2  and  C_5
REMARK    5  A    between atoms: C_5  and  O_6
REMARK    6  A    between atoms: C_5  and  C_7
REMARK    7  A    between atoms: C_5  and  C_16
REMARK    8  A    between atoms: C_7  and  C_8
REMARK    9  A    between atoms: C_8  and  C_9
REMARK   10  A    between atoms: C_16  and  N_17
REMARK                            x       y       z     vdW  Elec       q    Type
REMARK                         _______ _______ _______ _____ _____    ______ ____
ROOT
ATOM      1  C   UNL     1       3.676   4.559  18.621  0.00  0.00    +0.000 C 
ENDROOT
BRANCH   1   3
ATOM      2  C   UNL     1       1.829   4.315  20.455  0.00  0.00    +0.000 C 
ATOM      3  C   UNL     1       2.708   3.562  19.424  0.00  0.00    +0.000 C 
ATOM      4  C   UNL     1       3.511   2.514  20.242  0.00  0.00    +0.000 C 
ATOM      5  C   UNL     1       1.774   2.745  18.508  0.00  0.00    +0.000 C 
ENDBRANCH   1   3
BRANCH   1   6
ATOM      6  O   UNL     1       3.225   4.564  17.240  0.00  0.00    +0.000 OA
ATOM      7  H   UNL     1       3.366   3.677  16.864  0.00  0.00    +0.000 HD
ENDBRANCH   1   6
BRANCH   1   8
ATOM      8  C   UNL     1       3.567   6.032  19.132  0.00  0.00    +0.000 C 
BRANCH   8   9
ATOM      9  C   UNL     1       3.147   7.085  18.088  0.00  0.00    +0.000 C 
BRANCH   9  10
ATOM     10  C   UNL     1       2.177   8.089  18.673  0.00  0.00    +0.000 A 
ATOM     11  C   UNL     1       1.833   8.022  20.033  0.00  0.00    +0.000 A 
ATOM     12  C   UNL     1       0.929   8.934  20.591  0.00  0.00    +0.000 A 
ATOM     13  C   UNL     1       0.364   9.919  19.782  0.00  0.00    +0.000 A 
ATOM     14 CL   UNL     1      -0.740  11.052  20.461  0.00  0.00    +0.000 Cl
ATOM     15  C   UNL     1       0.691   9.994  18.431  0.00  0.00    +0.000 A 
ATOM     16  C   UNL     1       1.593   9.082  17.874  0.00  0.00    +0.000 A 
ENDBRANCH   9  10
ENDBRANCH   8   9
ENDBRANCH   1   8
BRANCH   1  17
ATOM     17  C   UNL     1       5.161   4.081  18.521  0.00  0.00    +0.000 C 
BRANCH  17  18
ATOM     18  N   UNL     1       5.955   4.585  17.430  0.00  0.00    +0.000 N 
ATOM     19  C   UNL     1       6.823   5.635  17.452  0.00  0.00    +0.000 A 
ATOM     20  N   UNL     1       7.298   5.835  16.244  0.00  0.00    +0.000 NA
ATOM     21  C   UNL     1       6.710   4.842  15.514  0.00  0.00    +0.000 A 
ATOM     22  N   UNL     1       5.904   4.031  16.204  0.00  0.00    +0.000 NA
ENDBRANCH  17  18
ENDBRANCH   1  17
TORSDOF 7
ENDMDL
MODEL 9
REMARK VINA RESULT:      -6.8      0.911      1.009
REMARK  Name = 
REMARK  10 active torsions:
REMARK  status: ('A' for Active; 'I' for Inactive)
REMARK    1  A    between atoms: C_1  and  C_2
REMARK    2  A    between atoms: C_2  and  C_3
REMARK    3  A    between atoms: C_2  and  C_4
REMARK    4  A    between atoms: C_2  and  C_5
REMARK    5  A    between atoms: C_5  and  O_6
REMARK    6  A    between atoms: C_5  and  C_7
REMARK    7  A    between atoms: C_5  and  C_16
REMARK    8  A    between atoms: C_7  and  C_8
REMARK    9  A    between atoms: C_8  and  C_9
REMARK   10  A    between atoms: C_16  and  N_17
REMARK                            x       y       z     vdW  Elec       q    Type
REMARK                         _______ _______ _______ _____ _____    ______ ____
ROOT
ATOM      1  C   UNL     1       3.129   4.483  18.525  0.00  0.00    +0.000 C 
ENDROOT
BRANCH   1   3
ATOM      2  C   UNL     1       3.571   2.564  20.245  0.00  0.00    +0.000 C 
ATOM      3  C   UNL     1       2.580   3.667  19.794  0.00  0.00    +0.000 C 
ATOM      4  C   UNL     1       1.249   2.932  19.475  0.00  0.00    +0.000 C 
ATOM      5  C   UNL     1       2.276   4.562  21.013  0.00  0.00    +0.000 C 
ENDBRANCH   1   3
BRANCH   1   6
ATOM      6  O   UNL     1       2.011   4.645  17.613  0.00  0.00    +0.000 OA
ATOM      7  H   UNL     1       1.192   4.717  18.135  0.00  0.00    +0.000 HD
ENDBRANCH   1   6
BRANCH   1   8
ATOM      8  C   UNL     1       3.608   5.921  18.906  0.00  0.00    +0.000 C 
BRANCH   8   9
ATOM      9  C   UNL     1       3.224   7.047  17.927  0.00  0.00    +0.000 C 
BRANCH   9  10
ATOM     10  C   UNL     1       2.274   8.037  18.567  0.00  0.00    +0.000 A 
ATOM     11  C   UNL     1       1.922   7.899  19.920  0.00  0.00    +0.000 A 
ATOM     12  C   UNL     1       1.035   8.796  20.527  0.00  0.00    +0.000 A 
ATOM     13  C   UNL     1       0.496   9.839  19.775  0.00  0.00    +0.000 A 
ATOM     14 CL   UNL     1      -0.586  10.955  20.515  0.00  0.00    +0.000 Cl
ATOM     15  C   UNL     1       0.831   9.986  18.432  0.00  0.00    +0.000 A 
ATOM     16  C   UNL     1       1.716   9.088  17.826  0.00  0.00    +0.000 A 
ENDBRANCH   9  10
ENDBRANCH   8   9
ENDBRANCH   1   8
BRANCH   1  17
ATOM     17  C   UNL     1       4.191   3.716  17.672  0.00  0.00    +0.000 C 
BRANCH  17  18
ATOM     18  N   UNL     1       5.506   4.294  17.565  0.00  0.00    +0.000 N 
ATOM     19  C   UNL     1       6.085   4.839  16.458  0.00  0.00    +0.000 A 
ATOM     20  N   UNL     1       7.318   5.191  16.738  0.00  0.00    +0.000 NA
ATOM     21  C   UNL     1       7.438   4.870  18.060  0.00  0.00    +0.000 A 
ATOM     22  N   UNL     1       6.343   4.349  18.618  0.00  0.00    +0.000 NA
ENDBRANCH  17  18
ENDBRANCH   1  17
TORSDOF 7
ENDMDL
