MODEL 1
REMARK VINA RESULT:      -9.2      0.000      0.000
REMARK  Name = 
REMARK  5 active torsions:
REMARK  status: ('A' for Active; 'I' for Inactive)
REMARK    1  A    between atoms: C_1  and  N_2
REMARK    2  A    between atoms: N_2  and  C_3
REMARK    3  A    between atoms: C_6  and  C_7
REMARK    4  A    between atoms: C_10  and  O_11
REMARK    5  A    between atoms: O_11  and  C_12
REMARK                            x       y       z     vdW  Elec       q    Type
REMARK                         _______ _______ _______ _____ _____    ______ ____
ROOT
ATOM      1  C   UNL     1       3.901   4.416  16.948  0.00  0.00    +0.000 C 
ATOM      2  C   UNL     1       4.431   5.866  17.093  0.00  0.00    +0.000 C 
ATOM      3  C   UNL     1       4.684   6.254  18.548  0.00  0.00    +0.000 C 
ATOM      4  C   UNL     1       3.413   6.131  19.405  0.00  0.00    +0.000 C 
ATOM      5  C   UNL     1       2.638   4.845  19.157  0.00  0.00    +0.000 A 
ATOM      6  C   UNL     1       1.616   4.488  20.054  0.00  0.00    +0.000 A 
ATOM      7  C   UNL     1       0.827   3.360  19.826  0.00  0.00    +0.000 A 
ATOM      8  C   UNL     1       1.041   2.578  18.694  0.00  0.00    +0.000 A 
ATOM      9  C   UNL     1       2.048   2.918  17.787  0.00  0.00    +0.000 A 
ATOM     10  C   UNL     1       2.857   4.050  17.999  0.00  0.00    +0.000 A 
ENDROOT
BRANCH   4  11
ATOM     11  C   UNL     1       2.472   7.309  19.215  0.00  0.00    +0.000 A 
ATOM     12  C   UNL     1       1.768   7.854  20.305  0.00  0.00    +0.000 A 
ATOM     13  C   UNL     1       0.985   8.986  20.145  0.00  0.00    +0.000 A 
ATOM     14  C   UNL     1       0.874   9.607  18.890  0.00  0.00    +0.000 A 
ATOM     15  C   UNL     1       1.522   9.040  17.786  0.00  0.00    +0.000 A 
ATOM     16  C   UNL     1       2.329   7.907  17.949  0.00  0.00    +0.000 A 
BRANCH  14  17
ATOM     17  O   UNL     1       0.162  10.753  18.742  0.00  0.00    +0.000 OA
BRANCH  17  18
ATOM     18  C   UNL     1      -1.157  10.797  18.397  0.00  0.00    +0.000 A 
ATOM     19  C   UNL     1      -1.693   9.947  17.403  0.00  0.00    +0.000 A 
ATOM     20  C   UNL     1      -3.043  10.017  17.061  0.00  0.00    +0.000 A 
ATOM     21  C   UNL     1      -3.879  10.925  17.710  0.00  0.00    +0.000 A 
ATOM     22  C   UNL     1      -3.365  11.759  18.707  0.00  0.00    +0.000 A 
ATOM     23  C   UNL     1      -2.010  11.692  19.054  0.00  0.00    +0.000 A 
ENDBRANCH  17  18
ENDBRANCH  14  17
ENDBRANCH   4  11
BRANCH   1  25
ATOM     24  C   UNL     1       5.947   3.590  15.767  0.00  0.00    +0.000 C 
ATOM     25  N   UNL     1       4.968   3.394  16.839  0.00  0.00    +0.000 NA
ATOM     26  H   UNL     1       5.480   3.330  17.750  0.00  0.00    +0.000 HD
ENDBRANCH   1  25
TORSDOF 4
ENDMDL
MODEL 2
REMARK VINA RESULT:      -8.6      1.551      3.367
REMARK  Name = 
REMARK  5 active torsions:
REMARK  status: ('A' for Active; 'I' for Inactive)
REMARK    1  A    between atoms: C_1  and  N_2
REMARK    2  A    between atoms: N_2  and  C_3
REMARK    3  A    between atoms: C_6  and  C_7
REMARK    4  A    between atoms: C_10  and  O_11
REMARK    5  A    between atoms: O_11  and  C_12
REMARK                            x       y       z     vdW  Elec       q    Type
REMARK                         _______ _______ _______ _____ _____    ______ ____
ROOT
ATOM      1  C   UNL     1       4.750   4.208  19.696  0.00  0.00    +0.000 C 
ATOM      2  C   UNL     1       3.208   4.378  19.681  0.00  0.00    +0.000 C 
ATOM      3  C   UNL     1       2.669   4.703  18.288  0.00  0.00    +0.000 C 
ATOM      4  C   UNL     1       3.290   5.989  17.718  0.00  0.00    +0.000 C 
ATOM      5  C   UNL     1       4.798   6.072  17.913  0.00  0.00    +0.000 A 
ATOM      6  C   UNL     1       5.517   7.055  17.211  0.00  0.00    +0.000 A 
ATOM      7  C   UNL     1       6.887   7.220  17.416  0.00  0.00    +0.000 A 
ATOM      8  C   UNL     1       7.557   6.412  18.331  0.00  0.00    +0.000 A 
ATOM      9  C   UNL     1       6.860   5.433  19.043  0.00  0.00    +0.000 A 
ATOM     10  C   UNL     1       5.478   5.247  18.849  0.00  0.00    +0.000 A 
ENDROOT
BRANCH   4  11
ATOM     11  C   UNL     1       2.656   7.243  18.296  0.00  0.00    +0.000 A 
ATOM     12  C   UNL     1       2.476   8.392  17.504  0.00  0.00    +0.000 A 
ATOM     13  C   UNL     1       1.813   9.500  18.008  0.00  0.00    +0.000 A 
ATOM     14  C   UNL     1       1.313   9.498  19.321  0.00  0.00    +0.000 A 
ATOM     15  C   UNL     1       1.539   8.383  20.138  0.00  0.00    +0.000 A 
ATOM     16  C   UNL     1       2.193   7.256  19.625  0.00  0.00    +0.000 A 
BRANCH  14  17
ATOM     17  O   UNL     1       0.606  10.554  19.798  0.00  0.00    +0.000 OA
BRANCH  17  18
ATOM     18  C   UNL     1      -0.651  10.883  19.384  0.00  0.00    +0.000 A 
ATOM     19  C   UNL     1      -1.297  10.181  18.341  0.00  0.00    +0.000 A 
ATOM     20  C   UNL     1      -2.579  10.543  17.928  0.00  0.00    +0.000 A 
ATOM     21  C   UNL     1      -3.239  11.600  18.554  0.00  0.00    +0.000 A 
ATOM     22  C   UNL     1      -2.618  12.291  19.599  0.00  0.00    +0.000 A 
ATOM     23  C   UNL     1      -1.331  11.931  20.017  0.00  0.00    +0.000 A 
ENDBRANCH  17  18
ENDBRANCH  14  17
ENDBRANCH   4  11
BRANCH   1  25
ATOM     24  C   UNL     1       4.253   1.755  19.700  0.00  0.00    +0.000 C 
ATOM     25  N   UNL     1       5.205   2.828  19.404  0.00  0.00    +0.000 NA
ATOM     26  H   UNL     1       5.480   2.762  18.396  0.00  0.00    +0.000 HD
ENDBRANCH   1  25
TORSDOF 4
ENDMDL
MODEL 3
REMARK VINA RESULT:      -8.5      0.393      1.058
REMARK  Name = 
REMARK  5 active torsions:
REMARK  status: ('A' for Active; 'I' for Inactive)
REMARK    1  A    between atoms: C_1  and  N_2
REMARK    2  A    between atoms: N_2  and  C_3
REMARK    3  A    between atoms: C_6  and  C_7
REMARK    4  A    between atoms: C_10  and  O_11
REMARK    5  A    between atoms: O_11  and  C_12
REMARK                            x       y       z     vdW  Elec       q    Type
REMARK                         _______ _______ _______ _____ _____    ______ ____
ROOT
ATOM      1  C   UNL     1       3.634   4.460  17.024  0.00  0.00    +0.000 C 
ATOM      2  C   UNL     1       4.287   5.859  17.166  0.00  0.00    +0.000 C 
ATOM      3  C   UNL     1       4.641   6.196  18.613  0.00  0.00    +0.000 C 
ATOM      4  C   UNL     1       3.407   6.158  19.530  0.00  0.00    +0.000 C 
ATOM      5  C   UNL     1       2.518   4.944  19.300  0.00  0.00    +0.000 A 
ATOM      6  C   UNL     1       1.515   4.652  20.241  0.00  0.00    +0.000 A 
ATOM      7  C   UNL     1       0.627   3.597  20.033  0.00  0.00    +0.000 A 
ATOM      8  C   UNL     1       0.721   2.824  18.879  0.00  0.00    +0.000 A 
ATOM      9  C   UNL     1       1.707   3.100  17.929  0.00  0.00    +0.000 A 
ATOM     10  C   UNL     1       2.616   4.158  18.120  0.00  0.00    +0.000 A 
ENDROOT
BRANCH   4  11
ATOM     11  C   UNL     1       2.558   7.413  19.408  0.00  0.00    +0.000 A 
ATOM     12  C   UNL     1       2.455   8.098  18.183  0.00  0.00    +0.000 A 
ATOM     13  C   UNL     1       1.606   9.185  18.052  0.00  0.00    +0.000 A 
ATOM     14  C   UNL     1       0.837   9.627  19.141  0.00  0.00    +0.000 A 
ATOM     15  C   UNL     1       0.976   8.990  20.380  0.00  0.00    +0.000 A 
ATOM     16  C   UNL     1       1.819   7.880  20.511  0.00  0.00    +0.000 A 
BRANCH  14  17
ATOM     17  O   UNL     1      -0.045  10.650  19.001  0.00  0.00    +0.000 OA
BRANCH  17  18
ATOM     18  C   UNL     1      -1.217  10.561  18.311  0.00  0.00    +0.000 A 
ATOM     19  C   UNL     1      -1.372   9.674  17.221  0.00  0.00    +0.000 A 
ATOM     20  C   UNL     1      -2.579   9.608  16.524  0.00  0.00    +0.000 A 
ATOM     21  C   UNL     1      -3.650  10.415  16.909  0.00  0.00    +0.000 A 
ATOM     22  C   UNL     1      -3.515  11.282  17.997  0.00  0.00    +0.000 A 
ATOM     23  C   UNL     1      -2.305  11.352  18.699  0.00  0.00    +0.000 A 
ENDBRANCH  17  18
ENDBRANCH  14  17
ENDBRANCH   4  11
BRANCH   1  25
ATOM     24  C   UNL     1       5.760   3.643  15.986  0.00  0.00    +0.000 C 
ATOM     25  N   UNL     1       4.607   3.358  16.844  0.00  0.00    +0.000 NA
ATOM     26  H   UNL     1       4.957   3.050  17.782  0.00  0.00    +0.000 HD
ENDBRANCH   1  25
TORSDOF 4
ENDMDL
MODEL 4
REMARK VINA RESULT:      -8.5      2.068      3.918
REMARK  Name = 
REMARK  5 active torsions:
REMARK  status: ('A' for Active; 'I' for Inactive)
REMARK    1  A    between atoms: C_1  and  N_2
REMARK    2  A    between atoms: N_2  and  C_3
REMARK    3  A    between atoms: C_6  and  C_7
REMARK    4  A    between atoms: C_10  and  O_11
REMARK    5  A    between atoms: O_11  and  C_12
REMARK                            x       y       z     vdW  Elec       q    Type
REMARK                         _______ _______ _______ _____ _____    ______ ____
ROOT
ATOM      1  C   UNL     1       4.553   4.038  19.566  0.00  0.00    +0.000 C 
ATOM      2  C   UNL     1       3.015   4.234  19.581  0.00  0.00    +0.000 C 
ATOM      3  C   UNL     1       2.463   4.642  18.216  0.00  0.00    +0.000 C 
ATOM      4  C   UNL     1       3.097   5.947  17.707  0.00  0.00    +0.000 C 
ATOM      5  C   UNL     1       4.608   5.995  17.885  0.00  0.00    +0.000 A 
ATOM      6  C   UNL     1       5.334   7.004  17.227  0.00  0.00    +0.000 A 
ATOM      7  C   UNL     1       6.709   7.136  17.421  0.00  0.00    +0.000 A 
ATOM      8  C   UNL     1       7.378   6.269  18.282  0.00  0.00    +0.000 A 
ATOM      9  C   UNL     1       6.674   5.263  18.950  0.00  0.00    +0.000 A 
ATOM     10  C   UNL     1       5.287   5.110  18.766  0.00  0.00    +0.000 A 
ENDROOT
BRANCH   4  11
ATOM     11  C   UNL     1       2.491   7.178  18.362  0.00  0.00    +0.000 A 
ATOM     12  C   UNL     1       2.108   8.290  17.591  0.00  0.00    +0.000 A 
ATOM     13  C   UNL     1       1.471   9.371  18.179  0.00  0.00    +0.000 A 
ATOM     14  C   UNL     1       1.201   9.378  19.558  0.00  0.00    +0.000 A 
ATOM     15  C   UNL     1       1.630   8.303  20.345  0.00  0.00    +0.000 A 
ATOM     16  C   UNL     1       2.258   7.201  19.749  0.00  0.00    +0.000 A 
BRANCH  14  17
ATOM     17  O   UNL     1       0.518  10.404  20.128  0.00  0.00    +0.000 OA
BRANCH  17  18
ATOM     18  C   UNL     1       0.600  11.701  19.716  0.00  0.00    +0.000 A 
ATOM     19  C   UNL     1       1.701  12.520  20.055  0.00  0.00    +0.000 A 
ATOM     20  C   UNL     1       1.757  13.847  19.631  0.00  0.00    +0.000 A 
ATOM     21  C   UNL     1       0.724  14.374  18.855  0.00  0.00    +0.000 A 
ATOM     22  C   UNL     1      -0.361  13.569  18.498  0.00  0.00    +0.000 A 
ATOM     23  C   UNL     1      -0.422  12.236  18.922  0.00  0.00    +0.000 A 
ENDBRANCH  17  18
ENDBRANCH  14  17
ENDBRANCH   4  11
BRANCH   1  25
ATOM     24  C   UNL     1       3.914   1.684  19.007  0.00  0.00    +0.000 C 
ATOM     25  N   UNL     1       4.981   2.669  19.192  0.00  0.00    +0.000 NA
ATOM     26  H   UNL     1       5.552   2.713  18.316  0.00  0.00    +0.000 HD
ENDBRANCH   1  25
TORSDOF 4
ENDMDL
MODEL 5
REMARK VINA RESULT:      -8.4      3.209      7.907
REMARK  Name = 
REMARK  5 active torsions:
REMARK  status: ('A' for Active; 'I' for Inactive)
REMARK    1  A    between atoms: C_1  and  N_2
REMARK    2  A    between atoms: N_2  and  C_3
REMARK    3  A    between atoms: C_6  and  C_7
REMARK    4  A    between atoms: C_10  and  O_11
REMARK    5  A    between atoms: O_11  and  C_12
REMARK                            x       y       z     vdW  Elec       q    Type
REMARK                         _______ _______ _______ _____ _____    ______ ____
ROOT
ATOM      1  C   UNL     1      -2.145  12.264  20.189  0.00  0.00    +0.000 C 
ATOM      2  C   UNL     1      -0.645  12.367  20.568  0.00  0.00    +0.000 C 
ATOM      3  C   UNL     1       0.255  12.559  19.349  0.00  0.00    +0.000 C 
ATOM      4  C   UNL     1       0.104  11.410  18.337  0.00  0.00    +0.000 C 
ATOM      5  C   UNL     1      -1.344  11.022  18.074  0.00  0.00    +0.000 A 
ATOM      6  C   UNL     1      -1.630  10.180  16.985  0.00  0.00    +0.000 A 
ATOM      7  C   UNL     1      -2.931   9.734  16.750  0.00  0.00    +0.000 A 
ATOM      8  C   UNL     1      -3.963  10.115  17.604  0.00  0.00    +0.000 A 
ATOM      9  C   UNL     1      -3.699  10.946  18.696  0.00  0.00    +0.000 A 
ATOM     10  C   UNL     1      -2.394  11.410  18.949  0.00  0.00    +0.000 A 
ENDROOT
BRANCH   4  11
ATOM     11  C   UNL     1       0.872  10.167  18.756  0.00  0.00    +0.000 A 
ATOM     12  C   UNL     1       0.684   9.596  20.027  0.00  0.00    +0.000 A 
ATOM     13  C   UNL     1       1.315   8.411  20.369  0.00  0.00    +0.000 A 
ATOM     14  C   UNL     1       2.159   7.760  19.455  0.00  0.00    +0.000 A 
ATOM     15  C   UNL     1       2.400   8.350  18.208  0.00  0.00    +0.000 A 
ATOM     16  C   UNL     1       1.750   9.538  17.853  0.00  0.00    +0.000 A 
BRANCH  14  17
ATOM     17  O   UNL     1       2.727   6.565  19.759  0.00  0.00    +0.000 OA
BRANCH  17  18
ATOM     18  C   UNL     1       2.118   5.360  19.579  0.00  0.00    +0.000 A 
ATOM     19  C   UNL     1       2.011   4.765  18.301  0.00  0.00    +0.000 A 
ATOM     20  C   UNL     1       1.374   3.535  18.139  0.00  0.00    +0.000 A 
ATOM     21  C   UNL     1       0.844   2.875  19.248  0.00  0.00    +0.000 A 
ATOM     22  C   UNL     1       0.959   3.444  20.520  0.00  0.00    +0.000 A 
ATOM     23  C   UNL     1       1.598   4.679  20.687  0.00  0.00    +0.000 A 
ENDBRANCH  17  18
ENDBRANCH  14  17
ENDBRANCH   4  11
BRANCH   1  25
ATOM     24  C   UNL     1      -2.569  14.510  21.210  0.00  0.00    +0.000 C 
ATOM     25  N   UNL     1      -2.838  13.572  20.117  0.00  0.00    +0.000 NA
ATOM     26  H   UNL     1      -2.602  14.038  19.210  0.00  0.00    +0.000 HD
ENDBRANCH   1  25
TORSDOF 4
ENDMDL
MODEL 6
REMARK VINA RESULT:      -8.3      3.163      7.950
REMARK  Name = 
REMARK  5 active torsions:
REMARK  status: ('A' for Active; 'I' for Inactive)
REMARK    1  A    between atoms: C_1  and  N_2
REMARK    2  A    between atoms: N_2  and  C_3
REMARK    3  A    between atoms: C_6  and  C_7
REMARK    4  A    between atoms: C_10  and  O_11
REMARK    5  A    between atoms: O_11  and  C_12
REMARK                            x       y       z     vdW  Elec       q    Type
REMARK                         _______ _______ _______ _____ _____    ______ ____
ROOT
ATOM      1  C   UNL     1      -1.794  12.585  20.152  0.00  0.00    +0.000 C 
ATOM      2  C   UNL     1      -0.271  12.589  20.443  0.00  0.00    +0.000 C 
ATOM      3  C   UNL     1       0.569  12.602  19.167  0.00  0.00    +0.000 C 
ATOM      4  C   UNL     1       0.266  11.393  18.267  0.00  0.00    +0.000 C 
ATOM      5  C   UNL     1      -1.222  11.110  18.113  0.00  0.00    +0.000 A 
ATOM      6  C   UNL     1      -1.639  10.210  17.116  0.00  0.00    +0.000 A 
ATOM      7  C   UNL     1      -2.984   9.861  16.988  0.00  0.00    +0.000 A 
ATOM      8  C   UNL     1      -3.929  10.397  17.859  0.00  0.00    +0.000 A 
ATOM      9  C   UNL     1      -3.535  11.289  18.859  0.00  0.00    +0.000 A 
ATOM     10  C   UNL     1      -2.184  11.657  19.004  0.00  0.00    +0.000 A 
ENDROOT
BRANCH   4  11
ATOM     11  C   UNL     1       0.954  10.126  18.750  0.00  0.00    +0.000 A 
ATOM     12  C   UNL     1       0.690   9.605  20.030  0.00  0.00    +0.000 A 
ATOM     13  C   UNL     1       1.246   8.401  20.431  0.00  0.00    +0.000 A 
ATOM     14  C   UNL     1       2.089   7.680  19.568  0.00  0.00    +0.000 A 
ATOM     15  C   UNL     1       2.405   8.218  18.314  0.00  0.00    +0.000 A 
ATOM     16  C   UNL     1       1.830   9.426  17.901  0.00  0.00    +0.000 A 
BRANCH  14  17
ATOM     17  O   UNL     1       2.583   6.469  19.929  0.00  0.00    +0.000 OA
BRANCH  17  18
ATOM     18  C   UNL     1       2.069   5.277  19.513  0.00  0.00    +0.000 A 
ATOM     19  C   UNL     1       1.356   4.428  20.391  0.00  0.00    +0.000 A 
ATOM     20  C   UNL     1       0.848   3.209  19.944  0.00  0.00    +0.000 A 
ATOM     21  C   UNL     1       1.033   2.822  18.617  0.00  0.00    +0.000 A 
ATOM     22  C   UNL     1       1.720   3.660  17.734  0.00  0.00    +0.000 A 
ATOM     23  C   UNL     1       2.233   4.886  18.178  0.00  0.00    +0.000 A 
ENDBRANCH  17  18
ENDBRANCH  14  17
ENDBRANCH   4  11
BRANCH   1  25
ATOM     24  C   UNL     1      -1.805  14.990  20.843  0.00  0.00    +0.000 C 
ATOM     25  N   UNL     1      -2.381  13.937  20.004  0.00  0.00    +0.000 NA
ATOM     26  H   UNL     1      -2.315  14.234  19.002  0.00  0.00    +0.000 HD
ENDBRANCH   1  25
TORSDOF 4
ENDMDL
MODEL 7
REMARK VINA RESULT:      -8.3      1.837      2.600
REMARK  Name = 
REMARK  5 active torsions:
REMARK  status: ('A' for Active; 'I' for Inactive)
REMARK    1  A    between atoms: C_1  and  N_2
REMARK    2  A    between atoms: N_2  and  C_3
REMARK    3  A    between atoms: C_6  and  C_7
REMARK    4  A    between atoms: C_10  and  O_11
REMARK    5  A    between atoms: O_11  and  C_12
REMARK                            x       y       z     vdW  Elec       q    Type
REMARK                         _______ _______ _______ _____ _____    ______ ____
ROOT
ATOM      1  C   UNL     1       3.803   4.335  16.994  0.00  0.00    +0.000 C 
ATOM      2  C   UNL     1       4.367   5.772  17.139  0.00  0.00    +0.000 C 
ATOM      3  C   UNL     1       4.658   6.142  18.593  0.00  0.00    +0.000 C 
ATOM      4  C   UNL     1       3.402   6.038  19.475  0.00  0.00    +0.000 C 
ATOM      5  C   UNL     1       2.594   4.771  19.231  0.00  0.00    +0.000 A 
ATOM      6  C   UNL     1       1.584   4.428  20.147  0.00  0.00    +0.000 A 
ATOM      7  C   UNL     1       0.766   3.320  19.925  0.00  0.00    +0.000 A 
ATOM      8  C   UNL     1       0.940   2.543  18.782  0.00  0.00    +0.000 A 
ATOM      9  C   UNL     1       1.935   2.870  17.857  0.00  0.00    +0.000 A 
ATOM     10  C   UNL     1       2.773   3.982  18.063  0.00  0.00    +0.000 A 
ENDROOT
BRANCH   4  11
ATOM     11  C   UNL     1       2.483   7.238  19.315  0.00  0.00    +0.000 A 
ATOM     12  C   UNL     1       1.829   7.799  20.427  0.00  0.00    +0.000 A 
ATOM     13  C   UNL     1       1.067   8.949  20.291  0.00  0.00    +0.000 A 
ATOM     14  C   UNL     1       0.929   9.572  19.040  0.00  0.00    +0.000 A 
ATOM     15  C   UNL     1       1.528   8.990  17.916  0.00  0.00    +0.000 A 
ATOM     16  C   UNL     1       2.312   7.838  18.053  0.00  0.00    +0.000 A 
BRANCH  14  17
ATOM     17  O   UNL     1       0.239  10.735  18.914  0.00  0.00    +0.000 OA
BRANCH  17  18
ATOM     18  C   UNL     1       0.716  11.953  19.295  0.00  0.00    +0.000 A 
ATOM     19  C   UNL     1       0.205  12.630  20.426  0.00  0.00    +0.000 A 
ATOM     20  C   UNL     1       0.702  13.881  20.791  0.00  0.00    +0.000 A 
ATOM     21  C   UNL     1       1.721  14.471  20.043  0.00  0.00    +0.000 A 
ATOM     22  C   UNL     1       2.247  13.804  18.933  0.00  0.00    +0.000 A 
ATOM     23  C   UNL     1       1.751  12.547  18.562  0.00  0.00    +0.000 A 
ENDBRANCH  17  18
ENDBRANCH  14  17
ENDBRANCH   4  11
BRANCH   1  25
ATOM     24  C   UNL     1       5.956   3.601  15.950  0.00  0.00    +0.000 C 
ATOM     25  N   UNL     1       4.845   3.291  16.854  0.00  0.00    +0.000 NA
ATOM     26  H   UNL     1       5.236   3.065  17.798  0.00  0.00    +0.000 HD
ENDBRANCH   1  25
TORSDOF 4
ENDMDL
MODEL 8
REMARK VINA RESULT:      -8.3      1.592      2.255
REMARK  Name = 
REMARK  5 active torsions:
REMARK  status: ('A' for Active; 'I' for Inactive)
REMARK    1  A    between atoms: C_1  and  N_2
REMARK    2  A    between atoms: N_2  and  C_3
REMARK    3  A    between atoms: C_6  and  C_7
REMARK    4  A    between atoms: C_10  and  O_11
REMARK    5  A    between atoms: O_11  and  C_12
REMARK                            x       y       z     vdW  Elec       q    Type
REMARK                         _______ _______ _______ _____ _____    ______ ____
ROOT
ATOM      1  C   UNL     1       3.884   4.353  16.959  0.00  0.00    +0.000 C 
ATOM      2  C   UNL     1       4.430   5.795  17.128  0.00  0.00    +0.000 C 
ATOM      3  C   UNL     1       4.702   6.149  18.589  0.00  0.00    +0.000 C 
ATOM      4  C   UNL     1       3.439   6.020  19.457  0.00  0.00    +0.000 C 
ATOM      5  C   UNL     1       2.649   4.747  19.190  0.00  0.00    +0.000 A 
ATOM      6  C   UNL     1       1.633   4.380  20.091  0.00  0.00    +0.000 A 
ATOM      7  C   UNL     1       0.831   3.265  19.847  0.00  0.00    +0.000 A 
ATOM      8  C   UNL     1       1.025   2.506  18.696  0.00  0.00    +0.000 A 
ATOM      9  C   UNL     1       2.025   2.856  17.785  0.00  0.00    +0.000 A 
ATOM     10  C   UNL     1       2.848   3.975  18.013  0.00  0.00    +0.000 A 
ENDROOT
BRANCH   4  11
ATOM     11  C   UNL     1       2.508   7.211  19.304  0.00  0.00    +0.000 A 
ATOM     12  C   UNL     1       1.841   7.754  20.417  0.00  0.00    +0.000 A 
ATOM     13  C   UNL     1       1.067   8.897  20.288  0.00  0.00    +0.000 A 
ATOM     14  C   UNL     1       0.930   9.531  19.042  0.00  0.00    +0.000 A 
ATOM     15  C   UNL     1       1.541   8.966  17.916  0.00  0.00    +0.000 A 
ATOM     16  C   UNL     1       2.338   7.822  18.047  0.00  0.00    +0.000 A 
BRANCH  14  17
ATOM     17  O   UNL     1       0.228  10.687  18.923  0.00  0.00    +0.000 OA
BRANCH  17  18
ATOM     18  C   UNL     1       0.066  11.591  19.930  0.00  0.00    +0.000 A 
ATOM     19  C   UNL     1       1.047  12.566  20.219  0.00  0.00    +0.000 A 
ATOM     20  C   UNL     1       0.863  13.474  21.261  0.00  0.00    +0.000 A 
ATOM     21  C   UNL     1      -0.305  13.431  22.023  0.00  0.00    +0.000 A 
ATOM     22  C   UNL     1      -1.292  12.484  21.736  0.00  0.00    +0.000 A 
ATOM     23  C   UNL     1      -1.110  11.569  20.690  0.00  0.00    +0.000 A 
ENDBRANCH  17  18
ENDBRANCH  14  17
ENDBRANCH   4  11
BRANCH   1  25
ATOM     24  C   UNL     1       6.012   3.622  15.864  0.00  0.00    +0.000 C 
ATOM     25  N   UNL     1       4.940   3.324  16.816  0.00  0.00    +0.000 NA
ATOM     26  H   UNL     1       5.367   3.136  17.752  0.00  0.00    +0.000 HD
ENDBRANCH   1  25
TORSDOF 4
ENDMDL
MODEL 9
REMARK VINA RESULT:      -8.2      3.256      8.165
REMARK  Name = 
REMARK  5 active torsions:
REMARK  status: ('A' for Active; 'I' for Inactive)
REMARK    1  A    between atoms: C_1  and  N_2
REMARK    2  A    between atoms: N_2  and  C_3
REMARK    3  A    between atoms: C_6  and  C_7
REMARK    4  A    between atoms: C_10  and  O_11
REMARK    5  A    between atoms: O_11  and  C_12
REMARK                            x       y       z     vdW  Elec       q    Type
REMARK                         _______ _______ _______ _____ _____    ______ ____
ROOT
ATOM      1  C   UNL     1      -2.262  12.418  20.323  0.00  0.00    +0.000 C 
ATOM      2  C   UNL     1      -0.779  12.335  20.767  0.00  0.00    +0.000 C 
ATOM      3  C   UNL     1       0.193  12.551  19.607  0.00  0.00    +0.000 C 
ATOM      4  C   UNL     1      -0.019  11.524  18.482  0.00  0.00    +0.000 C 
ATOM      5  C   UNL     1      -1.484  11.308  18.127  0.00  0.00    +0.000 A 
ATOM      6  C   UNL     1      -1.797  10.606  16.950  0.00  0.00    +0.000 A 
ATOM      7  C   UNL     1      -3.122  10.316  16.623  0.00  0.00    +0.000 A 
ATOM      8  C   UNL     1      -4.152  10.715  17.471  0.00  0.00    +0.000 A 
ATOM      9  C   UNL     1      -3.862  11.409  18.648  0.00  0.00    +0.000 A 
ATOM     10  C   UNL     1      -2.532  11.714  18.996  0.00  0.00    +0.000 A 
ENDROOT
BRANCH   4  11
ATOM     11  C   UNL     1       0.606  10.177  18.804  0.00  0.00    +0.000 A 
ATOM     12  C   UNL     1       1.392   9.500  17.853  0.00  0.00    +0.000 A 
ATOM     13  C   UNL     1       2.037   8.318  18.182  0.00  0.00    +0.000 A 
ATOM     14  C   UNL     1       1.913   7.771  19.470  0.00  0.00    +0.000 A 
ATOM     15  C   UNL     1       1.087   8.405  20.406  0.00  0.00    +0.000 A 
ATOM     16  C   UNL     1       0.449   9.608  20.081  0.00  0.00    +0.000 A 
BRANCH  14  17
ATOM     17  O   UNL     1       2.595   6.650  19.818  0.00  0.00    +0.000 OA
BRANCH  17  18
ATOM     18  C   UNL     1       2.105   5.385  19.691  0.00  0.00    +0.000 A 
ATOM     19  C   UNL     1       1.996   4.753  18.431  0.00  0.00    +0.000 A 
ATOM     20  C   UNL     1       1.481   3.462  18.325  0.00  0.00    +0.000 A 
ATOM     21  C   UNL     1       1.078   2.777  19.471  0.00  0.00    +0.000 A 
ATOM     22  C   UNL     1       1.198   3.383  20.725  0.00  0.00    +0.000 A 
ATOM     23  C   UNL     1       1.714   4.681  20.836  0.00  0.00    +0.000 A 
ENDBRANCH  17  18
ENDBRANCH  14  17
ENDBRANCH   4  11
BRANCH   1  25
ATOM     24  C   UNL     1      -2.541  14.578  21.556  0.00  0.00    +0.000 C 
ATOM     25  N   UNL     1      -2.823  13.789  20.354  0.00  0.00    +0.000 NA
ATOM     26  H   UNL     1      -2.484  14.320  19.519  0.00  0.00    +0.000 HD
ENDBRANCH   1  25
TORSDOF 4
ENDMDL
