MODEL 1
REMARK VINA RESULT:      -7.7      0.000      0.000
REMARK  Name = 
REMARK  4 active torsions:
REMARK  status: ('A' for Active; 'I' for Inactive)
REMARK    1  A    between atoms: C_2  and  C_4
REMARK    2  A    between atoms: C_9  and  C_11
REMARK    3  A    between atoms: C_13  and  O_14
REMARK    4  A    between atoms: O_14  and  C_15
REMARK                            x       y       z     vdW  Elec       q    Type
REMARK                         _______ _______ _______ _____ _____    ______ ____
ROOT
ATOM      1  C   UNL     1       0.271  10.749  20.316  0.00  0.00    +0.000 A 
ATOM      2  C   UNL     1       0.199  10.734  21.699  0.00  0.00    +0.000 A 
ATOM      3  S   UNL     1       0.777   9.232  22.300  0.00  0.00    +0.000 S 
ATOM      4  C   UNL     1       1.150   8.760  20.706  0.00  0.00    +0.000 A 
ATOM      5  N   UNL     1       1.774   7.553  20.591  0.00  0.00    +0.000 N 
ATOM      6  C   UNL     1       2.331   7.141  19.402  0.00  0.00    +0.000 C 
ATOM      7  O   UNL     1       2.315   7.736  18.330  0.00  0.00    +0.000 OA
ATOM      8  N   UNL     1       0.827   9.599  19.758  0.00  0.00    +0.000 NA
ATOM      9  H   UNL     1       1.913   6.984  21.417  0.00  0.00    +0.000 HD
ENDROOT
BRANCH   6  10
ATOM     10  C   UNL     1       3.042   5.830  19.497  0.00  0.00    +0.000 A 
ATOM     11  C   UNL     1       4.309   5.710  18.945  0.00  0.00    +0.000 A 
ATOM     12  C   UNL     1       4.916   4.460  18.973  0.00  0.00    +0.000 A 
ATOM     13  C   UNL     1       4.282   3.404  19.620  0.00  0.00    +0.000 A 
ATOM     14  C   UNL     1       3.029   3.626  20.170  0.00  0.00    +0.000 A 
ATOM     15  N   UNL     1       2.381   4.812  20.118  0.00  0.00    +0.000 NA
BRANCH  12  16
ATOM     16  O   UNL     1       6.158   4.197  18.435  0.00  0.00    +0.000 OA
BRANCH  16  17
ATOM     17  C   UNL     1       6.349   4.383  17.096  0.00  0.00    +0.000 A 
ATOM     18  C   UNL     1       7.301   5.292  16.677  0.00  0.00    +0.000 A 
ATOM     19  N   UNL     1       7.555   5.569  15.379  0.00  0.00    +0.000 NA
ATOM     20  C   UNL     1       6.825   4.884  14.483  0.00  0.00    +0.000 A 
ATOM     21  N   UNL     1       5.914   3.943  14.767  0.00  0.00    +0.000 NA
ATOM     22  C   UNL     1       5.709   3.703  16.079  0.00  0.00    +0.000 A 
ENDBRANCH  16  17
ENDBRANCH  12  16
ENDBRANCH   6  10
BRANCH   1  24
ATOM     23  N   UNL     1       0.642  12.082  18.399  0.00  0.00    +0.000 N 
ATOM     24  C   UNL     1      -0.175  11.854  19.472  0.00  0.00    +0.000 C 
ATOM     25  O   UNL     1      -1.180  12.522  19.682  0.00  0.00    +0.000 OA
ATOM     26  H   UNL     1       0.440  12.836  17.763  0.00  0.00    +0.000 HD
ATOM     27  H   UNL     1       1.477  11.514  18.284  0.00  0.00    +0.000 HD
ENDBRANCH   1  24
TORSDOF 4
ENDMDL
MODEL 2
REMARK VINA RESULT:      -7.7      0.400      1.042
REMARK  Name = 
REMARK  4 active torsions:
REMARK  status: ('A' for Active; 'I' for Inactive)
REMARK    1  A    between atoms: C_2  and  C_4
REMARK    2  A    between atoms: C_9  and  C_11
REMARK    3  A    between atoms: C_13  and  O_14
REMARK    4  A    between atoms: O_14  and  C_15
REMARK                            x       y       z     vdW  Elec       q    Type
REMARK                         _______ _______ _______ _____ _____    ______ ____
ROOT
ATOM      1  C   UNL     1       0.369  10.912  20.418  0.00  0.00    +0.000 A 
ATOM      2  C   UNL     1       0.158  10.827  21.784  0.00  0.00    +0.000 A 
ATOM      3  S   UNL     1       0.612   9.270  22.352  0.00  0.00    +0.000 S 
ATOM      4  C   UNL     1       1.123   8.866  20.778  0.00  0.00    +0.000 A 
ATOM      5  N   UNL     1       1.707   7.640  20.656  0.00  0.00    +0.000 N 
ATOM      6  C   UNL     1       2.363   7.267  19.506  0.00  0.00    +0.000 C 
ATOM      7  O   UNL     1       2.479   7.917  18.473  0.00  0.00    +0.000 OA
ATOM      8  N   UNL     1       0.931   9.768  19.852  0.00  0.00    +0.000 NA
ATOM      9  H   UNL     1       1.739   7.023  21.458  0.00  0.00    +0.000 HD
ENDROOT
BRANCH   6  10
ATOM     10  C   UNL     1       3.008   5.921  19.595  0.00  0.00    +0.000 A 
ATOM     11  C   UNL     1       4.269   5.741  19.048  0.00  0.00    +0.000 A 
ATOM     12  C   UNL     1       4.814   4.462  19.069  0.00  0.00    +0.000 A 
ATOM     13  C   UNL     1       4.125   3.435  19.707  0.00  0.00    +0.000 A 
ATOM     14  C   UNL     1       2.882   3.716  20.253  0.00  0.00    +0.000 A 
ATOM     15  N   UNL     1       2.295   4.933  20.207  0.00  0.00    +0.000 NA
BRANCH  12  16
ATOM     16  O   UNL     1       6.043   4.141  18.535  0.00  0.00    +0.000 OA
BRANCH  16  17
ATOM     17  C   UNL     1       6.291   4.439  17.225  0.00  0.00    +0.000 A 
ATOM     18  C   UNL     1       5.556   3.803  16.245  0.00  0.00    +0.000 A 
ATOM     19  N   UNL     1       5.734   4.007  14.921  0.00  0.00    +0.000 NA
ATOM     20  C   UNL     1       6.681   4.900  14.591  0.00  0.00    +0.000 A 
ATOM     21  N   UNL     1       7.419   5.616  15.451  0.00  0.00    +0.000 NA
ATOM     22  C   UNL     1       7.192   5.376  16.759  0.00  0.00    +0.000 A 
ENDBRANCH  16  17
ENDBRANCH  12  16
ENDBRANCH   6  10
BRANCH   1  24
ATOM     23  N   UNL     1      -0.245  11.767  18.301  0.00  0.00    +0.000 N 
ATOM     24  C   UNL     1       0.055  12.079  19.599  0.00  0.00    +0.000 C 
ATOM     25  O   UNL     1       0.050  13.232  20.012  0.00  0.00    +0.000 OA
ATOM     26  H   UNL     1      -0.456  12.499  17.642  0.00  0.00    +0.000 HD
ATOM     27  H   UNL     1      -0.204  10.796  18.004  0.00  0.00    +0.000 HD
ENDBRANCH   1  24
TORSDOF 4
ENDMDL
MODEL 3
REMARK VINA RESULT:      -7.5      2.268      2.802
REMARK  Name = 
REMARK  4 active torsions:
REMARK  status: ('A' for Active; 'I' for Inactive)
REMARK    1  A    between atoms: C_2  and  C_4
REMARK    2  A    between atoms: C_9  and  C_11
REMARK    3  A    between atoms: C_13  and  O_14
REMARK    4  A    between atoms: O_14  and  C_15
REMARK                            x       y       z     vdW  Elec       q    Type
REMARK                         _______ _______ _______ _____ _____    ______ ____
ROOT
ATOM      1  C   UNL     1       0.352   9.959  21.310  0.00  0.00    +0.000 A 
ATOM      2  C   UNL     1       0.398  10.785  20.199  0.00  0.00    +0.000 A 
ATOM      3  S   UNL     1       1.258  10.012  18.928  0.00  0.00    +0.000 S 
ATOM      4  C   UNL     1       1.428   8.630  19.910  0.00  0.00    +0.000 A 
ATOM      5  N   UNL     1       2.028   7.564  19.308  0.00  0.00    +0.000 N 
ATOM      6  C   UNL     1       2.037   6.318  19.894  0.00  0.00    +0.000 C 
ATOM      7  O   UNL     1       1.575   6.008  20.987  0.00  0.00    +0.000 OA
ATOM      8  N   UNL     1       0.951   8.714  21.123  0.00  0.00    +0.000 NA
ATOM      9  H   UNL     1       2.397   7.664  18.371  0.00  0.00    +0.000 HD
ENDROOT
BRANCH   6  10
ATOM     10  C   UNL     1       2.668   5.263  19.044  0.00  0.00    +0.000 A 
ATOM     11  C   UNL     1       4.014   5.369  18.728  0.00  0.00    +0.000 A 
ATOM     12  C   UNL     1       4.559   4.421  17.869  0.00  0.00    +0.000 A 
ATOM     13  C   UNL     1       3.772   3.362  17.428  0.00  0.00    +0.000 A 
ATOM     14  C   UNL     1       2.442   3.323  17.821  0.00  0.00    +0.000 A 
ATOM     15  N   UNL     1       1.861   4.252  18.612  0.00  0.00    +0.000 NA
BRANCH  12  16
ATOM     16  O   UNL     1       5.874   4.427  17.453  0.00  0.00    +0.000 OA
BRANCH  16  17
ATOM     17  C   UNL     1       6.635   5.536  17.691  0.00  0.00    +0.000 A 
ATOM     18  C   UNL     1       6.519   6.620  16.846  0.00  0.00    +0.000 A 
ATOM     19  N   UNL     1       7.240   7.756  16.977  0.00  0.00    +0.000 NA
ATOM     20  C   UNL     1       8.092   7.789  18.014  0.00  0.00    +0.000 A 
ATOM     21  N   UNL     1       8.254   6.822  18.929  0.00  0.00    +0.000 NA
ATOM     22  C   UNL     1       7.501   5.716  18.751  0.00  0.00    +0.000 A 
ENDBRANCH  16  17
ENDBRANCH  12  16
ENDBRANCH   6  10
BRANCH   1  24
ATOM     23  N   UNL     1      -0.697   9.229  23.298  0.00  0.00    +0.000 N 
ATOM     24  C   UNL     1      -0.266  10.312  22.585  0.00  0.00    +0.000 C 
ATOM     25  O   UNL     1      -0.393  11.459  22.997  0.00  0.00    +0.000 OA
ATOM     26  H   UNL     1      -1.159   9.359  24.184  0.00  0.00    +0.000 HD
ATOM     27  H   UNL     1      -0.589   8.300  22.900  0.00  0.00    +0.000 HD
ENDBRANCH   1  24
TORSDOF 4
ENDMDL
MODEL 4
REMARK VINA RESULT:      -7.5      1.550      1.706
REMARK  Name = 
REMARK  4 active torsions:
REMARK  status: ('A' for Active; 'I' for Inactive)
REMARK    1  A    between atoms: C_2  and  C_4
REMARK    2  A    between atoms: C_9  and  C_11
REMARK    3  A    between atoms: C_13  and  O_14
REMARK    4  A    between atoms: O_14  and  C_15
REMARK                            x       y       z     vdW  Elec       q    Type
REMARK                         _______ _______ _______ _____ _____    ______ ____
ROOT
ATOM      1  C   UNL     1       0.273  10.264  19.887  0.00  0.00    +0.000 A 
ATOM      2  C   UNL     1       0.683  10.719  18.645  0.00  0.00    +0.000 A 
ATOM      3  S   UNL     1       1.847   9.644  17.982  0.00  0.00    +0.000 S 
ATOM      4  C   UNL     1       1.656   8.630  19.338  0.00  0.00    +0.000 A 
ATOM      5  N   UNL     1       2.360   7.463  19.292  0.00  0.00    +0.000 N 
ATOM      6  C   UNL     1       2.138   6.453  20.200  0.00  0.00    +0.000 C 
ATOM      7  O   UNL     1       1.360   6.464  21.147  0.00  0.00    +0.000 OA
ATOM      8  N   UNL     1       0.844   9.051  20.271  0.00  0.00    +0.000 NA
ATOM      9  H   UNL     1       2.995   7.296  18.521  0.00  0.00    +0.000 HD
ENDROOT
BRANCH   6  10
ATOM     10  C   UNL     1       2.946   5.224  19.935  0.00  0.00    +0.000 A 
ATOM     11  C   UNL     1       4.219   5.357  19.402  0.00  0.00    +0.000 A 
ATOM     12  C   UNL     1       4.919   4.197  19.086  0.00  0.00    +0.000 A 
ATOM     13  C   UNL     1       4.364   2.958  19.391  0.00  0.00    +0.000 A 
ATOM     14  C   UNL     1       3.096   2.924  19.951  0.00  0.00    +0.000 A 
ATOM     15  N   UNL     1       2.362   4.026  20.224  0.00  0.00    +0.000 NA
BRANCH  12  16
ATOM     16  O   UNL     1       6.178   4.188  18.526  0.00  0.00    +0.000 OA
BRANCH  16  17
ATOM     17  C   UNL     1       6.304   4.410  17.184  0.00  0.00    +0.000 A 
ATOM     18  C   UNL     1       7.278   5.280  16.739  0.00  0.00    +0.000 A 
ATOM     19  N   UNL     1       7.474   5.587  15.437  0.00  0.00    +0.000 NA
ATOM     20  C   UNL     1       6.659   4.972  14.565  0.00  0.00    +0.000 A 
ATOM     21  N   UNL     1       5.715   4.071  14.872  0.00  0.00    +0.000 NA
ATOM     22  C   UNL     1       5.571   3.798  16.186  0.00  0.00    +0.000 A 
ENDBRANCH  16  17
ENDBRANCH  12  16
ENDBRANCH   6  10
BRANCH   1  24
ATOM     23  N   UNL     1      -0.559  10.614  22.072  0.00  0.00    +0.000 N 
ATOM     24  C   UNL     1      -0.680  10.953  20.753  0.00  0.00    +0.000 C 
ATOM     25  O   UNL     1      -1.511  11.762  20.360  0.00  0.00    +0.000 OA
ATOM     26  H   UNL     1      -1.182  11.014  22.755  0.00  0.00    +0.000 HD
ATOM     27  H   UNL     1       0.132   9.919  22.342  0.00  0.00    +0.000 HD
ENDBRANCH   1  24
TORSDOF 4
ENDMDL
MODEL 5
REMARK VINA RESULT:      -7.5      2.443      2.832
REMARK  Name = 
REMARK  4 active torsions:
REMARK  status: ('A' for Active; 'I' for Inactive)
REMARK    1  A    between atoms: C_2  and  C_4
REMARK    2  A    between atoms: C_9  and  C_11
REMARK    3  A    between atoms: C_13  and  O_14
REMARK    4  A    between atoms: O_14  and  C_15
REMARK                            x       y       z     vdW  Elec       q    Type
REMARK                         _______ _______ _______ _____ _____    ______ ____
ROOT
ATOM      1  C   UNL     1       0.462   9.647  21.601  0.00  0.00    +0.000 A 
ATOM      2  C   UNL     1       0.476  10.508  20.516  0.00  0.00    +0.000 A 
ATOM      3  S   UNL     1       1.281   9.767  19.191  0.00  0.00    +0.000 S 
ATOM      4  C   UNL     1       1.471   8.353  20.122  0.00  0.00    +0.000 A 
ATOM      5  N   UNL     1       2.038   7.300  19.465  0.00  0.00    +0.000 N 
ATOM      6  C   UNL     1       2.054   6.037  20.011  0.00  0.00    +0.000 C 
ATOM      7  O   UNL     1       1.630   5.697  21.110  0.00  0.00    +0.000 OA
ATOM      8  N   UNL     1       1.041   8.403  21.354  0.00  0.00    +0.000 NA
ATOM      9  H   UNL     1       2.373   7.427  18.519  0.00  0.00    +0.000 HD
ENDROOT
BRANCH   6  10
ATOM     10  C   UNL     1       2.642   5.003  19.106  0.00  0.00    +0.000 A 
ATOM     11  C   UNL     1       3.952   5.152  18.675  0.00  0.00    +0.000 A 
ATOM     12  C   UNL     1       4.450   4.223  17.768  0.00  0.00    +0.000 A 
ATOM     13  C   UNL     1       3.661   3.140  17.394  0.00  0.00    +0.000 A 
ATOM     14  C   UNL     1       2.373   3.057  17.900  0.00  0.00    +0.000 A 
ATOM     15  N   UNL     1       1.833   3.967  18.742  0.00  0.00    +0.000 NA
BRANCH  12  16
ATOM     16  O   UNL     1       5.722   4.271  17.239  0.00  0.00    +0.000 OA
BRANCH  16  17
ATOM     17  C   UNL     1       6.496   5.370  17.482  0.00  0.00    +0.000 A 
ATOM     18  C   UNL     1       7.330   5.370  18.582  0.00  0.00    +0.000 A 
ATOM     19  N   UNL     1       8.119   6.412  18.926  0.00  0.00    +0.000 NA
ATOM     20  C   UNL     1       8.065   7.479  18.112  0.00  0.00    +0.000 A 
ATOM     21  N   UNL     1       7.336   7.574  16.990  0.00  0.00    +0.000 NA
ATOM     22  C   UNL     1       6.574   6.500  16.693  0.00  0.00    +0.000 A 
ENDBRANCH  16  17
ENDBRANCH  12  16
ENDBRANCH   6  10
BRANCH   1  24
ATOM     23  N   UNL     1      -1.206  10.774  22.841  0.00  0.00    +0.000 N 
ATOM     24  C   UNL     1      -0.104   9.966  22.908  0.00  0.00    +0.000 C 
ATOM     25  O   UNL     1       0.343   9.560  23.974  0.00  0.00    +0.000 OA
ATOM     26  H   UNL     1      -1.664  11.074  23.686  0.00  0.00    +0.000 HD
ATOM     27  H   UNL     1      -1.522  11.103  21.933  0.00  0.00    +0.000 HD
ENDBRANCH   1  24
TORSDOF 4
ENDMDL
MODEL 6
REMARK VINA RESULT:      -7.5      4.967      7.154
REMARK  Name = 
REMARK  4 active torsions:
REMARK  status: ('A' for Active; 'I' for Inactive)
REMARK    1  A    between atoms: C_2  and  C_4
REMARK    2  A    between atoms: C_9  and  C_11
REMARK    3  A    between atoms: C_13  and  O_14
REMARK    4  A    between atoms: O_14  and  C_15
REMARK                            x       y       z     vdW  Elec       q    Type
REMARK                         _______ _______ _______ _____ _____    ______ ____
ROOT
ATOM      1  C   UNL     1       9.692  11.362  19.350  0.00  0.00    +0.000 A 
ATOM      2  C   UNL     1       9.051  12.362  18.637  0.00  0.00    +0.000 A 
ATOM      3  S   UNL     1       8.027  11.667  17.444  0.00  0.00    +0.000 S 
ATOM      4  C   UNL     1       8.446  10.118  18.016  0.00  0.00    +0.000 A 
ATOM      5  N   UNL     1       7.790   9.084  17.416  0.00  0.00    +0.000 N 
ATOM      6  C   UNL     1       7.855   7.803  17.916  0.00  0.00    +0.000 C 
ATOM      7  O   UNL     1       8.502   7.416  18.883  0.00  0.00    +0.000 OA
ATOM      8  N   UNL     1       9.327  10.069  18.979  0.00  0.00    +0.000 NA
ATOM      9  H   UNL     1       7.167   9.273  16.640  0.00  0.00    +0.000 HD
ENDROOT
BRANCH   6  10
ATOM     10  C   UNL     1       7.003   6.827  17.171  0.00  0.00    +0.000 A 
ATOM     11  C   UNL     1       5.674   6.676  17.538  0.00  0.00    +0.000 A 
ATOM     12  C   UNL     1       4.924   5.704  16.887  0.00  0.00    +0.000 A 
ATOM     13  C   UNL     1       5.495   4.981  15.845  0.00  0.00    +0.000 A 
ATOM     14  C   UNL     1       6.823   5.221  15.527  0.00  0.00    +0.000 A 
ATOM     15  N   UNL     1       7.602   6.121  16.170  0.00  0.00    +0.000 NA
BRANCH  12  16
ATOM     16  O   UNL     1       3.603   5.432  17.175  0.00  0.00    +0.000 OA
BRANCH  16  17
ATOM     17  C   UNL     1       3.295   4.268  17.820  0.00  0.00    +0.000 A 
ATOM     18  C   UNL     1       2.362   3.420  17.258  0.00  0.00    +0.000 A 
ATOM     19  N   UNL     1       1.968   2.257  17.823  0.00  0.00    +0.000 NA
ATOM     20  C   UNL     1       2.559   1.945  18.988  0.00  0.00    +0.000 A 
ATOM     21  N   UNL     1       3.513   2.661  19.601  0.00  0.00    +0.000 NA
ATOM     22  C   UNL     1       3.871   3.807  18.987  0.00  0.00    +0.000 A 
ENDBRANCH  16  17
ENDBRANCH  12  16
ENDBRANCH   6  10
BRANCH   1  24
ATOM     23  N   UNL     1      10.094  11.865  21.625  0.00  0.00    +0.000 N 
ATOM     24  C   UNL     1      10.666  11.592  20.413  0.00  0.00    +0.000 C 
ATOM     25  O   UNL     1      11.881  11.548  20.259  0.00  0.00    +0.000 OA
ATOM     26  H   UNL     1      10.675  12.062  22.424  0.00  0.00    +0.000 HD
ATOM     27  H   UNL     1       9.082  11.914  21.693  0.00  0.00    +0.000 HD
ENDBRANCH   1  24
TORSDOF 4
ENDMDL
MODEL 7
REMARK VINA RESULT:      -7.4      1.577      1.939
REMARK  Name = 
REMARK  4 active torsions:
REMARK  status: ('A' for Active; 'I' for Inactive)
REMARK    1  A    between atoms: C_2  and  C_4
REMARK    2  A    between atoms: C_9  and  C_11
REMARK    3  A    between atoms: C_13  and  O_14
REMARK    4  A    between atoms: O_14  and  C_15
REMARK                            x       y       z     vdW  Elec       q    Type
REMARK                         _______ _______ _______ _____ _____    ______ ____
ROOT
ATOM      1  C   UNL     1       0.329  10.300  19.784  0.00  0.00    +0.000 A 
ATOM      2  C   UNL     1       0.774  10.739  18.548  0.00  0.00    +0.000 A 
ATOM      3  S   UNL     1       1.931   9.637  17.916  0.00  0.00    +0.000 S 
ATOM      4  C   UNL     1       1.692   8.636  19.275  0.00  0.00    +0.000 A 
ATOM      5  N   UNL     1       2.374   7.456  19.251  0.00  0.00    +0.000 N 
ATOM      6  C   UNL     1       2.114   6.457  20.160  0.00  0.00    +0.000 C 
ATOM      7  O   UNL     1       1.316   6.488  21.090  0.00  0.00    +0.000 OA
ATOM      8  N   UNL     1       0.869   9.079  20.188  0.00  0.00    +0.000 NA
ATOM      9  H   UNL     1       3.022   7.271  18.495  0.00  0.00    +0.000 HD
ENDROOT
BRANCH   6  10
ATOM     10  C   UNL     1       2.904   5.210  19.920  0.00  0.00    +0.000 A 
ATOM     11  C   UNL     1       4.202   5.317  19.443  0.00  0.00    +0.000 A 
ATOM     12  C   UNL     1       4.887   4.144  19.149  0.00  0.00    +0.000 A 
ATOM     13  C   UNL     1       4.291   2.916  19.419  0.00  0.00    +0.000 A 
ATOM     14  C   UNL     1       3.000   2.908  19.925  0.00  0.00    +0.000 A 
ATOM     15  N   UNL     1       2.280   4.025  20.175  0.00  0.00    +0.000 NA
BRANCH  12  16
ATOM     16  O   UNL     1       6.169   4.109  18.643  0.00  0.00    +0.000 OA
BRANCH  16  17
ATOM     17  C   UNL     1       6.373   4.470  17.341  0.00  0.00    +0.000 A 
ATOM     18  C   UNL     1       5.658   3.830  16.350  0.00  0.00    +0.000 A 
ATOM     19  N   UNL     1       5.799   4.094  15.032  0.00  0.00    +0.000 NA
ATOM     20  C   UNL     1       6.686   5.053  14.721  0.00  0.00    +0.000 A 
ATOM     21  N   UNL     1       7.397   5.778  15.596  0.00  0.00    +0.000 NA
ATOM     22  C   UNL     1       7.209   5.476  16.898  0.00  0.00    +0.000 A 
ENDBRANCH  16  17
ENDBRANCH  12  16
ENDBRANCH   6  10
BRANCH   1  24
ATOM     23  N   UNL     1      -1.625  11.623  19.916  0.00  0.00    +0.000 N 
ATOM     24  C   UNL     1      -0.628  11.013  20.625  0.00  0.00    +0.000 C 
ATOM     25  O   UNL     1      -0.566  11.069  21.847  0.00  0.00    +0.000 OA
ATOM     26  H   UNL     1      -2.328  12.163  20.396  0.00  0.00    +0.000 HD
ATOM     27  H   UNL     1      -1.616  11.566  18.902  0.00  0.00    +0.000 HD
ENDBRANCH   1  24
TORSDOF 4
ENDMDL
MODEL 8
REMARK VINA RESULT:      -7.2      2.153      2.433
REMARK  Name = 
REMARK  4 active torsions:
REMARK  status: ('A' for Active; 'I' for Inactive)
REMARK    1  A    between atoms: C_2  and  C_4
REMARK    2  A    between atoms: C_9  and  C_11
REMARK    3  A    between atoms: C_13  and  O_14
REMARK    4  A    between atoms: O_14  and  C_15
REMARK                            x       y       z     vdW  Elec       q    Type
REMARK                         _______ _______ _______ _____ _____    ______ ____
ROOT
ATOM      1  C   UNL     1       0.539   9.436  21.849  0.00  0.00    +0.000 A 
ATOM      2  C   UNL     1       0.473  10.328  20.791  0.00  0.00    +0.000 A 
ATOM      3  S   UNL     1       1.228   9.650  19.404  0.00  0.00    +0.000 S 
ATOM      4  C   UNL     1       1.504   8.215  20.281  0.00  0.00    +0.000 A 
ATOM      5  N   UNL     1       2.064   7.198  19.564  0.00  0.00    +0.000 N 
ATOM      6  C   UNL     1       2.143   5.921  20.069  0.00  0.00    +0.000 C 
ATOM      7  O   UNL     1       1.785   5.537  21.177  0.00  0.00    +0.000 OA
ATOM      8  N   UNL     1       1.137   8.216  21.534  0.00  0.00    +0.000 NA
ATOM      9  H   UNL     1       2.346   7.362  18.606  0.00  0.00    +0.000 HD
ENDROOT
BRANCH   6  10
ATOM     10  C   UNL     1       2.710   4.931  19.103  0.00  0.00    +0.000 A 
ATOM     11  C   UNL     1       4.081   4.906  18.893  0.00  0.00    +0.000 A 
ATOM     12  C   UNL     1       4.577   4.034  17.930  0.00  0.00    +0.000 A 
ATOM     13  C   UNL     1       3.708   3.165  17.279  0.00  0.00    +0.000 A 
ATOM     14  C   UNL     1       2.356   3.241  17.577  0.00  0.00    +0.000 A 
ATOM     15  N   UNL     1       1.827   4.110  18.467  0.00  0.00    +0.000 NA
BRANCH  12  16
ATOM     16  O   UNL     1       5.913   3.931  17.603  0.00  0.00    +0.000 OA
BRANCH  16  17
ATOM     17  C   UNL     1       6.303   4.227  16.328  0.00  0.00    +0.000 A 
ATOM     18  C   UNL     1       7.248   5.214  16.131  0.00  0.00    +0.000 A 
ATOM     19  N   UNL     1       7.688   5.600  14.913  0.00  0.00    +0.000 NA
ATOM     20  C   UNL     1       7.158   4.947  13.867  0.00  0.00    +0.000 A 
ATOM     21  N   UNL     1       6.275   3.939  13.936  0.00  0.00    +0.000 NA
ATOM     22  C   UNL     1       5.879   3.592  15.178  0.00  0.00    +0.000 A 
ENDBRANCH  16  17
ENDBRANCH  12  16
ENDBRANCH   6  10
BRANCH   1  24
ATOM     23  N   UNL     1      -1.232  10.221  23.204  0.00  0.00    +0.000 N 
ATOM     24  C   UNL     1       0.033   9.700  23.193  0.00  0.00    +0.000 C 
ATOM     25  O   UNL     1       0.659   9.482  24.222  0.00  0.00    +0.000 OA
ATOM     26  H   UNL     1      -1.670  10.462  24.078  0.00  0.00    +0.000 HD
ATOM     27  H   UNL     1      -1.698  10.405  22.321  0.00  0.00    +0.000 HD
ENDBRANCH   1  24
TORSDOF 4
ENDMDL
MODEL 9
REMARK VINA RESULT:      -7.2      1.438      1.690
REMARK  Name = 
REMARK  4 active torsions:
REMARK  status: ('A' for Active; 'I' for Inactive)
REMARK    1  A    between atoms: C_2  and  C_4
REMARK    2  A    between atoms: C_9  and  C_11
REMARK    3  A    between atoms: C_13  and  O_14
REMARK    4  A    between atoms: O_14  and  C_15
REMARK                            x       y       z     vdW  Elec       q    Type
REMARK                         _______ _______ _______ _____ _____    ______ ____
ROOT
ATOM      1  C   UNL     1       0.515  11.860  19.339  0.00  0.00    +0.000 A 
ATOM      2  C   UNL     1       0.165  11.862  20.679  0.00  0.00    +0.000 A 
ATOM      3  S   UNL     1       0.358  10.287  21.338  0.00  0.00    +0.000 S 
ATOM      4  C   UNL     1       0.962   9.754  19.836  0.00  0.00    +0.000 A 
ATOM      5  N   UNL     1       1.391   8.460  19.812  0.00  0.00    +0.000 N 
ATOM      6  C   UNL     1       2.101   7.958  18.746  0.00  0.00    +0.000 C 
ATOM      7  O   UNL     1       2.398   8.542  17.710  0.00  0.00    +0.000 OA
ATOM      8  N   UNL     1       0.976  10.631  18.869  0.00  0.00    +0.000 NA
ATOM      9  H   UNL     1       1.267   7.879  20.632  0.00  0.00    +0.000 HD
ENDROOT
BRANCH   6  10
ATOM     10  C   UNL     1       2.556   6.547  18.942  0.00  0.00    +0.000 A 
ATOM     11  C   UNL     1       3.147   5.877  17.881  0.00  0.00    +0.000 A 
ATOM     12  C   UNL     1       3.486   4.541  18.061  0.00  0.00    +0.000 A 
ATOM     13  C   UNL     1       3.304   3.950  19.308  0.00  0.00    +0.000 A 
ATOM     14  C   UNL     1       2.733   4.708  20.319  0.00  0.00    +0.000 A 
ATOM     15  N   UNL     1       2.342   5.993  20.169  0.00  0.00    +0.000 NA
BRANCH  12  16
ATOM     16  O   UNL     1       4.051   3.753  17.082  0.00  0.00    +0.000 OA
BRANCH  16  17
ATOM     17  C   UNL     1       5.220   4.158  16.503  0.00  0.00    +0.000 A 
ATOM     18  C   UNL     1       5.237   4.431  15.150  0.00  0.00    +0.000 A 
ATOM     19  N   UNL     1       6.342   4.817  14.475  0.00  0.00    +0.000 NA
ATOM     20  C   UNL     1       7.460   4.942  15.209  0.00  0.00    +0.000 A 
ATOM     21  N   UNL     1       7.554   4.757  16.534  0.00  0.00    +0.000 NA
ATOM     22  C   UNL     1       6.417   4.381  17.155  0.00  0.00    +0.000 A 
ENDBRANCH  16  17
ENDBRANCH  12  16
ENDBRANCH   6  10
BRANCH   1  24
ATOM     23  N   UNL     1      -0.748  13.101  17.773  0.00  0.00    +0.000 N 
ATOM     24  C   UNL     1       0.433  13.020  18.456  0.00  0.00    +0.000 C 
ATOM     25  O   UNL     1       1.322  13.854  18.327  0.00  0.00    +0.000 OA
ATOM     26  H   UNL     1      -0.902  13.851  17.118  0.00  0.00    +0.000 HD
ATOM     27  H   UNL     1      -1.443  12.370  17.898  0.00  0.00    +0.000 HD
ENDBRANCH   1  24
TORSDOF 4
ENDMDL
