MODEL 1
REMARK VINA RESULT:      -7.1      0.000      0.000
REMARK  Name = 
REMARK  9 active torsions:
REMARK  status: ('A' for Active; 'I' for Inactive)
REMARK    1  A    between atoms: C_1  and  O_2
REMARK    2  A    between atoms: O_2  and  C_3
REMARK    3  A    between atoms: C_3  and  C_4
REMARK    4  A    between atoms: C_7  and  C_8
REMARK    5  A    between atoms: C_13  and  C_14
REMARK    6  A    between atoms: C_14  and  C_15
REMARK    7  A    between atoms: C_15  and  C_16
REMARK    8  A    between atoms: N_18  and  C_19
REMARK    9  A    between atoms: C_23  and  C_24
REMARK                            x       y       z     vdW  Elec       q    Type
REMARK                         _______ _______ _______ _____ _____    ______ ____
ROOT
ATOM      1  C   UNL     1      -0.236  12.700  21.059  0.00  0.00    +0.000 C 
ATOM      2  O   UNL     1       0.429  13.739  21.087  0.00  0.00    +0.000 OA
ATOM      3  N   UNL     1       0.226  11.593  20.321  0.00  0.00    +0.000 N 
ATOM      4  C   UNL     1       1.617  11.581  19.868  0.00  0.00    +0.000 C 
ATOM      5  C   UNL     1       1.723  11.258  18.375  0.00  0.00    +0.000 C 
ATOM      6  C   UNL     1       0.954   9.979  17.987  0.00  0.00    +0.000 C 
ATOM      7  C   UNL     1      -0.488  10.109  18.481  0.00  0.00    +0.000 C 
ATOM      8  C   UNL     1      -0.564  10.414  19.973  0.00  0.00    +0.000 C 
ENDROOT
BRANCH   1  12
ATOM      9  C   UNL     1      -3.914  12.695  22.377  0.00  0.00    +0.000 A 
ATOM     10  C   UNL     1      -3.149  12.159  23.390  0.00  0.00    +0.000 A 
ATOM     11  C   UNL     1      -1.762  12.166  23.077  0.00  0.00    +0.000 A 
ATOM     12  C   UNL     1      -1.503  12.581  21.781  0.00  0.00    +0.000 A 
ATOM     13  S   UNL     1      -2.956  13.098  21.017  0.00  0.00    +0.000 S 
BRANCH   9  14
ATOM     14  C   UNL     1      -5.387  12.942  22.381  0.00  0.00    +0.000 C 
BRANCH  14  16
ATOM     15  C   UNL     1      -6.530  14.287  20.817  0.00  0.00    +0.000 C 
ATOM     16  O   UNL     1      -5.570  14.259  21.860  0.00  0.00    +0.000 OA
ENDBRANCH  14  16
ENDBRANCH   9  14
ENDBRANCH   1  12
BRANCH   6  17
ATOM     17  C   UNL     1       1.669   8.728  18.520  0.00  0.00    +0.000 C 
BRANCH  17  18
ATOM     18  C   UNL     1       2.934   8.313  17.754  0.00  0.00    +0.000 C 
BRANCH  18  19
ATOM     19  C   UNL     1       3.208   6.839  18.004  0.00  0.00    +0.000 C 
ATOM     20  O   UNL     1       4.339   6.385  17.885  0.00  0.00    +0.000 OA
ATOM     21  N   UNL     1       2.082   6.115  18.366  0.00  0.00    +0.000 N 
ATOM     22  H   UNL     1       1.178   6.555  18.243  0.00  0.00    +0.000 HD
BRANCH  21  23
ATOM     23  C   UNL     1       2.087   4.729  18.650  0.00  0.00    +0.000 A 
ATOM     24  C   UNL     1       2.205   3.755  17.654  0.00  0.00    +0.000 A 
ATOM     25  C   UNL     1       2.097   2.400  17.959  0.00  0.00    +0.000 A 
ATOM     26  C   UNL     1       1.876   2.000  19.271  0.00  0.00    +0.000 A 
ATOM     27  C   UNL     1       1.797   2.952  20.293  0.00  0.00    +0.000 A 
ATOM     28  C   UNL     1       1.530   2.523  21.705  0.00  0.00    +0.000 C 
ATOM     29  C   UNL     1       1.931   4.317  19.979  0.00  0.00    +0.000 A 
ENDBRANCH  21  23
ENDBRANCH  18  19
ENDBRANCH  17  18
ENDBRANCH   6  17
TORSDOF 7
ENDMDL
MODEL 2
REMARK VINA RESULT:      -7.0      4.099     10.324
REMARK  Name = 
REMARK  9 active torsions:
REMARK  status: ('A' for Active; 'I' for Inactive)
REMARK    1  A    between atoms: C_1  and  O_2
REMARK    2  A    between atoms: O_2  and  C_3
REMARK    3  A    between atoms: C_3  and  C_4
REMARK    4  A    between atoms: C_7  and  C_8
REMARK    5  A    between atoms: C_13  and  C_14
REMARK    6  A    between atoms: C_14  and  C_15
REMARK    7  A    between atoms: C_15  and  C_16
REMARK    8  A    between atoms: N_18  and  C_19
REMARK    9  A    between atoms: C_23  and  C_24
REMARK                            x       y       z     vdW  Elec       q    Type
REMARK                         _______ _______ _______ _____ _____    ______ ____
ROOT
ATOM      1  C   UNL     1       4.249   3.931  18.840  0.00  0.00    +0.000 C 
ATOM      2  O   UNL     1       3.938   2.762  19.083  0.00  0.00    +0.000 OA
ATOM      3  N   UNL     1       3.566   4.984  19.478  0.00  0.00    +0.000 N 
ATOM      4  C   UNL     1       2.730   4.678  20.640  0.00  0.00    +0.000 C 
ATOM      5  C   UNL     1       1.331   5.284  20.504  0.00  0.00    +0.000 C 
ATOM      6  C   UNL     1       1.365   6.790  20.169  0.00  0.00    +0.000 C 
ATOM      7  C   UNL     1       2.239   6.992  18.929  0.00  0.00    +0.000 C 
ATOM      8  C   UNL     1       3.632   6.394  19.098  0.00  0.00    +0.000 C 
ENDROOT
BRANCH   1  12
ATOM      9  C   UNL     1       6.618   4.611  15.808  0.00  0.00    +0.000 A 
ATOM     10  C   UNL     1       7.357   4.897  16.936  0.00  0.00    +0.000 A 
ATOM     11  C   UNL     1       6.638   4.621  18.132  0.00  0.00    +0.000 A 
ATOM     12  C   UNL     1       5.322   4.259  17.900  0.00  0.00    +0.000 A 
ATOM     13  S   UNL     1       5.029   4.119  16.210  0.00  0.00    +0.000 S 
BRANCH   9  14
ATOM     14  C   UNL     1       7.065   4.680  14.384  0.00  0.00    +0.000 C 
BRANCH  14  16
ATOM     15  C   UNL     1       6.512   3.558  12.385  0.00  0.00    +0.000 C 
ATOM     16  O   UNL     1       6.026   4.078  13.613  0.00  0.00    +0.000 OA
ENDBRANCH  14  16
ENDBRANCH   9  14
ENDBRANCH   1  12
BRANCH   6  17
ATOM     17  C   UNL     1       1.830   7.610  21.382  0.00  0.00    +0.000 C 
BRANCH  17  18
ATOM     18  C   UNL     1       1.645   9.129  21.261  0.00  0.00    +0.000 C 
BRANCH  18  19
ATOM     19  C   UNL     1       0.246   9.422  20.742  0.00  0.00    +0.000 C 
ATOM     20  O   UNL     1      -0.737   8.949  21.298  0.00  0.00    +0.000 OA
ATOM     21  N   UNL     1       0.226  10.246  19.628  0.00  0.00    +0.000 N 
ATOM     22  H   UNL     1       1.102  10.414  19.148  0.00  0.00    +0.000 HD
BRANCH  21  23
ATOM     23  C   UNL     1      -0.956  10.659  18.967  0.00  0.00    +0.000 A 
ATOM     24  C   UNL     1      -1.838  11.595  19.514  0.00  0.00    +0.000 A 
ATOM     25  C   UNL     1      -3.044  11.897  18.885  0.00  0.00    +0.000 A 
ATOM     26  C   UNL     1      -3.381  11.269  17.692  0.00  0.00    +0.000 A 
ATOM     27  C   UNL     1      -2.496  10.359  17.102  0.00  0.00    +0.000 A 
ATOM     28  C   UNL     1      -2.872   9.659  15.830  0.00  0.00    +0.000 C 
ATOM     29  C   UNL     1      -1.270  10.079  17.732  0.00  0.00    +0.000 A 
ENDBRANCH  21  23
ENDBRANCH  18  19
ENDBRANCH  17  18
ENDBRANCH   6  17
TORSDOF 7
ENDMDL
MODEL 3
REMARK VINA RESULT:      -6.9      6.679      8.400
REMARK  Name = 
REMARK  9 active torsions:
REMARK  status: ('A' for Active; 'I' for Inactive)
REMARK    1  A    between atoms: C_1  and  O_2
REMARK    2  A    between atoms: O_2  and  C_3
REMARK    3  A    between atoms: C_3  and  C_4
REMARK    4  A    between atoms: C_7  and  C_8
REMARK    5  A    between atoms: C_13  and  C_14
REMARK    6  A    between atoms: C_14  and  C_15
REMARK    7  A    between atoms: C_15  and  C_16
REMARK    8  A    between atoms: N_18  and  C_19
REMARK    9  A    between atoms: C_23  and  C_24
REMARK                            x       y       z     vdW  Elec       q    Type
REMARK                         _______ _______ _______ _____ _____    ______ ____
ROOT
ATOM      1  C   UNL     1       8.752  14.504  20.805  0.00  0.00    +0.000 C 
ATOM      2  O   UNL     1       9.411  14.808  21.803  0.00  0.00    +0.000 OA
ATOM      3  N   UNL     1       8.894  13.225  20.234  0.00  0.00    +0.000 N 
ATOM      4  C   UNL     1       9.571  12.182  21.006  0.00  0.00    +0.000 C 
ATOM      5  C   UNL     1      10.664  11.492  20.186  0.00  0.00    +0.000 C 
ATOM      6  C   UNL     1      10.156  10.992  18.818  0.00  0.00    +0.000 C 
ATOM      7  C   UNL     1       9.495  12.162  18.088  0.00  0.00    +0.000 C 
ATOM      8  C   UNL     1       8.399  12.820  18.920  0.00  0.00    +0.000 C 
ENDROOT
BRANCH   1  12
ATOM      9  C   UNL     1       5.729  16.653  19.575  0.00  0.00    +0.000 A 
ATOM     10  C   UNL     1       6.835  17.142  18.913  0.00  0.00    +0.000 A 
ATOM     11  C   UNL     1       8.010  16.399  19.209  0.00  0.00    +0.000 A 
ATOM     12  C   UNL     1       7.812  15.444  20.192  0.00  0.00    +0.000 A 
ATOM     13  S   UNL     1       6.149  15.373  20.631  0.00  0.00    +0.000 S 
BRANCH   9  14
ATOM     14  C   UNL     1       4.312  17.108  19.443  0.00  0.00    +0.000 C 
BRANCH  14  16
ATOM     15  C   UNL     1       3.638  15.730  17.653  0.00  0.00    +0.000 C 
ATOM     16  O   UNL     1       4.003  17.042  18.051  0.00  0.00    +0.000 OA
ENDBRANCH  14  16
ENDBRANCH   9  14
ENDBRANCH   1  12
BRANCH   6  17
ATOM     17  C   UNL     1       9.228   9.779  18.990  0.00  0.00    +0.000 C 
BRANCH  17  18
ATOM     18  C   UNL     1       8.252   9.526  17.832  0.00  0.00    +0.000 C 
BRANCH  18  19
ATOM     19  C   UNL     1       7.783   8.080  17.882  0.00  0.00    +0.000 C 
ATOM     20  O   UNL     1       8.336   7.270  18.616  0.00  0.00    +0.000 OA
ATOM     21  N   UNL     1       6.714   7.811  17.042  0.00  0.00    +0.000 N 
ATOM     22  H   UNL     1       6.471   8.507  16.348  0.00  0.00    +0.000 HD
BRANCH  21  23
ATOM     23  C   UNL     1       6.104   6.539  16.916  0.00  0.00    +0.000 A 
ATOM     24  C   UNL     1       5.372   5.948  17.949  0.00  0.00    +0.000 A 
ATOM     25  C   UNL     1       4.878   4.651  17.826  0.00  0.00    +0.000 A 
ATOM     26  C   UNL     1       5.104   3.929  16.661  0.00  0.00    +0.000 A 
ATOM     27  C   UNL     1       5.797   4.514  15.595  0.00  0.00    +0.000 A 
ATOM     28  C   UNL     1       6.066   3.726  14.348  0.00  0.00    +0.000 C 
ATOM     29  C   UNL     1       6.271   5.833  15.719  0.00  0.00    +0.000 A 
ENDBRANCH  21  23
ENDBRANCH  18  19
ENDBRANCH  17  18
ENDBRANCH   6  17
TORSDOF 7
ENDMDL
MODEL 4
REMARK VINA RESULT:      -6.8      4.100     10.624
REMARK  Name = 
REMARK  9 active torsions:
REMARK  status: ('A' for Active; 'I' for Inactive)
REMARK    1  A    between atoms: C_1  and  O_2
REMARK    2  A    between atoms: O_2  and  C_3
REMARK    3  A    between atoms: C_3  and  C_4
REMARK    4  A    between atoms: C_7  and  C_8
REMARK    5  A    between atoms: C_13  and  C_14
REMARK    6  A    between atoms: C_14  and  C_15
REMARK    7  A    between atoms: C_15  and  C_16
REMARK    8  A    between atoms: N_18  and  C_19
REMARK    9  A    between atoms: C_23  and  C_24
REMARK                            x       y       z     vdW  Elec       q    Type
REMARK                         _______ _______ _______ _____ _____    ______ ____
ROOT
ATOM      1  C   UNL     1       4.527   3.938  18.949  0.00  0.00    +0.000 C 
ATOM      2  O   UNL     1       4.400   2.796  19.398  0.00  0.00    +0.000 OA
ATOM      3  N   UNL     1       3.710   4.976  19.434  0.00  0.00    +0.000 N 
ATOM      4  C   UNL     1       2.955   4.758  20.669  0.00  0.00    +0.000 C 
ATOM      5  C   UNL     1       1.479   5.125  20.502  0.00  0.00    +0.000 C 
ATOM      6  C   UNL     1       1.279   6.539  19.918  0.00  0.00    +0.000 C 
ATOM      7  C   UNL     1       2.085   6.648  18.622  0.00  0.00    +0.000 C 
ATOM      8  C   UNL     1       3.555   6.294  18.821  0.00  0.00    +0.000 C 
ENDROOT
BRANCH   1  12
ATOM      9  C   UNL     1       6.640   4.544  15.719  0.00  0.00    +0.000 A 
ATOM     10  C   UNL     1       7.457   4.887  16.774  0.00  0.00    +0.000 A 
ATOM     11  C   UNL     1       6.839   4.644  18.031  0.00  0.00    +0.000 A 
ATOM     12  C   UNL     1       5.517   4.249  17.917  0.00  0.00    +0.000 A 
ATOM     13  S   UNL     1       5.097   4.038  16.261  0.00  0.00    +0.000 S 
BRANCH   9  14
ATOM     14  C   UNL     1       6.974   4.567  14.263  0.00  0.00    +0.000 C 
BRANCH  14  16
ATOM     15  C   UNL     1       6.255   3.381  12.355  0.00  0.00    +0.000 C 
ATOM     16  O   UNL     1       5.870   3.957  13.593  0.00  0.00    +0.000 OA
ENDBRANCH  14  16
ENDBRANCH   9  14
ENDBRANCH   1  12
BRANCH   6  17
ATOM     17  C   UNL     1       1.644   7.614  20.954  0.00  0.00    +0.000 C 
BRANCH  17  18
ATOM     18  C   UNL     1       0.474   8.477  21.450  0.00  0.00    +0.000 C 
BRANCH  18  19
ATOM     19  C   UNL     1       0.773   9.939  21.156  0.00  0.00    +0.000 C 
ATOM     20  O   UNL     1       1.050  10.713  22.063  0.00  0.00    +0.000 OA
ATOM     21  N   UNL     1       0.700  10.264  19.811  0.00  0.00    +0.000 N 
ATOM     22  H   UNL     1       0.277   9.590  19.184  0.00  0.00    +0.000 HD
BRANCH  21  23
ATOM     23  C   UNL     1       0.938  11.559  19.292  0.00  0.00    +0.000 A 
ATOM     24  C   UNL     1       2.061  11.868  18.521  0.00  0.00    +0.000 A 
ATOM     25  C   UNL     1       2.317  13.178  18.119  0.00  0.00    +0.000 A 
ATOM     26  C   UNL     1       1.444  14.198  18.479  0.00  0.00    +0.000 A 
ATOM     27  C   UNL     1       0.290  13.908  19.215  0.00  0.00    +0.000 A 
ATOM     28  C   UNL     1      -0.638  15.011  19.628  0.00  0.00    +0.000 C 
ATOM     29  C   UNL     1       0.028  12.579  19.596  0.00  0.00    +0.000 A 
ENDBRANCH  21  23
ENDBRANCH  18  19
ENDBRANCH  17  18
ENDBRANCH   6  17
TORSDOF 7
ENDMDL
MODEL 5
REMARK VINA RESULT:      -6.8      5.170     10.432
REMARK  Name = 
REMARK  9 active torsions:
REMARK  status: ('A' for Active; 'I' for Inactive)
REMARK    1  A    between atoms: C_1  and  O_2
REMARK    2  A    between atoms: O_2  and  C_3
REMARK    3  A    between atoms: C_3  and  C_4
REMARK    4  A    between atoms: C_7  and  C_8
REMARK    5  A    between atoms: C_13  and  C_14
REMARK    6  A    between atoms: C_14  and  C_15
REMARK    7  A    between atoms: C_15  and  C_16
REMARK    8  A    between atoms: N_18  and  C_19
REMARK    9  A    between atoms: C_23  and  C_24
REMARK                            x       y       z     vdW  Elec       q    Type
REMARK                         _______ _______ _______ _____ _____    ______ ____
ROOT
ATOM      1  C   UNL     1       5.918   4.445  17.991  0.00  0.00    +0.000 C 
ATOM      2  O   UNL     1       6.886   4.690  18.714  0.00  0.00    +0.000 OA
ATOM      3  N   UNL     1       4.789   3.798  18.528  0.00  0.00    +0.000 N 
ATOM      4  C   UNL     1       4.652   3.714  19.983  0.00  0.00    +0.000 C 
ATOM      5  C   UNL     1       4.355   2.285  20.441  0.00  0.00    +0.000 C 
ATOM      6  C   UNL     1       3.165   1.653  19.690  0.00  0.00    +0.000 C 
ATOM      7  C   UNL     1       3.423   1.769  18.187  0.00  0.00    +0.000 C 
ATOM      8  C   UNL     1       3.699   3.206  17.755  0.00  0.00    +0.000 C 
ENDROOT
BRANCH   1  12
ATOM      9  C   UNL     1       6.308   4.823  14.122  0.00  0.00    +0.000 A 
ATOM     10  C   UNL     1       5.547   5.896  14.531  0.00  0.00    +0.000 A 
ATOM     11  C   UNL     1       5.384   5.931  15.943  0.00  0.00    +0.000 A 
ATOM     12  C   UNL     1       5.905   4.814  16.575  0.00  0.00    +0.000 A 
ATOM     13  S   UNL     1       6.721   3.811  15.439  0.00  0.00    +0.000 S 
BRANCH   9  14
ATOM     14  C   UNL     1       6.771   4.509  12.736  0.00  0.00    +0.000 C 
BRANCH  14  16
ATOM     15  C   UNL     1       4.936   3.310  11.867  0.00  0.00    +0.000 C 
ATOM     16  O   UNL     1       6.239   3.223  12.422  0.00  0.00    +0.000 OA
ENDBRANCH  14  16
ENDBRANCH   9  14
ENDBRANCH   1  12
BRANCH   6  17
ATOM     17  C   UNL     1       1.839   2.293  20.131  0.00  0.00    +0.000 C 
BRANCH  17  18
ATOM     18  C   UNL     1       1.955   3.367  21.222  0.00  0.00    +0.000 C 
BRANCH  18  19
ATOM     19  C   UNL     1       1.347   4.664  20.711  0.00  0.00    +0.000 C 
ATOM     20  O   UNL     1       0.307   4.653  20.064  0.00  0.00    +0.000 OA
ATOM     21  N   UNL     1       2.073   5.794  21.051  0.00  0.00    +0.000 N 
ATOM     22  H   UNL     1       3.008   5.662  21.418  0.00  0.00    +0.000 HD
BRANCH  21  23
ATOM     23  C   UNL     1       1.707   7.113  20.690  0.00  0.00    +0.000 A 
ATOM     24  C   UNL     1       0.921   7.928  21.510  0.00  0.00    +0.000 A 
ATOM     25  C   UNL     1       0.491   9.180  21.075  0.00  0.00    +0.000 A 
ATOM     26  C   UNL     1       0.849   9.637  19.813  0.00  0.00    +0.000 A 
ATOM     27  C   UNL     1       1.670   8.858  18.990  0.00  0.00    +0.000 A 
ATOM     28  C   UNL     1       2.033   9.338  17.616  0.00  0.00    +0.000 C 
ATOM     29  C   UNL     1       2.119   7.606  19.447  0.00  0.00    +0.000 A 
ENDBRANCH  21  23
ENDBRANCH  18  19
ENDBRANCH  17  18
ENDBRANCH   6  17
TORSDOF 7
ENDMDL
MODEL 6
REMARK VINA RESULT:      -6.8      3.487      9.872
REMARK  Name = 
REMARK  9 active torsions:
REMARK  status: ('A' for Active; 'I' for Inactive)
REMARK    1  A    between atoms: C_1  and  O_2
REMARK    2  A    between atoms: O_2  and  C_3
REMARK    3  A    between atoms: C_3  and  C_4
REMARK    4  A    between atoms: C_7  and  C_8
REMARK    5  A    between atoms: C_13  and  C_14
REMARK    6  A    between atoms: C_14  and  C_15
REMARK    7  A    between atoms: C_15  and  C_16
REMARK    8  A    between atoms: N_18  and  C_19
REMARK    9  A    between atoms: C_23  and  C_24
REMARK                            x       y       z     vdW  Elec       q    Type
REMARK                         _______ _______ _______ _____ _____    ______ ____
ROOT
ATOM      1  C   UNL     1       2.582   6.018  19.647  0.00  0.00    +0.000 C 
ATOM      2  O   UNL     1       2.177   5.388  20.628  0.00  0.00    +0.000 OA
ATOM      3  N   UNL     1       2.235   7.373  19.494  0.00  0.00    +0.000 N 
ATOM      4  C   UNL     1       1.674   8.090  20.641  0.00  0.00    +0.000 C 
ATOM      5  C   UNL     1       0.387   8.830  20.270  0.00  0.00    +0.000 C 
ATOM      6  C   UNL     1       0.551   9.725  19.025  0.00  0.00    +0.000 C 
ATOM      7  C   UNL     1       1.114   8.874  17.885  0.00  0.00    +0.000 C 
ATOM      8  C   UNL     1       2.405   8.162  18.276  0.00  0.00    +0.000 C 
ENDROOT
BRANCH   1  12
ATOM      9  C   UNL     1       5.392   4.713  17.267  0.00  0.00    +0.000 A 
ATOM     10  C   UNL     1       4.218   4.160  16.804  0.00  0.00    +0.000 A 
ATOM     11  C   UNL     1       3.087   4.611  17.537  0.00  0.00    +0.000 A 
ATOM     12  C   UNL     1       3.426   5.392  18.630  0.00  0.00    +0.000 A 
ATOM     13  S   UNL     1       5.122   5.683  18.651  0.00  0.00    +0.000 S 
BRANCH   9  14
ATOM     14  C   UNL     1       6.762   4.555  16.693  0.00  0.00    +0.000 C 
BRANCH  14  16
ATOM     15  C   UNL     1       7.119   4.945  14.395  0.00  0.00    +0.000 C 
ATOM     16  O   UNL     1       6.876   5.536  15.661  0.00  0.00    +0.000 OA
ENDBRANCH  14  16
ENDBRANCH   9  14
ENDBRANCH   1  12
BRANCH   6  17
ATOM     17  C   UNL     1       1.412  10.956  19.348  0.00  0.00    +0.000 C 
BRANCH  17  18
ATOM     18  C   UNL     1       0.640  12.194  19.827  0.00  0.00    +0.000 C 
BRANCH  18  19
ATOM     19  C   UNL     1      -0.581  12.393  18.944  0.00  0.00    +0.000 C 
ATOM     20  O   UNL     1      -0.559  13.198  18.021  0.00  0.00    +0.000 OA
ATOM     21  N   UNL     1      -1.658  11.594  19.293  0.00  0.00    +0.000 N 
ATOM     22  H   UNL     1      -1.622  11.114  20.184  0.00  0.00    +0.000 HD
BRANCH  21  23
ATOM     23  C   UNL     1      -2.903  11.600  18.619  0.00  0.00    +0.000 A 
ATOM     24  C   UNL     1      -3.071  11.062  17.339  0.00  0.00    +0.000 A 
ATOM     25  C   UNL     1      -4.284  11.183  16.664  0.00  0.00    +0.000 A 
ATOM     26  C   UNL     1      -5.351  11.838  17.266  0.00  0.00    +0.000 A 
ATOM     27  C   UNL     1      -5.223  12.348  18.563  0.00  0.00    +0.000 A 
ATOM     28  C   UNL     1      -6.364  13.080  19.202  0.00  0.00    +0.000 C 
ATOM     29  C   UNL     1      -4.001  12.201  19.246  0.00  0.00    +0.000 A 
ENDBRANCH  21  23
ENDBRANCH  18  19
ENDBRANCH  17  18
ENDBRANCH   6  17
TORSDOF 7
ENDMDL
MODEL 7
REMARK VINA RESULT:      -6.7      0.901      1.569
REMARK  Name = 
REMARK  9 active torsions:
REMARK  status: ('A' for Active; 'I' for Inactive)
REMARK    1  A    between atoms: C_1  and  O_2
REMARK    2  A    between atoms: O_2  and  C_3
REMARK    3  A    between atoms: C_3  and  C_4
REMARK    4  A    between atoms: C_7  and  C_8
REMARK    5  A    between atoms: C_13  and  C_14
REMARK    6  A    between atoms: C_14  and  C_15
REMARK    7  A    between atoms: C_15  and  C_16
REMARK    8  A    between atoms: N_18  and  C_19
REMARK    9  A    between atoms: C_23  and  C_24
REMARK                            x       y       z     vdW  Elec       q    Type
REMARK                         _______ _______ _______ _____ _____    ______ ____
ROOT
ATOM      1  C   UNL     1      -0.329  12.866  21.189  0.00  0.00    +0.000 C 
ATOM      2  O   UNL     1       0.401  13.856  21.292  0.00  0.00    +0.000 OA
ATOM      3  N   UNL     1       0.090  11.766  20.416  0.00  0.00    +0.000 N 
ATOM      4  C   UNL     1       1.495  11.682  20.015  0.00  0.00    +0.000 C 
ATOM      5  C   UNL     1       1.640  11.422  18.514  0.00  0.00    +0.000 C 
ATOM      6  C   UNL     1       0.807  10.215  18.036  0.00  0.00    +0.000 C 
ATOM      7  C   UNL     1      -0.643  10.418  18.482  0.00  0.00    +0.000 C 
ATOM      8  C   UNL     1      -0.760  10.659  19.983  0.00  0.00    +0.000 C 
ENDROOT
BRANCH   1  12
ATOM      9  C   UNL     1      -4.070  12.912  22.314  0.00  0.00    +0.000 A 
ATOM     10  C   UNL     1      -3.346  12.528  23.423  0.00  0.00    +0.000 A 
ATOM     11  C   UNL     1      -1.946  12.539  23.180  0.00  0.00    +0.000 A 
ATOM     12  C   UNL     1      -1.629  12.799  21.857  0.00  0.00    +0.000 A 
ATOM     13  S   UNL     1      -3.051  13.174  20.964  0.00  0.00    +0.000 S 
BRANCH   9  14
ATOM     14  C   UNL     1      -5.547  13.114  22.214  0.00  0.00    +0.000 C 
BRANCH  14  16
ATOM     15  C   UNL     1      -7.233  12.743  23.820  0.00  0.00    +0.000 C 
ATOM     16  O   UNL     1      -6.136  12.180  23.120  0.00  0.00    +0.000 OA
ENDBRANCH  14  16
ENDBRANCH   9  14
ENDBRANCH   1  12
BRANCH   6  17
ATOM     17  C   UNL     1       1.418   8.897  18.535  0.00  0.00    +0.000 C 
BRANCH  17  18
ATOM     18  C   UNL     1       2.706   8.456  17.825  0.00  0.00    +0.000 C 
BRANCH  18  19
ATOM     19  C   UNL     1       3.070   7.050  18.279  0.00  0.00    +0.000 C 
ATOM     20  O   UNL     1       4.142   6.551  17.962  0.00  0.00    +0.000 OA
ATOM     21  N   UNL     1       2.093   6.443  19.052  0.00  0.00    +0.000 N 
ATOM     22  H   UNL     1       1.178   6.877  19.084  0.00  0.00    +0.000 HD
BRANCH  21  23
ATOM     23  C   UNL     1       2.203   5.139  19.590  0.00  0.00    +0.000 A 
ATOM     24  C   UNL     1       2.030   4.867  20.950  0.00  0.00    +0.000 A 
ATOM     25  C   UNL     1       2.252   3.589  21.459  0.00  0.00    +0.000 A 
ATOM     26  C   UNL     1       2.643   2.561  20.610  0.00  0.00    +0.000 A 
ATOM     27  C   UNL     1       2.781   2.797  19.238  0.00  0.00    +0.000 A 
ATOM     28  C   UNL     1       3.231   1.696  18.324  0.00  0.00    +0.000 C 
ATOM     29  C   UNL     1       2.532   4.085  18.729  0.00  0.00    +0.000 A 
ENDBRANCH  21  23
ENDBRANCH  18  19
ENDBRANCH  17  18
ENDBRANCH   6  17
TORSDOF 7
ENDMDL
MODEL 8
REMARK VINA RESULT:      -6.7      3.280     10.015
REMARK  Name = 
REMARK  9 active torsions:
REMARK  status: ('A' for Active; 'I' for Inactive)
REMARK    1  A    between atoms: C_1  and  O_2
REMARK    2  A    between atoms: O_2  and  C_3
REMARK    3  A    between atoms: C_3  and  C_4
REMARK    4  A    between atoms: C_7  and  C_8
REMARK    5  A    between atoms: C_13  and  C_14
REMARK    6  A    between atoms: C_14  and  C_15
REMARK    7  A    between atoms: C_15  and  C_16
REMARK    8  A    between atoms: N_18  and  C_19
REMARK    9  A    between atoms: C_23  and  C_24
REMARK                            x       y       z     vdW  Elec       q    Type
REMARK                         _______ _______ _______ _____ _____    ______ ____
ROOT
ATOM      1  C   UNL     1       2.496   6.196  19.676  0.00  0.00    +0.000 C 
ATOM      2  O   UNL     1       2.028   5.587  20.641  0.00  0.00    +0.000 OA
ATOM      3  N   UNL     1       2.197   7.560  19.497  0.00  0.00    +0.000 N 
ATOM      4  C   UNL     1       1.608   8.303  20.612  0.00  0.00    +0.000 C 
ATOM      5  C   UNL     1       0.362   9.078  20.179  0.00  0.00    +0.000 C 
ATOM      6  C   UNL     1       0.609   9.958  18.936  0.00  0.00    +0.000 C 
ATOM      7  C   UNL     1       1.196   9.080  17.829  0.00  0.00    +0.000 C 
ATOM      8  C   UNL     1       2.446   8.333  18.282  0.00  0.00    +0.000 C 
ENDROOT
BRANCH   1  12
ATOM      9  C   UNL     1       5.368   4.788  17.432  0.00  0.00    +0.000 A 
ATOM     10  C   UNL     1       4.199   4.263  16.923  0.00  0.00    +0.000 A 
ATOM     11  C   UNL     1       3.051   4.754  17.603  0.00  0.00    +0.000 A 
ATOM     12  C   UNL     1       3.365   5.536  18.701  0.00  0.00    +0.000 A 
ATOM     13  S   UNL     1       5.066   5.780  18.794  0.00  0.00    +0.000 S 
BRANCH   9  14
ATOM     14  C   UNL     1       6.757   4.585  16.920  0.00  0.00    +0.000 C 
BRANCH  14  16
ATOM     15  C   UNL     1       6.961   4.848  14.585  0.00  0.00    +0.000 C 
ATOM     16  O   UNL     1       6.920   5.507  15.841  0.00  0.00    +0.000 OA
ENDBRANCH  14  16
ENDBRANCH   9  14
ENDBRANCH   1  12
BRANCH   6  17
ATOM     17  C   UNL     1       1.492  11.165  19.288  0.00  0.00    +0.000 C 
BRANCH  17  18
ATOM     18  C   UNL     1       0.913  12.121  20.341  0.00  0.00    +0.000 C 
BRANCH  18  19
ATOM     19  C   UNL     1      -0.399  12.694  19.827  0.00  0.00    +0.000 C 
ATOM     20  O   UNL     1      -0.403  13.586  18.987  0.00  0.00    +0.000 OA
ATOM     21  N   UNL     1      -1.521  12.112  20.393  0.00  0.00    +0.000 N 
ATOM     22  H   UNL     1      -1.390  11.527  21.209  0.00  0.00    +0.000 HD
BRANCH  21  23
ATOM     23  C   UNL     1      -2.852  12.477  20.074  0.00  0.00    +0.000 A 
ATOM     24  C   UNL     1      -3.569  13.428  20.805  0.00  0.00    +0.000 A 
ATOM     25  C   UNL     1      -4.911  13.682  20.528  0.00  0.00    +0.000 A 
ATOM     26  C   UNL     1      -5.552  12.991  19.507  0.00  0.00    +0.000 A 
ATOM     27  C   UNL     1      -4.845  12.065  18.733  0.00  0.00    +0.000 A 
ATOM     28  C   UNL     1      -5.543  11.298  17.650  0.00  0.00    +0.000 C 
ATOM     29  C   UNL     1      -3.484  11.832  19.004  0.00  0.00    +0.000 A 
ENDBRANCH  21  23
ENDBRANCH  18  19
ENDBRANCH  17  18
ENDBRANCH   6  17
TORSDOF 7
ENDMDL
MODEL 9
REMARK VINA RESULT:      -6.7      4.031     10.812
REMARK  Name = 
REMARK  9 active torsions:
REMARK  status: ('A' for Active; 'I' for Inactive)
REMARK    1  A    between atoms: C_1  and  O_2
REMARK    2  A    between atoms: O_2  and  C_3
REMARK    3  A    between atoms: C_3  and  C_4
REMARK    4  A    between atoms: C_7  and  C_8
REMARK    5  A    between atoms: C_13  and  C_14
REMARK    6  A    between atoms: C_14  and  C_15
REMARK    7  A    between atoms: C_15  and  C_16
REMARK    8  A    between atoms: N_18  and  C_19
REMARK    9  A    between atoms: C_23  and  C_24
REMARK                            x       y       z     vdW  Elec       q    Type
REMARK                         _______ _______ _______ _____ _____    ______ ____
ROOT
ATOM      1  C   UNL     1       4.768   3.925  18.987  0.00  0.00    +0.000 C 
ATOM      2  O   UNL     1       4.745   2.781  19.449  0.00  0.00    +0.000 OA
ATOM      3  N   UNL     1       3.878   4.897  19.482  0.00  0.00    +0.000 N 
ATOM      4  C   UNL     1       3.171   4.631  20.736  0.00  0.00    +0.000 C 
ATOM      5  C   UNL     1       1.666   4.873  20.598  0.00  0.00    +0.000 C 
ATOM      6  C   UNL     1       1.337   6.260  20.007  0.00  0.00    +0.000 C 
ATOM      7  C   UNL     1       2.103   6.421  18.692  0.00  0.00    +0.000 C 
ATOM      8  C   UNL     1       3.601   6.191  18.861  0.00  0.00    +0.000 C 
ENDROOT
BRANCH   1  12
ATOM      9  C   UNL     1       6.749   4.680  15.705  0.00  0.00    +0.000 A 
ATOM     10  C   UNL     1       7.565   5.083  16.740  0.00  0.00    +0.000 A 
ATOM     11  C   UNL     1       6.998   4.798  18.012  0.00  0.00    +0.000 A 
ATOM     12  C   UNL     1       5.705   4.307  17.931  0.00  0.00    +0.000 A 
ATOM     13  S   UNL     1       5.262   4.063  16.286  0.00  0.00    +0.000 S 
BRANCH   9  14
ATOM     14  C   UNL     1       7.044   4.724  14.241  0.00  0.00    +0.000 C 
BRANCH  14  16
ATOM     15  C   UNL     1       6.387   3.634  12.256  0.00  0.00    +0.000 C 
ATOM     16  O   UNL     1       6.404   3.581  13.673  0.00  0.00    +0.000 OA
ENDBRANCH  14  16
ENDBRANCH   9  14
ENDBRANCH   1  12
BRANCH   6  17
ATOM     17  C   UNL     1       1.634   7.372  21.025  0.00  0.00    +0.000 C 
BRANCH  17  18
ATOM     18  C   UNL     1       1.361   8.802  20.538  0.00  0.00    +0.000 C 
BRANCH  18  19
ATOM     19  C   UNL     1       0.092   9.320  21.196  0.00  0.00    +0.000 C 
ATOM     20  O   UNL     1      -0.683   8.548  21.748  0.00  0.00    +0.000 OA
ATOM     21  N   UNL     1      -0.067  10.693  21.101  0.00  0.00    +0.000 N 
ATOM     22  H   UNL     1       0.536  11.195  20.459  0.00  0.00    +0.000 HD
BRANCH  21  23
ATOM     23  C   UNL     1      -1.167  11.405  21.636  0.00  0.00    +0.000 A 
ATOM     24  C   UNL     1      -1.418  11.483  23.009  0.00  0.00    +0.000 A 
ATOM     25  C   UNL     1      -2.570  12.101  23.493  0.00  0.00    +0.000 A 
ATOM     26  C   UNL     1      -3.483  12.658  22.607  0.00  0.00    +0.000 A 
ATOM     27  C   UNL     1      -3.234  12.631  21.230  0.00  0.00    +0.000 A 
ATOM     28  C   UNL     1      -4.233  13.206  20.271  0.00  0.00    +0.000 C 
ATOM     29  C   UNL     1      -2.057  12.026  20.752  0.00  0.00    +0.000 A 
ENDBRANCH  21  23
ENDBRANCH  18  19
ENDBRANCH  17  18
ENDBRANCH   6  17
TORSDOF 7
ENDMDL
