MODEL 1
REMARK VINA RESULT:      -7.2      0.000      0.000
REMARK  Name = 
REMARK  16 active torsions:
REMARK  status: ('A' for Active; 'I' for Inactive)
REMARK    1  A    between atoms: C_1  and  C_2
REMARK    2  A    between atoms: C_2  and  C_3
REMARK    3  A    between atoms: C_3  and  O_4
REMARK    4  A    between atoms: O_4  and  C_5
REMARK    5  A    between atoms: C_5  and  C_6
REMARK    6  A    between atoms: C_6  and  C_7
REMARK    7  A    between atoms: C_7  and  C_8
REMARK    8  A    between atoms: C_8  and  C_9
REMARK    9  A    between atoms: C_9  and  C_10
REMARK   10  A    between atoms: C_10  and  C_11
REMARK   11  A    between atoms: C_11  and  C_12
REMARK   12  A    between atoms: C_11  and  C_13
REMARK   13  A    between atoms: C_11  and  C_14
REMARK   14  A    between atoms: N_16  and  C_17
REMARK   15  A    between atoms: C_18  and  O_19
REMARK   16  A    between atoms: O_19  and  C_20
REMARK                            x       y       z     vdW  Elec       q    Type
REMARK                         _______ _______ _______ _____ _____    ______ ____
ROOT
ATOM      1  C   UNL     1       5.199   5.175  16.621  0.00  0.00    +0.000 C 
ATOM      2  O   UNL     1       5.599   4.873  15.488  0.00  0.00    +0.000 OA
ATOM      3  N   UNL     1       3.843   5.395  16.741  0.00  0.00    +0.000 N 
ATOM      4  H   UNL     1       3.373   4.982  15.942  0.00  0.00    +0.000 HD
ENDROOT
BRANCH   3   5
ATOM      5  C   UNL     1       3.080   5.437  17.930  0.00  0.00    +0.000 A 
ATOM      6  C   UNL     1       2.855   6.679  18.574  0.00  0.00    +0.000 A 
ATOM      7  C   UNL     1       2.273   6.697  19.845  0.00  0.00    +0.000 A 
ATOM      8  C   UNL     1       1.872   5.503  20.445  0.00  0.00    +0.000 A 
ATOM      9  C   UNL     1       2.011   4.292  19.761  0.00  0.00    +0.000 A 
ATOM     10  C   UNL     1       2.585   4.249  18.491  0.00  0.00    +0.000 A 
ATOM     11  O   UNL     1       2.815   3.080  17.807  0.00  0.00    +0.000 OA
ATOM     12  C   UNL     1       2.012   1.984  18.245  0.00  0.00    +0.000 C 
ATOM     13  C   UNL     1       2.097   1.772  19.746  0.00  0.00    +0.000 C 
ATOM     14  C   UNL     1       1.665   3.024  20.434  0.00  0.00    +0.000 C 
ATOM     15  O   UNL     1       1.123   3.024  21.535  0.00  0.00    +0.000 OA
BRANCH   6  16
ATOM     16  O   UNL     1       3.290   7.799  17.908  0.00  0.00    +0.000 OA
ATOM     17  C   UNL     1       2.364   8.865  17.735  0.00  0.00    +0.000 C 
ENDBRANCH   6  16
ENDBRANCH   3   5
BRANCH   1  18
ATOM     18  C   UNL     1       6.199   5.256  17.813  0.00  0.00    +0.000 C 
ATOM     19  C   UNL     1       7.545   4.617  17.393  0.00  0.00    +0.000 C 
ATOM     20  C   UNL     1       5.674   4.421  18.993  0.00  0.00    +0.000 C 
BRANCH  18  21
ATOM     21  C   UNL     1       6.474   6.718  18.199  0.00  0.00    +0.000 C 
BRANCH  21  22
ATOM     22  C   UNL     1       7.900   7.224  18.045  0.00  0.00    +0.000 C 
BRANCH  22  23
ATOM     23  C   UNL     1       7.870   8.716  17.720  0.00  0.00    +0.000 C 
BRANCH  23  24
ATOM     24  C   UNL     1       8.760   9.460  18.691  0.00  0.00    +0.000 C 
BRANCH  24  25
ATOM     25  C   UNL     1       9.310  10.740  18.082  0.00  0.00    +0.000 C 
BRANCH  25  26
ATOM     26  C   UNL     1       9.460  11.769  19.185  0.00  0.00    +0.000 C 
BRANCH  26  27
ATOM     27  O   UNL     1      10.734  12.386  19.078  0.00  0.00    +0.000 OA
BRANCH  27  28
ATOM     28  C   UNL     1      11.399  11.918  17.909  0.00  0.00    +0.000 C 
BRANCH  28  30
ATOM     29  C   UNL     1      11.129  14.252  17.077  0.00  0.00    +0.000 C 
ATOM     30  C   UNL     1      12.091  13.091  17.242  0.00  0.00    +0.000 C 
ENDBRANCH  28  30
ENDBRANCH  27  28
ENDBRANCH  26  27
ENDBRANCH  25  26
ENDBRANCH  24  25
ENDBRANCH  23  24
ENDBRANCH  22  23
ENDBRANCH  21  22
ENDBRANCH  18  21
ENDBRANCH   1  18
TORSDOF 12
ENDMDL
MODEL 2
REMARK VINA RESULT:      -6.9      1.046      1.454
REMARK  Name = 
REMARK  16 active torsions:
REMARK  status: ('A' for Active; 'I' for Inactive)
REMARK    1  A    between atoms: C_1  and  C_2
REMARK    2  A    between atoms: C_2  and  C_3
REMARK    3  A    between atoms: C_3  and  O_4
REMARK    4  A    between atoms: O_4  and  C_5
REMARK    5  A    between atoms: C_5  and  C_6
REMARK    6  A    between atoms: C_6  and  C_7
REMARK    7  A    between atoms: C_7  and  C_8
REMARK    8  A    between atoms: C_8  and  C_9
REMARK    9  A    between atoms: C_9  and  C_10
REMARK   10  A    between atoms: C_10  and  C_11
REMARK   11  A    between atoms: C_11  and  C_12
REMARK   12  A    between atoms: C_11  and  C_13
REMARK   13  A    between atoms: C_11  and  C_14
REMARK   14  A    between atoms: N_16  and  C_17
REMARK   15  A    between atoms: C_18  and  O_19
REMARK   16  A    between atoms: O_19  and  C_20
REMARK                            x       y       z     vdW  Elec       q    Type
REMARK                         _______ _______ _______ _____ _____    ______ ____
ROOT
ATOM      1  C   UNL     1       5.091   5.150  16.570  0.00  0.00    +0.000 C 
ATOM      2  O   UNL     1       5.465   4.796  15.444  0.00  0.00    +0.000 OA
ATOM      3  N   UNL     1       3.734   5.347  16.720  0.00  0.00    +0.000 N 
ATOM      4  H   UNL     1       3.251   4.882  15.959  0.00  0.00    +0.000 HD
ENDROOT
BRANCH   3   5
ATOM      5  C   UNL     1       3.006   5.438  17.928  0.00  0.00    +0.000 A 
ATOM      6  C   UNL     1       2.805   6.704  18.531  0.00  0.00    +0.000 A 
ATOM      7  C   UNL     1       2.260   6.772  19.817  0.00  0.00    +0.000 A 
ATOM      8  C   UNL     1       1.870   5.604  20.471  0.00  0.00    +0.000 A 
ATOM      9  C   UNL     1       1.984   4.368  19.828  0.00  0.00    +0.000 A 
ATOM     10  C   UNL     1       2.521   4.275  18.545  0.00  0.00    +0.000 A 
ATOM     11  O   UNL     1       2.726   3.080  17.898  0.00  0.00    +0.000 OA
ATOM     12  C   UNL     1       1.931   2.005  18.400  0.00  0.00    +0.000 C 
ATOM     13  C   UNL     1       2.057   1.848  19.904  0.00  0.00    +0.000 C 
ATOM     14  C   UNL     1       1.652   3.127  20.558  0.00  0.00    +0.000 C 
ATOM     15  O   UNL     1       1.141   3.171  21.673  0.00  0.00    +0.000 OA
BRANCH   6  16
ATOM     16  O   UNL     1       3.227   7.797  17.813  0.00  0.00    +0.000 OA
ATOM     17  C   UNL     1       2.380   8.939  17.792  0.00  0.00    +0.000 C 
ENDBRANCH   6  16
ENDBRANCH   3   5
BRANCH   1  18
ATOM     18  C   UNL     1       6.123   5.319  17.725  0.00  0.00    +0.000 C 
ATOM     19  C   UNL     1       7.485   4.731  17.279  0.00  0.00    +0.000 C 
ATOM     20  C   UNL     1       5.678   4.497  18.947  0.00  0.00    +0.000 C 
BRANCH  18  21
ATOM     21  C   UNL     1       6.339   6.803  18.056  0.00  0.00    +0.000 C 
BRANCH  21  22
ATOM     22  C   UNL     1       7.476   7.519  17.345  0.00  0.00    +0.000 C 
BRANCH  22  23
ATOM     23  C   UNL     1       8.450   8.070  18.385  0.00  0.00    +0.000 C 
BRANCH  23  24
ATOM     24  C   UNL     1       8.507   9.577  18.271  0.00  0.00    +0.000 C 
BRANCH  24  25
ATOM     25  C   UNL     1       9.332  10.195  19.389  0.00  0.00    +0.000 C 
BRANCH  25  26
ATOM     26  C   UNL     1      10.358  11.124  18.770  0.00  0.00    +0.000 C 
BRANCH  26  27
ATOM     27  O   UNL     1      11.120  11.731  19.803  0.00  0.00    +0.000 OA
BRANCH  27  28
ATOM     28  C   UNL     1      10.278  12.032  20.911  0.00  0.00    +0.000 C 
BRANCH  28  30
ATOM     29  C   UNL     1       8.582  13.773  21.462  0.00  0.00    +0.000 C 
ATOM     30  C   UNL     1       9.965  13.515  20.894  0.00  0.00    +0.000 C 
ENDBRANCH  28  30
ENDBRANCH  27  28
ENDBRANCH  26  27
ENDBRANCH  25  26
ENDBRANCH  24  25
ENDBRANCH  23  24
ENDBRANCH  22  23
ENDBRANCH  21  22
ENDBRANCH  18  21
ENDBRANCH   1  18
TORSDOF 12
ENDMDL
MODEL 3
REMARK VINA RESULT:      -6.9      1.429      3.447
REMARK  Name = 
REMARK  16 active torsions:
REMARK  status: ('A' for Active; 'I' for Inactive)
REMARK    1  A    between atoms: C_1  and  C_2
REMARK    2  A    between atoms: C_2  and  C_3
REMARK    3  A    between atoms: C_3  and  O_4
REMARK    4  A    between atoms: O_4  and  C_5
REMARK    5  A    between atoms: C_5  and  C_6
REMARK    6  A    between atoms: C_6  and  C_7
REMARK    7  A    between atoms: C_7  and  C_8
REMARK    8  A    between atoms: C_8  and  C_9
REMARK    9  A    between atoms: C_9  and  C_10
REMARK   10  A    between atoms: C_10  and  C_11
REMARK   11  A    between atoms: C_11  and  C_12
REMARK   12  A    between atoms: C_11  and  C_13
REMARK   13  A    between atoms: C_11  and  C_14
REMARK   14  A    between atoms: N_16  and  C_17
REMARK   15  A    between atoms: C_18  and  O_19
REMARK   16  A    between atoms: O_19  and  C_20
REMARK                            x       y       z     vdW  Elec       q    Type
REMARK                         _______ _______ _______ _____ _____    ______ ____
ROOT
ATOM      1  C   UNL     1       5.107   4.624  16.943  0.00  0.00    +0.000 C 
ATOM      2  O   UNL     1       5.361   3.898  15.972  0.00  0.00    +0.000 OA
ATOM      3  N   UNL     1       3.773   4.749  17.269  0.00  0.00    +0.000 N 
ATOM      4  H   UNL     1       3.259   3.988  16.837  0.00  0.00    +0.000 HD
ENDROOT
BRANCH   3   5
ATOM      5  C   UNL     1       3.225   5.233  18.479  0.00  0.00    +0.000 A 
ATOM      6  C   UNL     1       3.047   4.348  19.571  0.00  0.00    +0.000 A 
ATOM      7  C   UNL     1       2.329   4.777  20.691  0.00  0.00    +0.000 A 
ATOM      8  C   UNL     1       1.841   6.082  20.748  0.00  0.00    +0.000 A 
ATOM      9  C   UNL     1       2.104   6.976  19.706  0.00  0.00    +0.000 A 
ATOM     10  C   UNL     1       2.822   6.573  18.581  0.00  0.00    +0.000 A 
ATOM     11  O   UNL     1       3.043   7.387  17.497  0.00  0.00    +0.000 OA
ATOM     12  C   UNL     1       2.924   8.781  17.783  0.00  0.00    +0.000 C 
ATOM     13  C   UNL     1       1.611   9.117  18.469  0.00  0.00    +0.000 C 
ATOM     14  C   UNL     1       1.512   8.329  19.732  0.00  0.00    +0.000 C 
ATOM     15  O   UNL     1       0.908   8.732  20.721  0.00  0.00    +0.000 OA
BRANCH   6  16
ATOM     16  O   UNL     1       3.558   3.081  19.420  0.00  0.00    +0.000 OA
ATOM     17  C   UNL     1       3.729   2.295  20.592  0.00  0.00    +0.000 C 
ENDBRANCH   6  16
ENDBRANCH   3   5
BRANCH   1  18
ATOM     18  C   UNL     1       6.261   5.307  17.737  0.00  0.00    +0.000 C 
ATOM     19  C   UNL     1       7.590   4.570  17.438  0.00  0.00    +0.000 C 
ATOM     20  C   UNL     1       6.015   5.158  19.248  0.00  0.00    +0.000 C 
BRANCH  18  21
ATOM     21  C   UNL     1       6.430   6.773  17.307  0.00  0.00    +0.000 C 
BRANCH  21  22
ATOM     22  C   UNL     1       7.766   7.436  17.598  0.00  0.00    +0.000 C 
BRANCH  22  23
ATOM     23  C   UNL     1       7.575   8.951  17.647  0.00  0.00    +0.000 C 
BRANCH  23  24
ATOM     24  C   UNL     1       8.719   9.577  18.413  0.00  0.00    +0.000 C 
BRANCH  24  25
ATOM     25  C   UNL     1       8.878  11.052  18.080  0.00  0.00    +0.000 C 
BRANCH  25  26
ATOM     26  C   UNL     1      10.358  11.375  18.027  0.00  0.00    +0.000 C 
BRANCH  26  27
ATOM     27  O   UNL     1      10.906  11.268  19.333  0.00  0.00    +0.000 OA
BRANCH  27  28
ATOM     28  C   UNL     1      10.839  12.530  19.989  0.00  0.00    +0.000 C 
BRANCH  28  30
ATOM     29  C   UNL     1       8.874  13.227  21.353  0.00  0.00    +0.000 C 
ATOM     30  C   UNL     1      10.112  12.353  21.308  0.00  0.00    +0.000 C 
ENDBRANCH  28  30
ENDBRANCH  27  28
ENDBRANCH  26  27
ENDBRANCH  25  26
ENDBRANCH  24  25
ENDBRANCH  23  24
ENDBRANCH  22  23
ENDBRANCH  21  22
ENDBRANCH  18  21
ENDBRANCH   1  18
TORSDOF 12
ENDMDL
MODEL 4
REMARK VINA RESULT:      -6.7      1.310      3.253
REMARK  Name = 
REMARK  16 active torsions:
REMARK  status: ('A' for Active; 'I' for Inactive)
REMARK    1  A    between atoms: C_1  and  C_2
REMARK    2  A    between atoms: C_2  and  C_3
REMARK    3  A    between atoms: C_3  and  O_4
REMARK    4  A    between atoms: O_4  and  C_5
REMARK    5  A    between atoms: C_5  and  C_6
REMARK    6  A    between atoms: C_6  and  C_7
REMARK    7  A    between atoms: C_7  and  C_8
REMARK    8  A    between atoms: C_8  and  C_9
REMARK    9  A    between atoms: C_9  and  C_10
REMARK   10  A    between atoms: C_10  and  C_11
REMARK   11  A    between atoms: C_11  and  C_12
REMARK   12  A    between atoms: C_11  and  C_13
REMARK   13  A    between atoms: C_11  and  C_14
REMARK   14  A    between atoms: N_16  and  C_17
REMARK   15  A    between atoms: C_18  and  O_19
REMARK   16  A    between atoms: O_19  and  C_20
REMARK                            x       y       z     vdW  Elec       q    Type
REMARK                         _______ _______ _______ _____ _____    ______ ____
ROOT
ATOM      1  C   UNL     1       5.059   4.589  16.990  0.00  0.00    +0.000 C 
ATOM      2  O   UNL     1       5.325   3.844  16.037  0.00  0.00    +0.000 OA
ATOM      3  N   UNL     1       3.725   4.688  17.324  0.00  0.00    +0.000 N 
ATOM      4  H   UNL     1       3.227   3.904  16.915  0.00  0.00    +0.000 HD
ENDROOT
BRANCH   3   5
ATOM      5  C   UNL     1       3.173   5.191  18.523  0.00  0.00    +0.000 A 
ATOM      6  C   UNL     1       2.966   4.317  19.619  0.00  0.00    +0.000 A 
ATOM      7  C   UNL     1       2.243   4.767  20.728  0.00  0.00    +0.000 A 
ATOM      8  C   UNL     1       1.779   6.081  20.771  0.00  0.00    +0.000 A 
ATOM      9  C   UNL     1       2.072   6.963  19.727  0.00  0.00    +0.000 A 
ATOM     10  C   UNL     1       2.794   6.539  18.612  0.00  0.00    +0.000 A 
ATOM     11  O   UNL     1       3.042   7.342  17.525  0.00  0.00    +0.000 OA
ATOM     12  C   UNL     1       2.946   8.740  17.802  0.00  0.00    +0.000 C 
ATOM     13  C   UNL     1       1.633   9.105  18.470  0.00  0.00    +0.000 C 
ATOM     14  C   UNL     1       1.504   8.327  19.737  0.00  0.00    +0.000 C 
ATOM     15  O   UNL     1       0.897   8.748  20.717  0.00  0.00    +0.000 OA
BRANCH   6  16
ATOM     16  O   UNL     1       3.454   3.040  19.482  0.00  0.00    +0.000 OA
ATOM     17  C   UNL     1       2.529   2.013  19.149  0.00  0.00    +0.000 C 
ENDBRANCH   6  16
ENDBRANCH   3   5
BRANCH   1  18
ATOM     18  C   UNL     1       6.200   5.323  17.757  0.00  0.00    +0.000 C 
ATOM     19  C   UNL     1       7.558   4.672  17.394  0.00  0.00    +0.000 C 
ATOM     20  C   UNL     1       6.020   5.129  19.272  0.00  0.00    +0.000 C 
BRANCH  18  21
ATOM     21  C   UNL     1       6.267   6.804  17.354  0.00  0.00    +0.000 C 
BRANCH  21  22
ATOM     22  C   UNL     1       7.639   7.382  17.046  0.00  0.00    +0.000 C 
BRANCH  22  23
ATOM     23  C   UNL     1       8.136   8.169  18.257  0.00  0.00    +0.000 C 
BRANCH  23  24
ATOM     24  C   UNL     1       8.189   9.641  17.912  0.00  0.00    +0.000 C 
BRANCH  24  25
ATOM     25  C   UNL     1       9.439  10.304  18.467  0.00  0.00    +0.000 C 
BRANCH  25  26
ATOM     26  C   UNL     1       9.267  10.472  19.964  0.00  0.00    +0.000 C 
BRANCH  26  27
ATOM     27  O   UNL     1      10.194  11.439  20.435  0.00  0.00    +0.000 OA
BRANCH  27  28
ATOM     28  C   UNL     1      10.781  12.122  19.331  0.00  0.00    +0.000 C 
BRANCH  28  30
ATOM     29  C   UNL     1      11.687  14.372  18.761  0.00  0.00    +0.000 C 
ATOM     30  C   UNL     1      11.533  13.331  19.853  0.00  0.00    +0.000 C 
ENDBRANCH  28  30
ENDBRANCH  27  28
ENDBRANCH  26  27
ENDBRANCH  25  26
ENDBRANCH  24  25
ENDBRANCH  23  24
ENDBRANCH  22  23
ENDBRANCH  21  22
ENDBRANCH  18  21
ENDBRANCH   1  18
TORSDOF 12
ENDMDL
MODEL 5
REMARK VINA RESULT:      -6.5      1.072      1.225
REMARK  Name = 
REMARK  16 active torsions:
REMARK  status: ('A' for Active; 'I' for Inactive)
REMARK    1  A    between atoms: C_1  and  C_2
REMARK    2  A    between atoms: C_2  and  C_3
REMARK    3  A    between atoms: C_3  and  O_4
REMARK    4  A    between atoms: O_4  and  C_5
REMARK    5  A    between atoms: C_5  and  C_6
REMARK    6  A    between atoms: C_6  and  C_7
REMARK    7  A    between atoms: C_7  and  C_8
REMARK    8  A    between atoms: C_8  and  C_9
REMARK    9  A    between atoms: C_9  and  C_10
REMARK   10  A    between atoms: C_10  and  C_11
REMARK   11  A    between atoms: C_11  and  C_12
REMARK   12  A    between atoms: C_11  and  C_13
REMARK   13  A    between atoms: C_11  and  C_14
REMARK   14  A    between atoms: N_16  and  C_17
REMARK   15  A    between atoms: C_18  and  O_19
REMARK   16  A    between atoms: O_19  and  C_20
REMARK                            x       y       z     vdW  Elec       q    Type
REMARK                         _______ _______ _______ _____ _____    ______ ____
ROOT
ATOM      1  C   UNL     1       5.628   6.000  16.296  0.00  0.00    +0.000 C 
ATOM      2  O   UNL     1       6.006   5.912  15.121  0.00  0.00    +0.000 OA
ATOM      3  N   UNL     1       4.263   5.993  16.492  0.00  0.00    +0.000 N 
ATOM      4  H   UNL     1       3.816   5.619  15.661  0.00  0.00    +0.000 HD
ENDROOT
BRANCH   3   5
ATOM      5  C   UNL     1       3.568   5.764  17.701  0.00  0.00    +0.000 A 
ATOM      6  C   UNL     1       2.996   6.857  18.398  0.00  0.00    +0.000 A 
ATOM      7  C   UNL     1       2.484   6.658  19.683  0.00  0.00    +0.000 A 
ATOM      8  C   UNL     1       2.490   5.382  20.246  0.00  0.00    +0.000 A 
ATOM      9  C   UNL     1       2.968   4.293  19.512  0.00  0.00    +0.000 A 
ATOM     10  C   UNL     1       3.481   4.466  18.227  0.00  0.00    +0.000 A 
ATOM     11  O   UNL     1       4.033   3.444  17.493  0.00  0.00    +0.000 OA
ATOM     12  C   UNL     1       3.622   2.142  17.909  0.00  0.00    +0.000 C 
ATOM     13  C   UNL     1       3.822   1.923  19.397  0.00  0.00    +0.000 C 
ATOM     14  C   UNL     1       3.052   2.961  20.145  0.00  0.00    +0.000 C 
ATOM     15  O   UNL     1       2.577   2.762  21.258  0.00  0.00    +0.000 OA
BRANCH   6  16
ATOM     16  O   UNL     1       3.043   8.076  17.765  0.00  0.00    +0.000 OA
ATOM     17  C   UNL     1       1.960   8.972  17.980  0.00  0.00    +0.000 C 
ENDBRANCH   6  16
ENDBRANCH   3   5
BRANCH   1  18
ATOM     18  C   UNL     1       6.668   6.079  17.454  0.00  0.00    +0.000 C 
ATOM     19  C   UNL     1       7.526   4.790  17.456  0.00  0.00    +0.000 C 
ATOM     20  C   UNL     1       5.940   6.114  18.809  0.00  0.00    +0.000 C 
BRANCH  18  21
ATOM     21  C   UNL     1       7.615   7.273  17.260  0.00  0.00    +0.000 C 
BRANCH  21  22
ATOM     22  C   UNL     1       8.236   7.882  18.508  0.00  0.00    +0.000 C 
BRANCH  22  23
ATOM     23  C   UNL     1       8.558   9.351  18.242  0.00  0.00    +0.000 C 
BRANCH  23  24
ATOM     24  C   UNL     1       8.996  10.011  19.531  0.00  0.00    +0.000 C 
BRANCH  24  25
ATOM     25  C   UNL     1      10.154  10.970  19.306  0.00  0.00    +0.000 C 
BRANCH  25  26
ATOM     26  C   UNL     1      10.111  11.443  17.866  0.00  0.00    +0.000 C 
BRANCH  26  27
ATOM     27  O   UNL     1      11.373  11.992  17.518  0.00  0.00    +0.000 OA
BRANCH  27  28
ATOM     28  C   UNL     1      11.189  13.152  16.712  0.00  0.00    +0.000 C 
BRANCH  28  30
ATOM     29  C   UNL     1      11.360  15.576  17.264  0.00  0.00    +0.000 C 
ATOM     30  C   UNL     1      10.658  14.271  17.587  0.00  0.00    +0.000 C 
ENDBRANCH  28  30
ENDBRANCH  27  28
ENDBRANCH  26  27
ENDBRANCH  25  26
ENDBRANCH  24  25
ENDBRANCH  23  24
ENDBRANCH  22  23
ENDBRANCH  21  22
ENDBRANCH  18  21
ENDBRANCH   1  18
TORSDOF 12
ENDMDL
MODEL 6
REMARK VINA RESULT:      -6.5      3.753      7.545
REMARK  Name = 
REMARK  16 active torsions:
REMARK  status: ('A' for Active; 'I' for Inactive)
REMARK    1  A    between atoms: C_1  and  C_2
REMARK    2  A    between atoms: C_2  and  C_3
REMARK    3  A    between atoms: C_3  and  O_4
REMARK    4  A    between atoms: O_4  and  C_5
REMARK    5  A    between atoms: C_5  and  C_6
REMARK    6  A    between atoms: C_6  and  C_7
REMARK    7  A    between atoms: C_7  and  C_8
REMARK    8  A    between atoms: C_8  and  C_9
REMARK    9  A    between atoms: C_9  and  C_10
REMARK   10  A    between atoms: C_10  and  C_11
REMARK   11  A    between atoms: C_11  and  C_12
REMARK   12  A    between atoms: C_11  and  C_13
REMARK   13  A    between atoms: C_11  and  C_14
REMARK   14  A    between atoms: N_16  and  C_17
REMARK   15  A    between atoms: C_18  and  O_19
REMARK   16  A    between atoms: O_19  and  C_20
REMARK                            x       y       z     vdW  Elec       q    Type
REMARK                         _______ _______ _______ _____ _____    ______ ____
ROOT
ATOM      1  C   UNL     1       2.801   4.149  20.082  0.00  0.00    +0.000 C 
ATOM      2  O   UNL     1       2.564   3.590  21.162  0.00  0.00    +0.000 OA
ATOM      3  N   UNL     1       3.341   5.415  20.165  0.00  0.00    +0.000 N 
ATOM      4  H   UNL     1       3.722   5.546  21.096  0.00  0.00    +0.000 HD
ENDROOT
BRANCH   3   5
ATOM      5  C   UNL     1       3.991   6.142  19.142  0.00  0.00    +0.000 A 
ATOM      6  C   UNL     1       3.253   7.070  18.366  0.00  0.00    +0.000 A 
ATOM      7  C   UNL     1       3.844   7.640  17.234  0.00  0.00    +0.000 A 
ATOM      8  C   UNL     1       5.165   7.334  16.909  0.00  0.00    +0.000 A 
ATOM      9  C   UNL     1       5.915   6.491  17.735  0.00  0.00    +0.000 A 
ATOM     10  C   UNL     1       5.349   5.914  18.871  0.00  0.00    +0.000 A 
ATOM     11  O   UNL     1       6.015   5.020  19.674  0.00  0.00    +0.000 OA
ATOM     12  C   UNL     1       7.437   5.089  19.563  0.00  0.00    +0.000 C 
ATOM     13  C   UNL     1       7.907   4.995  18.123  0.00  0.00    +0.000 C 
ATOM     14  C   UNL     1       7.283   6.102  17.340  0.00  0.00    +0.000 C 
ATOM     15  O   UNL     1       7.828   6.618  16.369  0.00  0.00    +0.000 OA
BRANCH   6  16
ATOM     16  O   UNL     1       1.958   7.303  18.761  0.00  0.00    +0.000 OA
ATOM     17  C   UNL     1       1.616   8.626  19.155  0.00  0.00    +0.000 C 
ENDBRANCH   6  16
ENDBRANCH   3   5
BRANCH   1  18
ATOM     18  C   UNL     1       2.520   3.414  18.737  0.00  0.00    +0.000 C 
ATOM     19  C   UNL     1       1.544   4.265  17.887  0.00  0.00    +0.000 C 
ATOM     20  C   UNL     1       1.803   2.080  19.010  0.00  0.00    +0.000 C 
BRANCH  18  21
ATOM     21  C   UNL     1       3.814   3.236  17.928  0.00  0.00    +0.000 C 
BRANCH  21  22
ATOM     22  C   UNL     1       3.784   3.645  16.464  0.00  0.00    +0.000 C 
BRANCH  22  23
ATOM     23  C   UNL     1       5.135   3.326  15.826  0.00  0.00    +0.000 C 
BRANCH  23  24
ATOM     24  C   UNL     1       5.452   4.366  14.775  0.00  0.00    +0.000 C 
BRANCH  24  25
ATOM     25  C   UNL     1       6.334   3.802  13.674  0.00  0.00    +0.000 C 
BRANCH  25  26
ATOM     26  C   UNL     1       5.574   3.877  12.364  0.00  0.00    +0.000 C 
BRANCH  26  27
ATOM     27  O   UNL     1       4.832   2.680  12.186  0.00  0.00    +0.000 OA
BRANCH  27  28
ATOM     28  C   UNL     1       5.261   2.018  11.000  0.00  0.00    +0.000 C 
BRANCH  28  30
ATOM     29  C   UNL     1       6.166  -0.290  11.257  0.00  0.00    +0.000 C 
ATOM     30  C   UNL     1       6.489   1.191  11.325  0.00  0.00    +0.000 C 
ENDBRANCH  28  30
ENDBRANCH  27  28
ENDBRANCH  26  27
ENDBRANCH  25  26
ENDBRANCH  24  25
ENDBRANCH  23  24
ENDBRANCH  22  23
ENDBRANCH  21  22
ENDBRANCH  18  21
ENDBRANCH   1  18
TORSDOF 12
ENDMDL
MODEL 7
REMARK VINA RESULT:      -6.4      1.298      1.432
REMARK  Name = 
REMARK  16 active torsions:
REMARK  status: ('A' for Active; 'I' for Inactive)
REMARK    1  A    between atoms: C_1  and  C_2
REMARK    2  A    between atoms: C_2  and  C_3
REMARK    3  A    between atoms: C_3  and  O_4
REMARK    4  A    between atoms: O_4  and  C_5
REMARK    5  A    between atoms: C_5  and  C_6
REMARK    6  A    between atoms: C_6  and  C_7
REMARK    7  A    between atoms: C_7  and  C_8
REMARK    8  A    between atoms: C_8  and  C_9
REMARK    9  A    between atoms: C_9  and  C_10
REMARK   10  A    between atoms: C_10  and  C_11
REMARK   11  A    between atoms: C_11  and  C_12
REMARK   12  A    between atoms: C_11  and  C_13
REMARK   13  A    between atoms: C_11  and  C_14
REMARK   14  A    between atoms: N_16  and  C_17
REMARK   15  A    between atoms: C_18  and  O_19
REMARK   16  A    between atoms: O_19  and  C_20
REMARK                            x       y       z     vdW  Elec       q    Type
REMARK                         _______ _______ _______ _____ _____    ______ ____
ROOT
ATOM      1  C   UNL     1       5.539   5.478  16.486  0.00  0.00    +0.000 C 
ATOM      2  O   UNL     1       5.903   5.258  15.323  0.00  0.00    +0.000 OA
ATOM      3  N   UNL     1       4.183   5.393  16.719  0.00  0.00    +0.000 N 
ATOM      4  H   UNL     1       3.753   4.875  15.959  0.00  0.00    +0.000 HD
ENDROOT
BRANCH   3   5
ATOM      5  C   UNL     1       3.530   5.279  17.968  0.00  0.00    +0.000 A 
ATOM      6  C   UNL     1       2.916   6.419  18.543  0.00  0.00    +0.000 A 
ATOM      7  C   UNL     1       2.445   6.354  19.858  0.00  0.00    +0.000 A 
ATOM      8  C   UNL     1       2.533   5.160  20.572  0.00  0.00    +0.000 A 
ATOM      9  C   UNL     1       3.053   4.014  19.961  0.00  0.00    +0.000 A 
ATOM     10  C   UNL     1       3.526   4.053  18.650  0.00  0.00    +0.000 A 
ATOM     11  O   UNL     1       4.115   2.979  18.029  0.00  0.00    +0.000 OA
ATOM     12  C   UNL     1       3.785   1.718  18.613  0.00  0.00    +0.000 C 
ATOM     13  C   UNL     1       4.031   1.695  20.111  0.00  0.00    +0.000 C 
ATOM     14  C   UNL     1       3.224   2.776  20.749  0.00  0.00    +0.000 C 
ATOM     15  O   UNL     1       2.787   2.692  21.892  0.00  0.00    +0.000 OA
BRANCH   6  16
ATOM     16  O   UNL     1       2.881   7.552  17.765  0.00  0.00    +0.000 OA
ATOM     17  C   UNL     1       2.088   8.640  18.221  0.00  0.00    +0.000 C 
ENDBRANCH   6  16
ENDBRANCH   3   5
BRANCH   1  18
ATOM     18  C   UNL     1       6.589   5.795  17.593  0.00  0.00    +0.000 C 
ATOM     19  C   UNL     1       7.569   4.602  17.721  0.00  0.00    +0.000 C 
ATOM     20  C   UNL     1       5.889   5.926  18.956  0.00  0.00    +0.000 C 
BRANCH  18  21
ATOM     21  C   UNL     1       7.412   7.041  17.227  0.00  0.00    +0.000 C 
BRANCH  21  22
ATOM     22  C   UNL     1       8.134   7.756  18.358  0.00  0.00    +0.000 C 
BRANCH  22  23
ATOM     23  C   UNL     1       8.294   9.232  17.996  0.00  0.00    +0.000 C 
BRANCH  23  24
ATOM     24  C   UNL     1       9.184   9.906  19.017  0.00  0.00    +0.000 C 
BRANCH  24  25
ATOM     25  C   UNL     1       9.427  11.366  18.674  0.00  0.00    +0.000 C 
BRANCH  25  26
ATOM     26  C   UNL     1      10.915  11.641  18.772  0.00  0.00    +0.000 C 
BRANCH  26  27
ATOM     27  O   UNL     1      11.201  12.888  18.156  0.00  0.00    +0.000 OA
BRANCH  27  28
ATOM     28  C   UNL     1      11.909  13.724  19.066  0.00  0.00    +0.000 C 
BRANCH  28  30
ATOM     29  C   UNL     1      10.555  14.625  20.954  0.00  0.00    +0.000 C 
ATOM     30  C   UNL     1      10.987  14.840  19.516  0.00  0.00    +0.000 C 
ENDBRANCH  28  30
ENDBRANCH  27  28
ENDBRANCH  26  27
ENDBRANCH  25  26
ENDBRANCH  24  25
ENDBRANCH  23  24
ENDBRANCH  22  23
ENDBRANCH  21  22
ENDBRANCH  18  21
ENDBRANCH   1  18
TORSDOF 12
ENDMDL
MODEL 8
REMARK VINA RESULT:      -6.4      0.998      1.052
REMARK  Name = 
REMARK  16 active torsions:
REMARK  status: ('A' for Active; 'I' for Inactive)
REMARK    1  A    between atoms: C_1  and  C_2
REMARK    2  A    between atoms: C_2  and  C_3
REMARK    3  A    between atoms: C_3  and  O_4
REMARK    4  A    between atoms: O_4  and  C_5
REMARK    5  A    between atoms: C_5  and  C_6
REMARK    6  A    between atoms: C_6  and  C_7
REMARK    7  A    between atoms: C_7  and  C_8
REMARK    8  A    between atoms: C_8  and  C_9
REMARK    9  A    between atoms: C_9  and  C_10
REMARK   10  A    between atoms: C_10  and  C_11
REMARK   11  A    between atoms: C_11  and  C_12
REMARK   12  A    between atoms: C_11  and  C_13
REMARK   13  A    between atoms: C_11  and  C_14
REMARK   14  A    between atoms: N_16  and  C_17
REMARK   15  A    between atoms: C_18  and  O_19
REMARK   16  A    between atoms: O_19  and  C_20
REMARK                            x       y       z     vdW  Elec       q    Type
REMARK                         _______ _______ _______ _____ _____    ______ ____
ROOT
ATOM      1  C   UNL     1       4.830   6.233  16.568  0.00  0.00    +0.000 C 
ATOM      2  O   UNL     1       5.117   6.454  15.383  0.00  0.00    +0.000 OA
ATOM      3  N   UNL     1       3.508   6.415  16.911  0.00  0.00    +0.000 N 
ATOM      4  H   UNL     1       2.948   6.413  16.065  0.00  0.00    +0.000 HD
ENDROOT
BRANCH   3   5
ATOM      5  C   UNL     1       2.847   5.947  18.069  0.00  0.00    +0.000 A 
ATOM      6  C   UNL     1       2.398   6.873  19.043  0.00  0.00    +0.000 A 
ATOM      7  C   UNL     1       1.925   6.402  20.271  0.00  0.00    +0.000 A 
ATOM      8  C   UNL     1       1.847   5.030  20.508  0.00  0.00    +0.000 A 
ATOM      9  C   UNL     1       2.201   4.123  19.505  0.00  0.00    +0.000 A 
ATOM     10  C   UNL     1       2.673   4.569  18.271  0.00  0.00    +0.000 A 
ATOM     11  O   UNL     1       3.106   3.722  17.279  0.00  0.00    +0.000 OA
ATOM     12  C   UNL     1       2.605   2.390  17.393  0.00  0.00    +0.000 C 
ATOM     13  C   UNL     1       2.848   1.799  18.770  0.00  0.00    +0.000 C 
ATOM     14  C   UNL     1       2.200   2.674  19.791  0.00  0.00    +0.000 C 
ATOM     15  O   UNL     1       1.756   2.243  20.850  0.00  0.00    +0.000 OA
BRANCH   6  16
ATOM     16  O   UNL     1       2.520   8.204  18.721  0.00  0.00    +0.000 OA
ATOM     17  C   UNL     1       1.561   9.103  19.261  0.00  0.00    +0.000 C 
ENDBRANCH   6  16
ENDBRANCH   3   5
BRANCH   1  18
ATOM     18  C   UNL     1       5.925   5.749  17.566  0.00  0.00    +0.000 C 
ATOM     19  C   UNL     1       6.075   4.211  17.449  0.00  0.00    +0.000 C 
ATOM     20  C   UNL     1       5.477   6.030  19.010  0.00  0.00    +0.000 C 
BRANCH  18  21
ATOM     21  C   UNL     1       7.287   6.379  17.235  0.00  0.00    +0.000 C 
BRANCH  21  22
ATOM     22  C   UNL     1       7.944   7.227  18.313  0.00  0.00    +0.000 C 
BRANCH  22  23
ATOM     23  C   UNL     1       8.007   8.678  17.840  0.00  0.00    +0.000 C 
BRANCH  23  24
ATOM     24  C   UNL     1       8.836   9.487  18.814  0.00  0.00    +0.000 C 
BRANCH  24  25
ATOM     25  C   UNL     1       9.376  10.755  18.173  0.00  0.00    +0.000 C 
BRANCH  25  26
ATOM     26  C   UNL     1       9.898  11.661  19.271  0.00  0.00    +0.000 C 
BRANCH  26  27
ATOM     27  O   UNL     1      11.259  11.972  19.011  0.00  0.00    +0.000 OA
BRANCH  27  28
ATOM     28  C   UNL     1      11.454  13.381  19.076  0.00  0.00    +0.000 C 
BRANCH  28  30
ATOM     29  C   UNL     1      11.765  13.571  16.611  0.00  0.00    +0.000 C 
ATOM     30  C   UNL     1      10.926  14.003  17.798  0.00  0.00    +0.000 C 
ENDBRANCH  28  30
ENDBRANCH  27  28
ENDBRANCH  26  27
ENDBRANCH  25  26
ENDBRANCH  24  25
ENDBRANCH  23  24
ENDBRANCH  22  23
ENDBRANCH  21  22
ENDBRANCH  18  21
ENDBRANCH   1  18
TORSDOF 12
ENDMDL
MODEL 9
REMARK VINA RESULT:      -6.4      1.352      2.016
REMARK  Name = 
REMARK  16 active torsions:
REMARK  status: ('A' for Active; 'I' for Inactive)
REMARK    1  A    between atoms: C_1  and  C_2
REMARK    2  A    between atoms: C_2  and  C_3
REMARK    3  A    between atoms: C_3  and  O_4
REMARK    4  A    between atoms: O_4  and  C_5
REMARK    5  A    between atoms: C_5  and  C_6
REMARK    6  A    between atoms: C_6  and  C_7
REMARK    7  A    between atoms: C_7  and  C_8
REMARK    8  A    between atoms: C_8  and  C_9
REMARK    9  A    between atoms: C_9  and  C_10
REMARK   10  A    between atoms: C_10  and  C_11
REMARK   11  A    between atoms: C_11  and  C_12
REMARK   12  A    between atoms: C_11  and  C_13
REMARK   13  A    between atoms: C_11  and  C_14
REMARK   14  A    between atoms: N_16  and  C_17
REMARK   15  A    between atoms: C_18  and  O_19
REMARK   16  A    between atoms: O_19  and  C_20
REMARK                            x       y       z     vdW  Elec       q    Type
REMARK                         _______ _______ _______ _____ _____    ______ ____
ROOT
ATOM      1  C   UNL     1       5.188   6.099  16.400  0.00  0.00    +0.000 C 
ATOM      2  O   UNL     1       5.516   6.176  15.208  0.00  0.00    +0.000 OA
ATOM      3  N   UNL     1       3.844   6.254  16.666  0.00  0.00    +0.000 N 
ATOM      4  H   UNL     1       3.323   6.110  15.807  0.00  0.00    +0.000 HD
ENDROOT
BRANCH   3   5
ATOM      5  C   UNL     1       3.156   5.909  17.851  0.00  0.00    +0.000 A 
ATOM      6  C   UNL     1       2.730   6.931  18.736  0.00  0.00    +0.000 A 
ATOM      7  C   UNL     1       2.229   6.583  19.994  0.00  0.00    +0.000 A 
ATOM      8  C   UNL     1       2.102   5.239  20.347  0.00  0.00    +0.000 A 
ATOM      9  C   UNL     1       2.435   4.239  19.430  0.00  0.00    +0.000 A 
ATOM     10  C   UNL     1       2.934   4.560  18.168  0.00  0.00    +0.000 A 
ATOM     11  O   UNL     1       3.348   3.618  17.258  0.00  0.00    +0.000 OA
ATOM     12  C   UNL     1       2.800   2.318  17.479  0.00  0.00    +0.000 C 
ATOM     13  C   UNL     1       3.009   1.840  18.904  0.00  0.00    +0.000 C 
ATOM     14  C   UNL     1       2.381   2.820  19.839  0.00  0.00    +0.000 C 
ATOM     15  O   UNL     1       1.913   2.496  20.925  0.00  0.00    +0.000 OA
BRANCH   6  16
ATOM     16  O   UNL     1       2.901   8.224  18.304  0.00  0.00    +0.000 OA
ATOM     17  C   UNL     1       1.739   8.951  17.927  0.00  0.00    +0.000 C 
ENDBRANCH   6  16
ENDBRANCH   3   5
BRANCH   1  18
ATOM     18  C   UNL     1       6.260   5.811  17.494  0.00  0.00    +0.000 C 
ATOM     19  C   UNL     1       6.634   4.308  17.455  0.00  0.00    +0.000 C 
ATOM     20  C   UNL     1       5.666   6.071  18.888  0.00  0.00    +0.000 C 
BRANCH  18  21
ATOM     21  C   UNL     1       7.540   6.620  17.234  0.00  0.00    +0.000 C 
BRANCH  21  22
ATOM     22  C   UNL     1       8.075   7.466  18.379  0.00  0.00    +0.000 C 
BRANCH  22  23
ATOM     23  C   UNL     1       8.147   8.925  17.932  0.00  0.00    +0.000 C 
BRANCH  23  24
ATOM     24  C   UNL     1       9.034   9.698  18.884  0.00  0.00    +0.000 C 
BRANCH  24  25
ATOM     25  C   UNL     1       9.228  11.135  18.429  0.00  0.00    +0.000 C 
BRANCH  25  26
ATOM     26  C   UNL     1       9.731  11.947  19.606  0.00  0.00    +0.000 C 
BRANCH  26  27
ATOM     27  O   UNL     1       9.077  13.207  19.618  0.00  0.00    +0.000 OA
BRANCH  27  28
ATOM     28  C   UNL     1       8.582  13.480  20.925  0.00  0.00    +0.000 C 
BRANCH  28  30
ATOM     29  C   UNL     1       8.577  12.280  23.109  0.00  0.00    +0.000 C 
ATOM     30  C   UNL     1       9.425  12.722  21.932  0.00  0.00    +0.000 C 
ENDBRANCH  28  30
ENDBRANCH  27  28
ENDBRANCH  26  27
ENDBRANCH  25  26
ENDBRANCH  24  25
ENDBRANCH  23  24
ENDBRANCH  22  23
ENDBRANCH  21  22
ENDBRANCH  18  21
ENDBRANCH   1  18
TORSDOF 12
ENDMDL
