MODEL 1
REMARK VINA RESULT:      -8.4      0.000      0.000
REMARK  Name = 
REMARK  7 active torsions:
REMARK  status: ('A' for Active; 'I' for Inactive)
REMARK    1  A    between atoms: C_1  and  O_2
REMARK    2  A    between atoms: O_2  and  C_3
REMARK    3  A    between atoms: C_5  and  N_6
REMARK    4  A    between atoms: N_15  and  C_16
REMARK    5  A    between atoms: C_16  and  C_17
REMARK    6  A    between atoms: C_25  and  N_26
REMARK    7  A    between atoms: C_29  and  C_30
REMARK                            x       y       z     vdW  Elec       q    Type
REMARK                         _______ _______ _______ _____ _____    ______ ____
ROOT
ATOM      1  N   UNL     1       2.141   7.960  20.210  0.00  0.00    +0.000 N 
ATOM      2  C   UNL     1       2.098   6.619  20.225  0.00  0.00    +0.000 A 
ATOM      3  N   UNL     1       3.215   5.968  19.774  0.00  0.00    +0.000 NA
ATOM      4  C   UNL     1       2.857   4.708  19.773  0.00  0.00    +0.000 A 
ATOM      5  N   UNL     1       1.586   4.621  20.264  0.00  0.00    +0.000 N 
ATOM      6  N   UNL     1       1.086   5.817  20.570  0.00  0.00    +0.000 NA
ATOM      7  C   UNL     1       0.836   3.398  20.421  0.00  0.00    +0.000 C 
ATOM      8  C   UNL     1       1.749   2.176  20.312  0.00  0.00    +0.000 C 
ATOM      9  C   UNL     1       2.776   2.360  19.187  0.00  0.00    +0.000 C 
ATOM     10  N   UNL     1       3.527   3.588  19.413  0.00  0.00    +0.000 N 
ATOM     11  H   UNL     1       2.949   8.356  19.752  0.00  0.00    +0.000 HD
ENDROOT
BRANCH   1  14
ATOM     12  C   UNL     1      -0.348  10.747  20.521  0.00  0.00    +0.000 A 
ATOM     13  C   UNL     1       0.520   9.793  19.969  0.00  0.00    +0.000 A 
ATOM     14  C   UNL     1       1.256   8.899  20.758  0.00  0.00    +0.000 A 
ATOM     15  C   UNL     1       1.166   9.014  22.143  0.00  0.00    +0.000 A 
ATOM     16  C   UNL     1       0.337   9.974  22.717  0.00  0.00    +0.000 A 
ATOM     17  C   UNL     1      -0.431  10.842  21.918  0.00  0.00    +0.000 A 
BRANCH  17  18
ATOM     18  N   UNL     1      -1.274  11.769  22.591  0.00  0.00    +0.000 N 
ATOM     19  C   UNL     1      -1.083  13.110  22.834  0.00  0.00    +0.000 A 
ATOM     20  N   UNL     1      -2.049  13.634  23.563  0.00  0.00    +0.000 NA
ATOM     21  C   UNL     1      -2.931  12.607  23.790  0.00  0.00    +0.000 A 
ATOM     22  C   UNL     1      -4.169  12.787  24.573  0.00  0.00    +0.000 C 
ATOM     23  C   UNL     1      -2.480  11.459  23.184  0.00  0.00    +0.000 A 
ENDBRANCH  17  18
BRANCH  12  25
ATOM     24  C   UNL     1      -0.430  12.581  19.013  0.00  0.00    +0.000 C 
ATOM     25  O   UNL     1      -1.123  11.562  19.736  0.00  0.00    +0.000 OA
ENDBRANCH  12  25
ENDBRANCH   1  14
BRANCH  10  26
ATOM     26  C   UNL     1       4.959   3.645  19.172  0.00  0.00    +0.000 C 
BRANCH  26  27
ATOM     27  C   UNL     1       5.327   4.289  17.856  0.00  0.00    +0.000 A 
ATOM     28  C   UNL     1       6.226   5.365  17.818  0.00  0.00    +0.000 A 
ATOM     29  C   UNL     1       6.623   5.922  16.600  0.00  0.00    +0.000 A 
ATOM     30  C   UNL     1       6.125   5.410  15.406  0.00  0.00    +0.000 A 
ATOM     31  C   UNL     1       5.218   4.351  15.429  0.00  0.00    +0.000 A 
ATOM     32  C   UNL     1       4.816   3.798  16.647  0.00  0.00    +0.000 A 
ENDBRANCH  26  27
ENDBRANCH  10  26
TORSDOF 5
ENDMDL
MODEL 2
REMARK VINA RESULT:      -8.3      1.246      1.932
REMARK  Name = 
REMARK  7 active torsions:
REMARK  status: ('A' for Active; 'I' for Inactive)
REMARK    1  A    between atoms: C_1  and  O_2
REMARK    2  A    between atoms: O_2  and  C_3
REMARK    3  A    between atoms: C_5  and  N_6
REMARK    4  A    between atoms: N_15  and  C_16
REMARK    5  A    between atoms: C_16  and  C_17
REMARK    6  A    between atoms: C_25  and  N_26
REMARK    7  A    between atoms: C_29  and  C_30
REMARK                            x       y       z     vdW  Elec       q    Type
REMARK                         _______ _______ _______ _____ _____    ______ ____
ROOT
ATOM      1  N   UNL     1       1.775   8.402  18.995  0.00  0.00    +0.000 N 
ATOM      2  C   UNL     1       2.206   7.158  19.257  0.00  0.00    +0.000 A 
ATOM      3  N   UNL     1       3.075   6.610  18.352  0.00  0.00    +0.000 NA
ATOM      4  C   UNL     1       3.222   5.380  18.774  0.00  0.00    +0.000 A 
ATOM      5  N   UNL     1       2.506   5.230  19.926  0.00  0.00    +0.000 N 
ATOM      6  N   UNL     1       1.862   6.347  20.262  0.00  0.00    +0.000 NA
ATOM      7  C   UNL     1       2.414   4.014  20.698  0.00  0.00    +0.000 C 
ATOM      8  C   UNL     1       3.492   3.014  20.278  0.00  0.00    +0.000 C 
ATOM      9  C   UNL     1       3.658   2.997  18.752  0.00  0.00    +0.000 C 
ATOM     10  N   UNL     1       3.946   4.346  18.282  0.00  0.00    +0.000 N 
ATOM     11  H   UNL     1       2.040   8.763  18.090  0.00  0.00    +0.000 HD
ENDROOT
BRANCH   1  14
ATOM     12  C   UNL     1      -0.439  11.237  20.053  0.00  0.00    +0.000 A 
ATOM     13  C   UNL     1       0.276  10.334  19.252  0.00  0.00    +0.000 A 
ATOM     14  C   UNL     1       1.042   9.291  19.792  0.00  0.00    +0.000 A 
ATOM     15  C   UNL     1       1.141   9.196  21.178  0.00  0.00    +0.000 A 
ATOM     16  C   UNL     1       0.468  10.099  21.996  0.00  0.00    +0.000 A 
ATOM     17  C   UNL     1      -0.332  11.119  21.447  0.00  0.00    +0.000 A 
BRANCH  17  18
ATOM     18  N   UNL     1      -1.009  11.976  22.359  0.00  0.00    +0.000 N 
ATOM     19  C   UNL     1      -2.186  11.774  23.042  0.00  0.00    +0.000 A 
ATOM     20  N   UNL     1      -2.551  12.831  23.742  0.00  0.00    +0.000 NA
ATOM     21  C   UNL     1      -1.564  13.761  23.537  0.00  0.00    +0.000 A 
ATOM     22  C   UNL     1      -1.597  15.099  24.161  0.00  0.00    +0.000 C 
ATOM     23  C   UNL     1      -0.599  13.247  22.705  0.00  0.00    +0.000 A 
ENDBRANCH  17  18
BRANCH  12  25
ATOM     24  C   UNL     1      -0.755  12.847  18.335  0.00  0.00    +0.000 C 
ATOM     25  O   UNL     1      -1.247  12.203  19.512  0.00  0.00    +0.000 OA
ENDBRANCH  12  25
ENDBRANCH   1  14
BRANCH  10  26
ATOM     26  C   UNL     1       4.928   4.580  17.237  0.00  0.00    +0.000 C 
BRANCH  26  27
ATOM     27  C   UNL     1       6.088   5.442  17.679  0.00  0.00    +0.000 A 
ATOM     28  C   UNL     1       6.381   6.638  17.009  0.00  0.00    +0.000 A 
ATOM     29  C   UNL     1       7.408   7.474  17.452  0.00  0.00    +0.000 A 
ATOM     30  C   UNL     1       8.156   7.122  18.572  0.00  0.00    +0.000 A 
ATOM     31  C   UNL     1       7.886   5.928  19.239  0.00  0.00    +0.000 A 
ATOM     32  C   UNL     1       6.863   5.089  18.792  0.00  0.00    +0.000 A 
ENDBRANCH  26  27
ENDBRANCH  10  26
TORSDOF 5
ENDMDL
MODEL 3
REMARK VINA RESULT:      -8.3      2.673     10.640
REMARK  Name = 
REMARK  7 active torsions:
REMARK  status: ('A' for Active; 'I' for Inactive)
REMARK    1  A    between atoms: C_1  and  O_2
REMARK    2  A    between atoms: O_2  and  C_3
REMARK    3  A    between atoms: C_5  and  N_6
REMARK    4  A    between atoms: N_15  and  C_16
REMARK    5  A    between atoms: C_16  and  C_17
REMARK    6  A    between atoms: C_25  and  N_26
REMARK    7  A    between atoms: C_29  and  C_30
REMARK                            x       y       z     vdW  Elec       q    Type
REMARK                         _______ _______ _______ _____ _____    ______ ____
ROOT
ATOM      1  N   UNL     1       1.756   7.769  20.057  0.00  0.00    +0.000 N 
ATOM      2  C   UNL     1       1.112   8.942  19.952  0.00  0.00    +0.000 A 
ATOM      3  N   UNL     1       0.432   9.365  21.063  0.00  0.00    +0.000 NA
ATOM      4  C   UNL     1      -0.195  10.437  20.649  0.00  0.00    +0.000 A 
ATOM      5  N   UNL     1       0.154  10.666  19.350  0.00  0.00    +0.000 N 
ATOM      6  N   UNL     1       0.992   9.740  18.887  0.00  0.00    +0.000 NA
ATOM      7  C   UNL     1      -0.328  11.758  18.537  0.00  0.00    +0.000 C 
ATOM      8  C   UNL     1      -0.996  12.830  19.399  0.00  0.00    +0.000 C 
ATOM      9  C   UNL     1      -1.858  12.191  20.497  0.00  0.00    +0.000 C 
ATOM     10  N   UNL     1      -1.039  11.282  21.287  0.00  0.00    +0.000 N 
ATOM     11  H   UNL     1       1.574   7.256  20.907  0.00  0.00    +0.000 HD
ENDROOT
BRANCH   1  14
ATOM     12  C   UNL     1       4.264   5.369  18.638  0.00  0.00    +0.000 A 
ATOM     13  C   UNL     1       3.335   5.966  19.503  0.00  0.00    +0.000 A 
ATOM     14  C   UNL     1       2.669   7.158  19.185  0.00  0.00    +0.000 A 
ATOM     15  C   UNL     1       2.998   7.800  17.993  0.00  0.00    +0.000 A 
ATOM     16  C   UNL     1       3.941   7.245  17.133  0.00  0.00    +0.000 A 
ATOM     17  C   UNL     1       4.576   6.027  17.439  0.00  0.00    +0.000 A 
BRANCH  17  18
ATOM     18  N   UNL     1       5.502   5.519  16.486  0.00  0.00    +0.000 N 
ATOM     19  C   UNL     1       6.869   5.663  16.430  0.00  0.00    +0.000 A 
ATOM     20  N   UNL     1       7.391   5.116  15.349  0.00  0.00    +0.000 NA
ATOM     21  C   UNL     1       6.333   4.564  14.675  0.00  0.00    +0.000 A 
ATOM     22  C   UNL     1       6.499   3.842  13.397  0.00  0.00    +0.000 C 
ATOM     23  C   UNL     1       5.167   4.785  15.368  0.00  0.00    +0.000 A 
ENDBRANCH  17  18
BRANCH  12  25
ATOM     24  C   UNL     1       4.026   3.008  18.748  0.00  0.00    +0.000 C 
ATOM     25  O   UNL     1       4.849   4.162  18.925  0.00  0.00    +0.000 OA
ENDBRANCH  12  25
ENDBRANCH   1  14
BRANCH  10  26
ATOM     26  C   UNL     1      -1.180  11.212  22.732  0.00  0.00    +0.000 C 
BRANCH  26  27
ATOM     27  C   UNL     1      -1.941  12.377  23.323  0.00  0.00    +0.000 A 
ATOM     28  C   UNL     1      -3.266  12.215  23.755  0.00  0.00    +0.000 A 
ATOM     29  C   UNL     1      -3.953  13.267  24.363  0.00  0.00    +0.000 A 
ATOM     30  C   UNL     1      -3.324  14.494  24.548  0.00  0.00    +0.000 A 
ATOM     31  C   UNL     1      -2.013  14.674  24.110  0.00  0.00    +0.000 A 
ATOM     32  C   UNL     1      -1.327  13.624  23.495  0.00  0.00    +0.000 A 
ENDBRANCH  26  27
ENDBRANCH  10  26
TORSDOF 5
ENDMDL
MODEL 4
REMARK VINA RESULT:      -8.3      1.225      1.731
REMARK  Name = 
REMARK  7 active torsions:
REMARK  status: ('A' for Active; 'I' for Inactive)
REMARK    1  A    between atoms: C_1  and  O_2
REMARK    2  A    between atoms: O_2  and  C_3
REMARK    3  A    between atoms: C_5  and  N_6
REMARK    4  A    between atoms: N_15  and  C_16
REMARK    5  A    between atoms: C_16  and  C_17
REMARK    6  A    between atoms: C_25  and  N_26
REMARK    7  A    between atoms: C_29  and  C_30
REMARK                            x       y       z     vdW  Elec       q    Type
REMARK                         _______ _______ _______ _____ _____    ______ ____
ROOT
ATOM      1  N   UNL     1       1.748   8.444  18.973  0.00  0.00    +0.000 N 
ATOM      2  C   UNL     1       2.153   7.200  19.274  0.00  0.00    +0.000 A 
ATOM      3  N   UNL     1       3.039   6.621  18.405  0.00  0.00    +0.000 NA
ATOM      4  C   UNL     1       3.156   5.398  18.857  0.00  0.00    +0.000 A 
ATOM      5  N   UNL     1       2.406   5.283  19.991  0.00  0.00    +0.000 N 
ATOM      6  N   UNL     1       1.769   6.415  20.284  0.00  0.00    +0.000 NA
ATOM      7  C   UNL     1       2.275   4.085  20.786  0.00  0.00    +0.000 C 
ATOM      8  C   UNL     1       3.349   3.061  20.418  0.00  0.00    +0.000 C 
ATOM      9  C   UNL     1       3.558   3.010  18.898  0.00  0.00    +0.000 C 
ATOM     10  N   UNL     1       3.878   4.344  18.408  0.00  0.00    +0.000 N 
ATOM     11  H   UNL     1       2.043   8.782  18.068  0.00  0.00    +0.000 HD
ENDROOT
BRANCH   1  14
ATOM     12  C   UNL     1      -0.476  11.315  19.906  0.00  0.00    +0.000 A 
ATOM     13  C   UNL     1       0.248  10.385  19.145  0.00  0.00    +0.000 A 
ATOM     14  C   UNL     1       1.005   9.360  19.730  0.00  0.00    +0.000 A 
ATOM     15  C   UNL     1       1.086   9.312  21.119  0.00  0.00    +0.000 A 
ATOM     16  C   UNL     1       0.404  10.243  21.897  0.00  0.00    +0.000 A 
ATOM     17  C   UNL     1      -0.388  11.245  21.304  0.00  0.00    +0.000 A 
BRANCH  17  18
ATOM     18  N   UNL     1      -1.075  12.132  22.177  0.00  0.00    +0.000 N 
ATOM     19  C   UNL     1      -0.670  13.342  22.693  0.00  0.00    +0.000 A 
ATOM     20  N   UNL     1      -1.547  13.849  23.539  0.00  0.00    +0.000 NA
ATOM     21  C   UNL     1      -2.586  12.954  23.565  0.00  0.00    +0.000 A 
ATOM     22  C   UNL     1      -3.787  13.161  24.399  0.00  0.00    +0.000 C 
ATOM     23  C   UNL     1      -2.322  11.902  22.720  0.00  0.00    +0.000 A 
ENDBRANCH  17  18
BRANCH  12  25
ATOM     24  C   UNL     1      -2.517  11.796  18.787  0.00  0.00    +0.000 C 
ATOM     25  O   UNL     1      -1.276  12.263  19.321  0.00  0.00    +0.000 OA
ENDBRANCH  12  25
ENDBRANCH   1  14
BRANCH  10  26
ATOM     26  C   UNL     1       4.894   4.542  17.387  0.00  0.00    +0.000 C 
BRANCH  26  27
ATOM     27  C   UNL     1       6.013   5.461  17.816  0.00  0.00    +0.000 A 
ATOM     28  C   UNL     1       6.788   5.159  18.946  0.00  0.00    +0.000 A 
ATOM     29  C   UNL     1       7.867   5.967  19.310  0.00  0.00    +0.000 A 
ATOM     30  C   UNL     1       8.184   7.087  18.549  0.00  0.00    +0.000 A 
ATOM     31  C   UNL     1       7.414   7.409  17.432  0.00  0.00    +0.000 A 
ATOM     32  C   UNL     1       6.331   6.605  17.071  0.00  0.00    +0.000 A 
ENDBRANCH  26  27
ENDBRANCH  10  26
TORSDOF 5
ENDMDL
MODEL 5
REMARK VINA RESULT:      -8.2      0.806      1.009
REMARK  Name = 
REMARK  7 active torsions:
REMARK  status: ('A' for Active; 'I' for Inactive)
REMARK    1  A    between atoms: C_1  and  O_2
REMARK    2  A    between atoms: O_2  and  C_3
REMARK    3  A    between atoms: C_5  and  N_6
REMARK    4  A    between atoms: N_15  and  C_16
REMARK    5  A    between atoms: C_16  and  C_17
REMARK    6  A    between atoms: C_25  and  N_26
REMARK    7  A    between atoms: C_29  and  C_30
REMARK                            x       y       z     vdW  Elec       q    Type
REMARK                         _______ _______ _______ _____ _____    ______ ____
ROOT
ATOM      1  N   UNL     1       1.923   8.256  20.167  0.00  0.00    +0.000 N 
ATOM      2  C   UNL     1       1.972   6.917  20.230  0.00  0.00    +0.000 A 
ATOM      3  N   UNL     1       3.078   6.321  19.685  0.00  0.00    +0.000 NA
ATOM      4  C   UNL     1       2.808   5.042  19.763  0.00  0.00    +0.000 A 
ATOM      5  N   UNL     1       1.604   4.893  20.389  0.00  0.00    +0.000 N 
ATOM      6  N   UNL     1       1.059   6.066  20.707  0.00  0.00    +0.000 NA
ATOM      7  C   UNL     1       0.959   3.632  20.665  0.00  0.00    +0.000 C 
ATOM      8  C   UNL     1       1.936   2.467  20.498  0.00  0.00    +0.000 C 
ATOM      9  C   UNL     1       2.826   2.672  19.264  0.00  0.00    +0.000 C 
ATOM     10  N   UNL     1       3.511   3.954  19.369  0.00  0.00    +0.000 N 
ATOM     11  H   UNL     1       2.650   8.685  19.613  0.00  0.00    +0.000 HD
ENDROOT
BRANCH   1  14
ATOM     12  C   UNL     1      -0.534  11.045  20.666  0.00  0.00    +0.000 A 
ATOM     13  C   UNL     1       0.333  10.129  20.052  0.00  0.00    +0.000 A 
ATOM     14  C   UNL     1       1.039   9.158  20.776  0.00  0.00    +0.000 A 
ATOM     15  C   UNL     1       0.917   9.152  22.163  0.00  0.00    +0.000 A 
ATOM     16  C   UNL     1       0.088  10.071  22.801  0.00  0.00    +0.000 A 
ATOM     17  C   UNL     1      -0.649  11.018  22.064  0.00  0.00    +0.000 A 
BRANCH  17  18
ATOM     18  N   UNL     1      -1.494  11.896  22.797  0.00  0.00    +0.000 N 
ATOM     19  C   UNL     1      -2.748  11.674  23.318  0.00  0.00    +0.000 A 
ATOM     20  N   UNL     1      -3.264  12.755  23.870  0.00  0.00    +0.000 NA
ATOM     21  C   UNL     1      -2.305  13.726  23.734  0.00  0.00    +0.000 A 
ATOM     22  C   UNL     1      -2.496  15.101  24.237  0.00  0.00    +0.000 C 
ATOM     23  C   UNL     1      -1.203  13.212  23.094  0.00  0.00    +0.000 A 
ENDBRANCH  17  18
BRANCH  12  25
ATOM     24  C   UNL     1      -1.566  11.564  18.590  0.00  0.00    +0.000 C 
ATOM     25  O   UNL     1      -1.279  11.937  19.939  0.00  0.00    +0.000 OA
ENDBRANCH  12  25
ENDBRANCH   1  14
BRANCH  10  26
ATOM     26  C   UNL     1       4.903   4.092  18.976  0.00  0.00    +0.000 C 
BRANCH  26  27
ATOM     27  C   UNL     1       5.086   4.570  17.554  0.00  0.00    +0.000 A 
ATOM     28  C   UNL     1       5.238   5.936  17.277  0.00  0.00    +0.000 A 
ATOM     29  C   UNL     1       5.475   6.380  15.974  0.00  0.00    +0.000 A 
ATOM     30  C   UNL     1       5.561   5.462  14.932  0.00  0.00    +0.000 A 
ATOM     31  C   UNL     1       5.396   4.102  15.190  0.00  0.00    +0.000 A 
ATOM     32  C   UNL     1       5.153   3.658  16.492  0.00  0.00    +0.000 A 
ENDBRANCH  26  27
ENDBRANCH  10  26
TORSDOF 5
ENDMDL
MODEL 6
REMARK VINA RESULT:      -8.1      1.700      2.576
REMARK  Name = 
REMARK  7 active torsions:
REMARK  status: ('A' for Active; 'I' for Inactive)
REMARK    1  A    between atoms: C_1  and  O_2
REMARK    2  A    between atoms: O_2  and  C_3
REMARK    3  A    between atoms: C_5  and  N_6
REMARK    4  A    between atoms: N_15  and  C_16
REMARK    5  A    between atoms: C_16  and  C_17
REMARK    6  A    between atoms: C_25  and  N_26
REMARK    7  A    between atoms: C_29  and  C_30
REMARK                            x       y       z     vdW  Elec       q    Type
REMARK                         _______ _______ _______ _____ _____    ______ ____
ROOT
ATOM      1  N   UNL     1       1.678   9.239  18.786  0.00  0.00    +0.000 N 
ATOM      2  C   UNL     1       2.019   7.985  19.120  0.00  0.00    +0.000 A 
ATOM      3  N   UNL     1       2.831   7.319  18.240  0.00  0.00    +0.000 NA
ATOM      4  C   UNL     1       2.892   6.109  18.735  0.00  0.00    +0.000 A 
ATOM      5  N   UNL     1       2.185   6.083  19.901  0.00  0.00    +0.000 N 
ATOM      6  N   UNL     1       1.631   7.263  20.175  0.00  0.00    +0.000 NA
ATOM      7  C   UNL     1       2.015   4.926  20.748  0.00  0.00    +0.000 C 
ATOM      8  C   UNL     1       3.009   3.824  20.378  0.00  0.00    +0.000 C 
ATOM      9  C   UNL     1       3.149   3.704  18.854  0.00  0.00    +0.000 C 
ATOM     10  N   UNL     1       3.529   4.996  18.299  0.00  0.00    +0.000 N 
ATOM     11  H   UNL     1       1.955   9.524  17.858  0.00  0.00    +0.000 HD
ENDROOT
BRANCH   1  14
ATOM     12  C   UNL     1       0.009  11.034  21.625  0.00  0.00    +0.000 A 
ATOM     13  C   UNL     1       0.683  10.051  20.884  0.00  0.00    +0.000 A 
ATOM     14  C   UNL     1       1.025  10.227  19.535  0.00  0.00    +0.000 A 
ATOM     15  C   UNL     1       0.618  11.398  18.900  0.00  0.00    +0.000 A 
ATOM     16  C   UNL     1      -0.080  12.375  19.604  0.00  0.00    +0.000 A 
ATOM     17  C   UNL     1      -0.385  12.209  20.968  0.00  0.00    +0.000 A 
BRANCH  17  18
ATOM     18  N   UNL     1      -1.073  13.273  21.615  0.00  0.00    +0.000 N 
ATOM     19  C   UNL     1      -0.570  14.341  22.322  0.00  0.00    +0.000 A 
ATOM     20  N   UNL     1      -1.520  15.088  22.851  0.00  0.00    +0.000 NA
ATOM     21  C   UNL     1      -2.699  14.510  22.458  0.00  0.00    +0.000 A 
ATOM     22  C   UNL     1      -4.015  15.057  22.844  0.00  0.00    +0.000 C 
ATOM     23  C   UNL     1      -2.445  13.404  21.682  0.00  0.00    +0.000 A 
ENDBRANCH  17  18
BRANCH  12  25
ATOM     24  C   UNL     1      -0.131   9.555  23.479  0.00  0.00    +0.000 C 
ATOM     25  O   UNL     1      -0.248  10.882  22.963  0.00  0.00    +0.000 OA
ENDBRANCH  12  25
ENDBRANCH   1  14
BRANCH  10  26
ATOM     26  C   UNL     1       4.511   5.092  17.232  0.00  0.00    +0.000 C 
BRANCH  26  27
ATOM     27  C   UNL     1       5.813   5.726  17.662  0.00  0.00    +0.000 A 
ATOM     28  C   UNL     1       6.276   6.893  17.037  0.00  0.00    +0.000 A 
ATOM     29  C   UNL     1       7.444   7.522  17.474  0.00  0.00    +0.000 A 
ATOM     30  C   UNL     1       8.163   6.992  18.541  0.00  0.00    +0.000 A 
ATOM     31  C   UNL     1       7.723   5.823  19.161  0.00  0.00    +0.000 A 
ATOM     32  C   UNL     1       6.559   5.190  18.721  0.00  0.00    +0.000 A 
ENDBRANCH  26  27
ENDBRANCH  10  26
TORSDOF 5
ENDMDL
MODEL 7
REMARK VINA RESULT:      -8.1      1.616      2.609
REMARK  Name = 
REMARK  7 active torsions:
REMARK  status: ('A' for Active; 'I' for Inactive)
REMARK    1  A    between atoms: C_1  and  O_2
REMARK    2  A    between atoms: O_2  and  C_3
REMARK    3  A    between atoms: C_5  and  N_6
REMARK    4  A    between atoms: N_15  and  C_16
REMARK    5  A    between atoms: C_16  and  C_17
REMARK    6  A    between atoms: C_25  and  N_26
REMARK    7  A    between atoms: C_29  and  C_30
REMARK                            x       y       z     vdW  Elec       q    Type
REMARK                         _______ _______ _______ _____ _____    ______ ____
ROOT
ATOM      1  N   UNL     1       1.873   8.526  18.558  0.00  0.00    +0.000 N 
ATOM      2  C   UNL     1       2.233   7.291  18.941  0.00  0.00    +0.000 A 
ATOM      3  N   UNL     1       3.114   6.632  18.126  0.00  0.00    +0.000 NA
ATOM      4  C   UNL     1       3.184   5.436  18.653  0.00  0.00    +0.000 A 
ATOM      5  N   UNL     1       2.410   5.414  19.777  0.00  0.00    +0.000 N 
ATOM      6  N   UNL     1       1.806   6.581  19.990  0.00  0.00    +0.000 NA
ATOM      7  C   UNL     1       2.227   4.271  20.640  0.00  0.00    +0.000 C 
ATOM      8  C   UNL     1       3.274   3.194  20.356  0.00  0.00    +0.000 C 
ATOM      9  C   UNL     1       3.507   3.043  18.846  0.00  0.00    +0.000 C 
ATOM     10  N   UNL     1       3.879   4.334  18.283  0.00  0.00    +0.000 N 
ATOM     11  H   UNL     1       2.195   8.799  17.640  0.00  0.00    +0.000 HD
ENDROOT
BRANCH   1  14
ATOM     12  C   UNL     1       0.338  10.536  21.326  0.00  0.00    +0.000 A 
ATOM     13  C   UNL     1       1.083   9.564  20.643  0.00  0.00    +0.000 A 
ATOM     14  C   UNL     1       1.147   9.510  19.243  0.00  0.00    +0.000 A 
ATOM     15  C   UNL     1       0.387  10.420  18.513  0.00  0.00    +0.000 A 
ATOM     16  C   UNL     1      -0.388  11.374  19.167  0.00  0.00    +0.000 A 
ATOM     17  C   UNL     1      -0.415  11.449  20.572  0.00  0.00    +0.000 A 
BRANCH  17  18
ATOM     18  N   UNL     1      -1.209  12.476  21.153  0.00  0.00    +0.000 N 
ATOM     19  C   UNL     1      -2.527  12.449  21.546  0.00  0.00    +0.000 A 
ATOM     20  N   UNL     1      -2.952  13.623  21.973  0.00  0.00    +0.000 NA
ATOM     21  C   UNL     1      -1.866  14.456  21.885  0.00  0.00    +0.000 A 
ATOM     22  C   UNL     1      -1.926  15.877  22.280  0.00  0.00    +0.000 C 
ATOM     23  C   UNL     1      -0.781  13.764  21.401  0.00  0.00    +0.000 A 
ENDBRANCH  17  18
BRANCH  12  25
ATOM     24  C   UNL     1      -0.387   9.623  23.396  0.00  0.00    +0.000 C 
ATOM     25  O   UNL     1       0.348  10.628  22.694  0.00  0.00    +0.000 OA
ENDBRANCH  12  25
ENDBRANCH   1  14
BRANCH  10  26
ATOM     26  C   UNL     1       4.918   4.437  17.271  0.00  0.00    +0.000 C 
BRANCH  26  27
ATOM     27  C   UNL     1       6.076   5.317  17.681  0.00  0.00    +0.000 A 
ATOM     28  C   UNL     1       6.409   6.452  16.928  0.00  0.00    +0.000 A 
ATOM     29  C   UNL     1       7.435   7.306  17.337  0.00  0.00    +0.000 A 
ATOM     30  C   UNL     1       8.141   7.036  18.505  0.00  0.00    +0.000 A 
ATOM     31  C   UNL     1       7.832   5.902  19.256  0.00  0.00    +0.000 A 
ATOM     32  C   UNL     1       6.810   5.044  18.844  0.00  0.00    +0.000 A 
ENDBRANCH  26  27
ENDBRANCH  10  26
TORSDOF 5
ENDMDL
MODEL 8
REMARK VINA RESULT:      -8.0      1.559      2.394
REMARK  Name = 
REMARK  7 active torsions:
REMARK  status: ('A' for Active; 'I' for Inactive)
REMARK    1  A    between atoms: C_1  and  O_2
REMARK    2  A    between atoms: O_2  and  C_3
REMARK    3  A    between atoms: C_5  and  N_6
REMARK    4  A    between atoms: N_15  and  C_16
REMARK    5  A    between atoms: C_16  and  C_17
REMARK    6  A    between atoms: C_25  and  N_26
REMARK    7  A    between atoms: C_29  and  C_30
REMARK                            x       y       z     vdW  Elec       q    Type
REMARK                         _______ _______ _______ _____ _____    ______ ____
ROOT
ATOM      1  N   UNL     1       1.825   8.556  18.609  0.00  0.00    +0.000 N 
ATOM      2  C   UNL     1       2.171   7.318  18.995  0.00  0.00    +0.000 A 
ATOM      3  N   UNL     1       3.074   6.661  18.201  0.00  0.00    +0.000 NA
ATOM      4  C   UNL     1       3.126   5.462  18.723  0.00  0.00    +0.000 A 
ATOM      5  N   UNL     1       2.321   5.435  19.825  0.00  0.00    +0.000 N 
ATOM      6  N   UNL     1       1.714   6.603  20.028  0.00  0.00    +0.000 NA
ATOM      7  C   UNL     1       2.111   4.288  20.676  0.00  0.00    +0.000 C 
ATOM      8  C   UNL     1       3.163   3.210  20.414  0.00  0.00    +0.000 C 
ATOM      9  C   UNL     1       3.438   3.067  18.911  0.00  0.00    +0.000 C 
ATOM     10  N   UNL     1       3.828   4.360  18.365  0.00  0.00    +0.000 N 
ATOM     11  H   UNL     1       2.173   8.833  17.703  0.00  0.00    +0.000 HD
ENDROOT
BRANCH   1  14
ATOM     12  C   UNL     1       0.270  10.591  21.348  0.00  0.00    +0.000 A 
ATOM     13  C   UNL     1       1.031   9.621  20.679  0.00  0.00    +0.000 A 
ATOM     14  C   UNL     1       1.083   9.537  19.280  0.00  0.00    +0.000 A 
ATOM     15  C   UNL     1       0.295  10.413  18.538  0.00  0.00    +0.000 A 
ATOM     16  C   UNL     1      -0.495  11.364  19.178  0.00  0.00    +0.000 A 
ATOM     17  C   UNL     1      -0.511  11.469  20.582  0.00  0.00    +0.000 A 
BRANCH  17  18
ATOM     18  N   UNL     1      -1.323  12.490  21.148  0.00  0.00    +0.000 N 
ATOM     19  C   UNL     1      -1.050  13.826  21.332  0.00  0.00    +0.000 A 
ATOM     20  N   UNL     1      -2.018  14.457  21.968  0.00  0.00    +0.000 NA
ATOM     21  C   UNL     1      -2.984  13.509  22.191  0.00  0.00    +0.000 A 
ATOM     22  C   UNL     1      -4.252  13.820  22.881  0.00  0.00    +0.000 C 
ATOM     23  C   UNL     1      -2.583  12.299  21.677  0.00  0.00    +0.000 A 
ENDBRANCH  17  18
BRANCH  12  25
ATOM     24  C   UNL     1      -0.131   9.565  23.453  0.00  0.00    +0.000 C 
ATOM     25  O   UNL     1       0.290  10.713  22.713  0.00  0.00    +0.000 OA
ENDBRANCH  12  25
ENDBRANCH   1  14
BRANCH  10  26
ATOM     26  C   UNL     1       4.895   4.467  17.384  0.00  0.00    +0.000 C 
BRANCH  26  27
ATOM     27  C   UNL     1       6.011   5.395  17.801  0.00  0.00    +0.000 A 
ATOM     28  C   UNL     1       6.767   5.126  18.951  0.00  0.00    +0.000 A 
ATOM     29  C   UNL     1       7.844   5.942  19.307  0.00  0.00    +0.000 A 
ATOM     30  C   UNL     1       8.177   7.036  18.516  0.00  0.00    +0.000 A 
ATOM     31  C   UNL     1       7.426   7.325  17.378  0.00  0.00    +0.000 A 
ATOM     32  C   UNL     1       6.345   6.514  17.026  0.00  0.00    +0.000 A 
ENDBRANCH  26  27
ENDBRANCH  10  26
TORSDOF 5
ENDMDL
MODEL 9
REMARK VINA RESULT:      -8.0      2.841     10.443
REMARK  Name = 
REMARK  7 active torsions:
REMARK  status: ('A' for Active; 'I' for Inactive)
REMARK    1  A    between atoms: C_1  and  O_2
REMARK    2  A    between atoms: O_2  and  C_3
REMARK    3  A    between atoms: C_5  and  N_6
REMARK    4  A    between atoms: N_15  and  C_16
REMARK    5  A    between atoms: C_16  and  C_17
REMARK    6  A    between atoms: C_25  and  N_26
REMARK    7  A    between atoms: C_29  and  C_30
REMARK                            x       y       z     vdW  Elec       q    Type
REMARK                         _______ _______ _______ _____ _____    ______ ____
ROOT
ATOM      1  N   UNL     1       0.586   9.582  19.911  0.00  0.00    +0.000 N 
ATOM      2  C   UNL     1      -0.523  10.111  19.371  0.00  0.00    +0.000 A 
ATOM      3  N   UNL     1      -1.066  11.185  20.023  0.00  0.00    +0.000 NA
ATOM      4  C   UNL     1      -2.181  11.407  19.373  0.00  0.00    +0.000 A 
ATOM      5  N   UNL     1      -2.258  10.525  18.335  0.00  0.00    +0.000 N 
ATOM      6  N   UNL     1      -1.213   9.699  18.303  0.00  0.00    +0.000 NA
ATOM      7  C   UNL     1      -3.341  10.450  17.383  0.00  0.00    +0.000 C 
ATOM      8  C   UNL     1      -4.219  11.699  17.452  0.00  0.00    +0.000 C 
ATOM      9  C   UNL     1      -4.445  12.130  18.908  0.00  0.00    +0.000 C 
ATOM     10  N   UNL     1      -3.157  12.327  19.559  0.00  0.00    +0.000 N 
ATOM     11  H   UNL     1       0.840   9.954  20.815  0.00  0.00    +0.000 HD
ENDROOT
BRANCH   1  14
ATOM     12  C   UNL     1       2.706   6.503  19.614  0.00  0.00    +0.000 A 
ATOM     13  C   UNL     1       1.807   7.457  20.115  0.00  0.00    +0.000 A 
ATOM     14  C   UNL     1       1.467   8.617  19.404  0.00  0.00    +0.000 A 
ATOM     15  C   UNL     1       2.099   8.853  18.186  0.00  0.00    +0.000 A 
ATOM     16  C   UNL     1       3.020   7.938  17.682  0.00  0.00    +0.000 A 
ATOM     17  C   UNL     1       3.327   6.756  18.382  0.00  0.00    +0.000 A 
BRANCH  17  18
ATOM     18  N   UNL     1       4.255   5.864  17.777  0.00  0.00    +0.000 N 
ATOM     19  C   UNL     1       4.024   4.729  17.036  0.00  0.00    +0.000 A 
ATOM     20  N   UNL     1       5.138   4.107  16.702  0.00  0.00    +0.000 NA
ATOM     21  C   UNL     1       6.151   4.874  17.219  0.00  0.00    +0.000 A 
ATOM     22  C   UNL     1       7.574   4.518  17.056  0.00  0.00    +0.000 C 
ATOM     23  C   UNL     1       5.628   5.968  17.866  0.00  0.00    +0.000 A 
ENDBRANCH  17  18
BRANCH  12  25
ATOM     24  C   UNL     1       1.831   4.602  20.738  0.00  0.00    +0.000 C 
ATOM     25  O   UNL     1       2.970   5.336  20.283  0.00  0.00    +0.000 OA
ENDBRANCH  12  25
ENDBRANCH   1  14
BRANCH  10  26
ATOM     26  C   UNL     1      -2.941  13.441  20.468  0.00  0.00    +0.000 C 
BRANCH  26  27
ATOM     27  C   UNL     1      -3.583  13.251  21.822  0.00  0.00    +0.000 A 
ATOM     28  C   UNL     1      -4.849  13.792  22.091  0.00  0.00    +0.000 A 
ATOM     29  C   UNL     1      -5.478  13.564  23.316  0.00  0.00    +0.000 A 
ATOM     30  C   UNL     1      -4.849  12.792  24.288  0.00  0.00    +0.000 A 
ATOM     31  C   UNL     1      -3.585  12.261  24.041  0.00  0.00    +0.000 A 
ATOM     32  C   UNL     1      -2.952  12.494  22.818  0.00  0.00    +0.000 A 
ENDBRANCH  26  27
ENDBRANCH  10  26
TORSDOF 5
ENDMDL
