MODEL 1
REMARK VINA RESULT:      -7.5      0.000      0.000
REMARK  Name = 
REMARK  10 active torsions:
REMARK  status: ('A' for Active; 'I' for Inactive)
REMARK    1  A    between atoms: C_1  and  C_2
REMARK    2  A    between atoms: C_2  and  O_3
REMARK    3  A    between atoms: O_3  and  C_4
REMARK    4  A    between atoms: C_4  and  C_6
REMARK    5  A    between atoms: N_12  and  C_13
REMARK    6  A    between atoms: C_13  and  C_14
REMARK    7  A    between atoms: C_21  and  C_22
REMARK    8  A    between atoms: C_22  and  C_23
REMARK    9  A    between atoms: N_25  and  C_26
REMARK   10  A    between atoms: C_26  and  C_27
REMARK                            x       y       z     vdW  Elec       q    Type
REMARK                         _______ _______ _______ _____ _____    ______ ____
ROOT
ATOM      1  C   UNL     1      -0.186  11.669  21.824  0.00  0.00    +0.000 C 
ATOM      2  C   UNL     1      -1.415  11.393  22.744  0.00  0.00    +0.000 C 
ATOM      3  C   UNL     1      -2.697  12.174  22.398  0.00  0.00    +0.000 C 
ATOM      4  C   UNL     1      -2.551  13.136  21.218  0.00  0.00    +0.000 C 
ATOM      5  C   UNL     1      -2.070  12.411  19.989  0.00  0.00    +0.000 C 
ATOM      6  C   UNL     1      -0.984  11.618  20.081  0.00  0.00    +0.000 C 
ATOM      7  N   UNL     1      -0.442  10.501  18.904  0.00  0.00    +0.000 N 
ATOM      8  C   UNL     1       0.860   9.454  19.154  0.00  0.00    +0.000 C 
ATOM      9  O   UNL     1       1.362   8.881  18.179  0.00  0.00    +0.000 OA
ATOM     10  C   UNL     1       1.449   9.047  20.858  0.00  0.00    +0.000 C 
ATOM     11  C   UNL     1       1.021  10.257  22.299  0.00  0.00    +0.000 C 
ENDROOT
BRANCH   1  12
ATOM     12  C   UNL     1       0.226  10.883  20.850  0.00  0.00    +0.000 C 
ATOM     13  O   UNL     1      -0.425   9.771  20.986  0.00  0.00    +0.000 OA
BRANCH  12  14
ATOM     14  O   UNL     1       1.465  11.434  20.288  0.00  0.00    +0.000 OA
BRANCH  14  16
ATOM     15  C   UNL     1       2.522  13.202  18.925  0.00  0.00    +0.000 C 
ATOM     16  C   UNL     1       1.787  12.877  20.204  0.00  0.00    +0.000 C 
ENDBRANCH  14  16
ENDBRANCH  12  14
ENDBRANCH   1  12
BRANCH   7  17
ATOM     17  C   UNL     1      -0.902  10.305  17.543  0.00  0.00    +0.000 C 
BRANCH  17  18
ATOM     18  C   UNL     1      -2.335  10.458  17.247  0.00  0.00    +0.000 A 
ATOM     19  C   UNL     1      -3.479   9.962  17.837  0.00  0.00    +0.000 A 
ATOM     20  C   UNL     1      -4.557  10.428  17.052  0.00  0.00    +0.000 A 
ATOM     21  C   UNL     1      -3.998  11.117  16.004  0.00  0.00    +0.000 A 
ATOM     22  O   UNL     1      -2.645  11.098  16.090  0.00  0.00    +0.000 OA
ENDBRANCH  17  18
ENDBRANCH   7  17
BRANCH  10  23
ATOM     23  C   UNL     1       0.963   7.557  21.054  0.00  0.00    +0.000 C 
BRANCH  23  24
ATOM     24  C   UNL     1       1.820   6.289  20.661  0.00  0.00    +0.000 C 
ATOM     25  O   UNL     1       1.624   5.207  21.224  0.00  0.00    +0.000 OA
ATOM     26  N   UNL     1       2.777   6.452  19.713  0.00  0.00    +0.000 N 
ATOM     27  H   UNL     1       2.604   7.269  19.152  0.00  0.00    +0.000 HD
BRANCH  26  28
ATOM     28  C   UNL     1       3.701   5.631  18.970  0.00  0.00    +0.000 C 
BRANCH  28  29
ATOM     29  C   UNL     1       3.286   5.080  17.612  0.00  0.00    +0.000 C 
ATOM     30  C   UNL     1       4.195   3.928  17.175  0.00  0.00    +0.000 C 
ATOM     31  C   UNL     1       3.873   2.590  17.837  0.00  0.00    +0.000 C 
ATOM     32  C   UNL     1       2.401   2.240  17.687  0.00  0.00    +0.000 C 
ATOM     33  C   UNL     1       1.535   3.317  18.318  0.00  0.00    +0.000 C 
ATOM     34  C   UNL     1       1.801   4.685  17.684  0.00  0.00    +0.000 C 
ENDBRANCH  28  29
ENDBRANCH  26  28
ENDBRANCH  23  24
ENDBRANCH  10  23
TORSDOF 9
ENDMDL
MODEL 2
REMARK VINA RESULT:      -7.4      1.953      4.414
REMARK  Name = 
REMARK  10 active torsions:
REMARK  status: ('A' for Active; 'I' for Inactive)
REMARK    1  A    between atoms: C_1  and  C_2
REMARK    2  A    between atoms: C_2  and  O_3
REMARK    3  A    between atoms: O_3  and  C_4
REMARK    4  A    between atoms: C_4  and  C_6
REMARK    5  A    between atoms: N_12  and  C_13
REMARK    6  A    between atoms: C_13  and  C_14
REMARK    7  A    between atoms: C_21  and  C_22
REMARK    8  A    between atoms: C_22  and  C_23
REMARK    9  A    between atoms: N_25  and  C_26
REMARK   10  A    between atoms: C_26  and  C_27
REMARK                            x       y       z     vdW  Elec       q    Type
REMARK                         _______ _______ _______ _____ _____    ______ ____
ROOT
ATOM      1  C   UNL     1       0.752  11.787  18.596  0.00  0.00    +0.000 C 
ATOM      2  C   UNL     1       2.165  12.447  18.547  0.00  0.00    +0.000 C 
ATOM      3  C   UNL     1       2.258  13.869  19.130  0.00  0.00    +0.000 C 
ATOM      4  C   UNL     1       0.929  14.432  19.636  0.00  0.00    +0.000 C 
ATOM      5  C   UNL     1       0.313  13.519  20.663  0.00  0.00    +0.000 C 
ATOM      6  C   UNL     1       0.186  12.208  20.379  0.00  0.00    +0.000 C 
ATOM      7  N   UNL     1      -0.216  10.965  21.483  0.00  0.00    +0.000 N 
ATOM      8  C   UNL     1      -0.232   9.329  21.068  0.00  0.00    +0.000 C 
ATOM      9  O   UNL     1      -0.791   8.525  21.825  0.00  0.00    +0.000 OA
ATOM     10  C   UNL     1       0.684   8.706  19.589  0.00  0.00    +0.000 C 
ATOM     11  C   UNL     1       1.129   9.953  18.184  0.00  0.00    +0.000 C 
ENDROOT
BRANCH   1  12
ATOM     12  C   UNL     1       0.363  10.886  19.474  0.00  0.00    +0.000 C 
ATOM     13  O   UNL     1       1.397  10.639  20.216  0.00  0.00    +0.000 OA
BRANCH  12  14
ATOM     14  O   UNL     1      -0.899  10.293  19.019  0.00  0.00    +0.000 OA
BRANCH  14  16
ATOM     15  C   UNL     1      -2.988  10.111  17.714  0.00  0.00    +0.000 C 
ATOM     16  C   UNL     1      -2.006  11.044  18.383  0.00  0.00    +0.000 C 
ENDBRANCH  14  16
ENDBRANCH  12  14
ENDBRANCH   1  12
BRANCH   7  17
ATOM     17  C   UNL     1      -0.666  11.069  22.858  0.00  0.00    +0.000 C 
BRANCH  17  18
ATOM     18  C   UNL     1      -1.711  12.048  23.194  0.00  0.00    +0.000 A 
ATOM     19  C   UNL     1      -1.694  13.412  23.404  0.00  0.00    +0.000 A 
ATOM     20  C   UNL     1      -3.017  13.771  23.748  0.00  0.00    +0.000 A 
ATOM     21  C   UNL     1      -3.733  12.600  23.787  0.00  0.00    +0.000 A 
ATOM     22  O   UNL     1      -2.934  11.542  23.499  0.00  0.00    +0.000 OA
ENDBRANCH  17  18
ENDBRANCH   7  17
BRANCH  10  23
ATOM     23  C   UNL     1       1.907   7.937  20.227  0.00  0.00    +0.000 C 
BRANCH  23  24
ATOM     24  C   UNL     1       2.528   6.613  19.628  0.00  0.00    +0.000 C 
ATOM     25  O   UNL     1       2.391   5.538  20.221  0.00  0.00    +0.000 OA
ATOM     26  N   UNL     1       3.226   6.721  18.469  0.00  0.00    +0.000 N 
ATOM     27  H   UNL     1       2.985   7.560  17.971  0.00  0.00    +0.000 HD
BRANCH  26  28
ATOM     28  C   UNL     1       3.860   5.844  17.515  0.00  0.00    +0.000 C 
BRANCH  28  29
ATOM     29  C   UNL     1       5.042   6.355  16.701  0.00  0.00    +0.000 C 
ATOM     30  C   UNL     1       6.259   6.625  17.591  0.00  0.00    +0.000 C 
ATOM     31  C   UNL     1       7.043   5.373  17.977  0.00  0.00    +0.000 C 
ATOM     32  C   UNL     1       7.407   4.550  16.751  0.00  0.00    +0.000 C 
ATOM     33  C   UNL     1       6.151   4.129  16.006  0.00  0.00    +0.000 C 
ATOM     34  C   UNL     1       5.327   5.346  15.576  0.00  0.00    +0.000 C 
ENDBRANCH  28  29
ENDBRANCH  26  28
ENDBRANCH  23  24
ENDBRANCH  10  23
TORSDOF 9
ENDMDL
MODEL 3
REMARK VINA RESULT:      -7.4      2.749      8.834
REMARK  Name = 
REMARK  10 active torsions:
REMARK  status: ('A' for Active; 'I' for Inactive)
REMARK    1  A    between atoms: C_1  and  C_2
REMARK    2  A    between atoms: C_2  and  O_3
REMARK    3  A    between atoms: O_3  and  C_4
REMARK    4  A    between atoms: C_4  and  C_6
REMARK    5  A    between atoms: N_12  and  C_13
REMARK    6  A    between atoms: C_13  and  C_14
REMARK    7  A    between atoms: C_21  and  C_22
REMARK    8  A    between atoms: C_22  and  C_23
REMARK    9  A    between atoms: N_25  and  C_26
REMARK   10  A    between atoms: C_26  and  C_27
REMARK                            x       y       z     vdW  Elec       q    Type
REMARK                         _______ _______ _______ _____ _____    ______ ____
ROOT
ATOM      1  C   UNL     1       5.699   5.918  16.721  0.00  0.00    +0.000 C 
ATOM      2  C   UNL     1       5.699   6.024  15.165  0.00  0.00    +0.000 C 
ATOM      3  C   UNL     1       5.752   4.687  14.404  0.00  0.00    +0.000 C 
ATOM      4  C   UNL     1       5.837   3.452  15.303  0.00  0.00    +0.000 C 
ATOM      5  C   UNL     1       4.691   3.417  16.279  0.00  0.00    +0.000 C 
ATOM      6  C   UNL     1       4.427   4.514  17.016  0.00  0.00    +0.000 C 
ATOM      7  N   UNL     1       3.027   4.788  17.961  0.00  0.00    +0.000 N 
ATOM      8  C   UNL     1       2.719   6.246  18.756  0.00  0.00    +0.000 C 
ATOM      9  O   UNL     1       1.843   6.278  19.629  0.00  0.00    +0.000 OA
ATOM     10  C   UNL     1       3.562   7.810  18.248  0.00  0.00    +0.000 C 
ATOM     11  C   UNL     1       5.218   7.693  17.264  0.00  0.00    +0.000 C 
ENDROOT
BRANCH   1  12
ATOM     12  C   UNL     1       4.637   6.039  17.491  0.00  0.00    +0.000 C 
ATOM     13  O   UNL     1       3.705   6.538  16.742  0.00  0.00    +0.000 OA
BRANCH  12  14
ATOM     14  O   UNL     1       5.053   5.924  18.894  0.00  0.00    +0.000 OA
BRANCH  14  16
ATOM     15  C   UNL     1       7.450   5.766  19.466  0.00  0.00    +0.000 C 
ATOM     16  C   UNL     1       6.130   5.036  19.387  0.00  0.00    +0.000 C 
ENDBRANCH  14  16
ENDBRANCH  12  14
ENDBRANCH   1  12
BRANCH   7  17
ATOM     17  C   UNL     1       1.958   3.871  18.305  0.00  0.00    +0.000 C 
BRANCH  17  18
ATOM     18  C   UNL     1       1.935   3.276  19.650  0.00  0.00    +0.000 A 
ATOM     19  C   UNL     1       0.929   3.052  20.568  0.00  0.00    +0.000 A 
ATOM     20  C   UNL     1       1.553   2.491  21.704  0.00  0.00    +0.000 A 
ATOM     21  C   UNL     1       2.899   2.470  21.431  0.00  0.00    +0.000 A 
ATOM     22  O   UNL     1       3.144   2.991  20.202  0.00  0.00    +0.000 OA
ENDBRANCH  17  18
ENDBRANCH   7  17
BRANCH  10  23
ATOM     23  C   UNL     1       2.406   8.621  17.540  0.00  0.00    +0.000 C 
BRANCH  23  24
ATOM     24  C   UNL     1       1.237   9.351  18.312  0.00  0.00    +0.000 C 
ATOM     25  O   UNL     1       1.348   9.602  19.517  0.00  0.00    +0.000 OA
ATOM     26  N   UNL     1       0.118   9.656  17.606  0.00  0.00    +0.000 N 
ATOM     27  H   UNL     1       0.301   9.676  16.618  0.00  0.00    +0.000 HD
BRANCH  26  28
ATOM     28  C   UNL     1      -1.115  10.375  17.811  0.00  0.00    +0.000 C 
BRANCH  28  29
ATOM     29  C   UNL     1      -2.440   9.687  17.510  0.00  0.00    +0.000 C 
ATOM     30  C   UNL     1      -3.586  10.304  18.318  0.00  0.00    +0.000 C 
ATOM     31  C   UNL     1      -4.117  11.617  17.749  0.00  0.00    +0.000 C 
ATOM     32  C   UNL     1      -4.471  11.478  16.276  0.00  0.00    +0.000 C 
ATOM     33  C   UNL     1      -3.248  11.060  15.477  0.00  0.00    +0.000 C 
ATOM     34  C   UNL     1      -2.676   9.736  15.991  0.00  0.00    +0.000 C 
ENDBRANCH  28  29
ENDBRANCH  26  28
ENDBRANCH  23  24
ENDBRANCH  10  23
TORSDOF 9
ENDMDL
MODEL 4
REMARK VINA RESULT:      -7.3      1.220      1.934
REMARK  Name = 
REMARK  10 active torsions:
REMARK  status: ('A' for Active; 'I' for Inactive)
REMARK    1  A    between atoms: C_1  and  C_2
REMARK    2  A    between atoms: C_2  and  O_3
REMARK    3  A    between atoms: O_3  and  C_4
REMARK    4  A    between atoms: C_4  and  C_6
REMARK    5  A    between atoms: N_12  and  C_13
REMARK    6  A    between atoms: C_13  and  C_14
REMARK    7  A    between atoms: C_21  and  C_22
REMARK    8  A    between atoms: C_22  and  C_23
REMARK    9  A    between atoms: N_25  and  C_26
REMARK   10  A    between atoms: C_26  and  C_27
REMARK                            x       y       z     vdW  Elec       q    Type
REMARK                         _______ _______ _______ _____ _____    ______ ____
ROOT
ATOM      1  C   UNL     1      -0.034  11.176  22.189  0.00  0.00    +0.000 C 
ATOM      2  C   UNL     1      -1.181  10.766  23.164  0.00  0.00    +0.000 C 
ATOM      3  C   UNL     1      -2.478  11.588  23.054  0.00  0.00    +0.000 C 
ATOM      4  C   UNL     1      -2.425  12.716  22.022  0.00  0.00    +0.000 C 
ATOM      5  C   UNL     1      -2.063  12.183  20.661  0.00  0.00    +0.000 C 
ATOM      6  C   UNL     1      -0.984  11.386  20.537  0.00  0.00    +0.000 C 
ATOM      7  N   UNL     1      -0.561  10.456  19.164  0.00  0.00    +0.000 N 
ATOM      8  C   UNL     1       0.744   9.386  19.138  0.00  0.00    +0.000 C 
ATOM      9  O   UNL     1       1.151   8.965  18.048  0.00  0.00    +0.000 OA
ATOM     10  C   UNL     1       1.476   8.729  20.703  0.00  0.00    +0.000 C 
ATOM     11  C   UNL     1       1.192   9.710  22.340  0.00  0.00    +0.000 C 
ENDROOT
BRANCH   1  12
ATOM     12  C   UNL     1       0.280  10.545  21.077  0.00  0.00    +0.000 C 
ATOM     13  O   UNL     1      -0.382   9.432  21.097  0.00  0.00    +0.000 OA
BRANCH  12  14
ATOM     14  O   UNL     1       1.481  11.164  20.504  0.00  0.00    +0.000 OA
BRANCH  14  16
ATOM     15  C   UNL     1       2.320  13.004  19.086  0.00  0.00    +0.000 C 
ATOM     16  C   UNL     1       1.723  12.623  20.421  0.00  0.00    +0.000 C 
ENDBRANCH  14  16
ENDBRANCH  12  14
ENDBRANCH   1  12
BRANCH   7  17
ATOM     17  C   UNL     1      -1.142  10.466  17.835  0.00  0.00    +0.000 C 
BRANCH  17  18
ATOM     18  C   UNL     1      -2.602  10.578  17.697  0.00  0.00    +0.000 A 
ATOM     19  C   UNL     1      -3.629   9.659  17.750  0.00  0.00    +0.000 A 
ATOM     20  C   UNL     1      -4.815  10.381  17.487  0.00  0.00    +0.000 A 
ATOM     21  C   UNL     1      -4.427  11.672  17.228  0.00  0.00    +0.000 A 
ATOM     22  O   UNL     1      -3.078  11.789  17.306  0.00  0.00    +0.000 OA
ENDBRANCH  17  18
ENDBRANCH   7  17
BRANCH  10  23
ATOM     23  C   UNL     1       0.990   7.226  20.718  0.00  0.00    +0.000 C 
BRANCH  23  24
ATOM     24  C   UNL     1       1.938   5.989  20.459  0.00  0.00    +0.000 C 
ATOM     25  O   UNL     1       1.618   4.866  20.862  0.00  0.00    +0.000 OA
ATOM     26  N   UNL     1       3.105   6.223  19.808  0.00  0.00    +0.000 N 
ATOM     27  H   UNL     1       3.072   7.083  19.290  0.00  0.00    +0.000 HD
BRANCH  26  28
ATOM     28  C   UNL     1       4.202   5.458  19.266  0.00  0.00    +0.000 C 
BRANCH  28  29
ATOM     29  C   UNL     1       4.328   5.299  17.757  0.00  0.00    +0.000 C 
ATOM     30  C   UNL     1       4.689   6.627  17.083  0.00  0.00    +0.000 C 
ATOM     31  C   UNL     1       6.166   7.001  17.186  0.00  0.00    +0.000 C 
ATOM     32  C   UNL     1       7.058   5.863  16.714  0.00  0.00    +0.000 C 
ATOM     33  C   UNL     1       6.811   4.617  17.548  0.00  0.00    +0.000 C 
ATOM     34  C   UNL     1       5.345   4.181  17.472  0.00  0.00    +0.000 C 
ENDBRANCH  28  29
ENDBRANCH  26  28
ENDBRANCH  23  24
ENDBRANCH  10  23
TORSDOF 9
ENDMDL
MODEL 5
REMARK VINA RESULT:      -7.3      1.573      1.959
REMARK  Name = 
REMARK  10 active torsions:
REMARK  status: ('A' for Active; 'I' for Inactive)
REMARK    1  A    between atoms: C_1  and  C_2
REMARK    2  A    between atoms: C_2  and  O_3
REMARK    3  A    between atoms: O_3  and  C_4
REMARK    4  A    between atoms: C_4  and  C_6
REMARK    5  A    between atoms: N_12  and  C_13
REMARK    6  A    between atoms: C_13  and  C_14
REMARK    7  A    between atoms: C_21  and  C_22
REMARK    8  A    between atoms: C_22  and  C_23
REMARK    9  A    between atoms: N_25  and  C_26
REMARK   10  A    between atoms: C_26  and  C_27
REMARK                            x       y       z     vdW  Elec       q    Type
REMARK                         _______ _______ _______ _____ _____    ______ ____
ROOT
ATOM      1  C   UNL     1      -0.852  12.234  22.469  0.00  0.00    +0.000 C 
ATOM      2  C   UNL     1      -2.118  11.624  23.146  0.00  0.00    +0.000 C 
ATOM      3  C   UNL     1      -3.433  12.394  22.919  0.00  0.00    +0.000 C 
ATOM      4  C   UNL     1      -3.282  13.670  22.090  0.00  0.00    +0.000 C 
ATOM      5  C   UNL     1      -2.649  13.374  20.756  0.00  0.00    +0.000 C 
ATOM      6  C   UNL     1      -1.509  12.656  20.718  0.00  0.00    +0.000 C 
ATOM      7  N   UNL     1      -0.786  11.973  19.326  0.00  0.00    +0.000 N 
ATOM      8  C   UNL     1       0.578  10.980  19.386  0.00  0.00    +0.000 C 
ATOM      9  O   UNL     1       1.200  10.754  18.340  0.00  0.00    +0.000 OA
ATOM     10  C   UNL     1       1.071  10.121  20.946  0.00  0.00    +0.000 C 
ATOM     11  C   UNL     1       0.433  10.819  22.628  0.00  0.00    +0.000 C 
ENDROOT
BRANCH   1  12
ATOM     12  C   UNL     1      -0.302  11.800  21.354  0.00  0.00    +0.000 C 
ATOM     13  O   UNL     1      -0.982  10.754  21.002  0.00  0.00    +0.000 OA
BRANCH  12  14
ATOM     14  O   UNL     1       1.018  12.424  21.201  0.00  0.00    +0.000 OA
BRANCH  14  16
ATOM     15  C   UNL     1       2.734  14.194  21.052  0.00  0.00    +0.000 C 
ATOM     16  C   UNL     1       1.297  13.866  21.386  0.00  0.00    +0.000 C 
ENDBRANCH  14  16
ENDBRANCH  12  14
ENDBRANCH   1  12
BRANCH   7  17
ATOM     17  C   UNL     1      -1.124  12.164  17.929  0.00  0.00    +0.000 C 
BRANCH  17  18
ATOM     18  C   UNL     1      -2.122  11.278  17.310  0.00  0.00    +0.000 A 
ATOM     19  C   UNL     1      -2.756  10.129  17.734  0.00  0.00    +0.000 A 
ATOM     20  C   UNL     1      -3.573   9.713  16.659  0.00  0.00    +0.000 A 
ATOM     21  C   UNL     1      -3.335  10.596  15.634  0.00  0.00    +0.000 A 
ATOM     22  O   UNL     1      -2.417  11.522  16.007  0.00  0.00    +0.000 OA
ENDBRANCH  17  18
ENDBRANCH   7  17
BRANCH  10  23
ATOM     23  C   UNL     1       0.701   8.614  20.652  0.00  0.00    +0.000 C 
BRANCH  23  24
ATOM     24  C   UNL     1       1.724   7.545  20.097  0.00  0.00    +0.000 C 
ATOM     25  O   UNL     1       2.407   7.797  19.099  0.00  0.00    +0.000 OA
ATOM     26  N   UNL     1       1.793   6.353  20.743  0.00  0.00    +0.000 N 
ATOM     27  H   UNL     1       1.428   6.420  21.678  0.00  0.00    +0.000 HD
BRANCH  26  28
ATOM     28  C   UNL     1       2.594   5.155  20.699  0.00  0.00    +0.000 C 
BRANCH  28  29
ATOM     29  C   UNL     1       1.941   3.808  20.981  0.00  0.00    +0.000 C 
ATOM     30  C   UNL     1       0.731   3.572  20.072  0.00  0.00    +0.000 C 
ATOM     31  C   UNL     1       1.088   3.123  18.657  0.00  0.00    +0.000 C 
ATOM     32  C   UNL     1       2.026   1.926  18.678  0.00  0.00    +0.000 C 
ATOM     33  C   UNL     1       3.307   2.271  19.418  0.00  0.00    +0.000 C 
ATOM     34  C   UNL     1       3.016   2.715  20.854  0.00  0.00    +0.000 C 
ENDBRANCH  28  29
ENDBRANCH  26  28
ENDBRANCH  23  24
ENDBRANCH  10  23
TORSDOF 9
ENDMDL
MODEL 6
REMARK VINA RESULT:      -7.3      1.738      4.341
REMARK  Name = 
REMARK  10 active torsions:
REMARK  status: ('A' for Active; 'I' for Inactive)
REMARK    1  A    between atoms: C_1  and  C_2
REMARK    2  A    between atoms: C_2  and  O_3
REMARK    3  A    between atoms: O_3  and  C_4
REMARK    4  A    between atoms: C_4  and  C_6
REMARK    5  A    between atoms: N_12  and  C_13
REMARK    6  A    between atoms: C_13  and  C_14
REMARK    7  A    between atoms: C_21  and  C_22
REMARK    8  A    between atoms: C_22  and  C_23
REMARK    9  A    between atoms: N_25  and  C_26
REMARK   10  A    between atoms: C_26  and  C_27
REMARK                            x       y       z     vdW  Elec       q    Type
REMARK                         _______ _______ _______ _____ _____    ______ ____
ROOT
ATOM      1  C   UNL     1       0.701  11.693  18.547  0.00  0.00    +0.000 C 
ATOM      2  C   UNL     1       2.120  12.335  18.447  0.00  0.00    +0.000 C 
ATOM      3  C   UNL     1       2.242  13.774  18.980  0.00  0.00    +0.000 C 
ATOM      4  C   UNL     1       0.930  14.370  19.493  0.00  0.00    +0.000 C 
ATOM      5  C   UNL     1       0.326  13.499  20.563  0.00  0.00    +0.000 C 
ATOM      6  C   UNL     1       0.177  12.181  20.326  0.00  0.00    +0.000 C 
ATOM      7  N   UNL     1      -0.215  10.981  21.480  0.00  0.00    +0.000 N 
ATOM      8  C   UNL     1      -0.257   9.331  21.121  0.00  0.00    +0.000 C 
ATOM      9  O   UNL     1      -0.809   8.560  21.916  0.00  0.00    +0.000 OA
ATOM     10  C   UNL     1       0.621   8.649  19.645  0.00  0.00    +0.000 C 
ATOM     11  C   UNL     1       1.050   9.842  18.190  0.00  0.00    +0.000 C 
ENDROOT
BRANCH   1  12
ATOM     12  C   UNL     1       0.322  10.828  19.463  0.00  0.00    +0.000 C 
ATOM     13  O   UNL     1       1.377  10.566  20.169  0.00  0.00    +0.000 OA
BRANCH  12  14
ATOM     14  O   UNL     1      -0.976  10.264  19.075  0.00  0.00    +0.000 OA
BRANCH  14  16
ATOM     15  C   UNL     1      -2.884  10.070  17.518  0.00  0.00    +0.000 C 
ATOM     16  C   UNL     1      -2.037  11.002  18.352  0.00  0.00    +0.000 C 
ENDBRANCH  14  16
ENDBRANCH  12  14
ENDBRANCH   1  12
BRANCH   7  17
ATOM     17  C   UNL     1      -0.634  11.136  22.860  0.00  0.00    +0.000 C 
BRANCH  17  18
ATOM     18  C   UNL     1      -1.709  12.090  23.174  0.00  0.00    +0.000 A 
ATOM     19  C   UNL     1      -1.735  13.458  23.351  0.00  0.00    +0.000 A 
ATOM     20  C   UNL     1      -3.068  13.783  23.689  0.00  0.00    +0.000 A 
ATOM     21  C   UNL     1      -3.746  12.592  23.761  0.00  0.00    +0.000 A 
ATOM     22  O   UNL     1      -2.915  11.553  23.496  0.00  0.00    +0.000 OA
ENDBRANCH  17  18
ENDBRANCH   7  17
BRANCH  10  23
ATOM     23  C   UNL     1       1.848   7.887  20.283  0.00  0.00    +0.000 C 
BRANCH  23  24
ATOM     24  C   UNL     1       2.288   6.425  19.878  0.00  0.00    +0.000 C 
ATOM     25  O   UNL     1       2.244   5.510  20.707  0.00  0.00    +0.000 OA
ATOM     26  N   UNL     1       2.732   6.236  18.610  0.00  0.00    +0.000 N 
ATOM     27  H   UNL     1       2.420   6.970  17.998  0.00  0.00    +0.000 HD
BRANCH  26  28
ATOM     28  C   UNL     1       3.126   5.135  17.765  0.00  0.00    +0.000 C 
BRANCH  28  29
ATOM     29  C   UNL     1       4.521   4.541  17.912  0.00  0.00    +0.000 C 
ATOM     30  C   UNL     1       4.928   3.754  16.663  0.00  0.00    +0.000 C 
ATOM     31  C   UNL     1       5.401   4.625  15.501  0.00  0.00    +0.000 C 
ATOM     32  C   UNL     1       6.488   5.592  15.942  0.00  0.00    +0.000 C 
ATOM     33  C   UNL     1       5.973   6.496  17.050  0.00  0.00    +0.000 C 
ATOM     34  C   UNL     1       5.497   5.680  18.255  0.00  0.00    +0.000 C 
ENDBRANCH  28  29
ENDBRANCH  26  28
ENDBRANCH  23  24
ENDBRANCH  10  23
TORSDOF 9
ENDMDL
MODEL 7
REMARK VINA RESULT:      -7.2      1.416      1.873
REMARK  Name = 
REMARK  10 active torsions:
REMARK  status: ('A' for Active; 'I' for Inactive)
REMARK    1  A    between atoms: C_1  and  C_2
REMARK    2  A    between atoms: C_2  and  O_3
REMARK    3  A    between atoms: O_3  and  C_4
REMARK    4  A    between atoms: C_4  and  C_6
REMARK    5  A    between atoms: N_12  and  C_13
REMARK    6  A    between atoms: C_13  and  C_14
REMARK    7  A    between atoms: C_21  and  C_22
REMARK    8  A    between atoms: C_22  and  C_23
REMARK    9  A    between atoms: N_25  and  C_26
REMARK   10  A    between atoms: C_26  and  C_27
REMARK                            x       y       z     vdW  Elec       q    Type
REMARK                         _______ _______ _______ _____ _____    ______ ____
ROOT
ATOM      1  C   UNL     1      -0.666  12.736  21.284  0.00  0.00    +0.000 C 
ATOM      2  C   UNL     1      -1.347  12.466  22.662  0.00  0.00    +0.000 C 
ATOM      3  C   UNL     1      -2.802  12.952  22.796  0.00  0.00    +0.000 C 
ATOM      4  C   UNL     1      -3.345  13.665  21.556  0.00  0.00    +0.000 C 
ATOM      5  C   UNL     1      -3.229  12.789  20.337  0.00  0.00    +0.000 C 
ATOM      6  C   UNL     1      -2.044  12.209  20.060  0.00  0.00    +0.000 C 
ATOM      7  N   UNL     1      -1.764  10.973  18.910  0.00  0.00    +0.000 N 
ATOM      8  C   UNL     1      -0.269  10.214  18.714  0.00  0.00    +0.000 C 
ATOM      9  O   UNL     1      -0.069   9.540  17.696  0.00  0.00    +0.000 OA
ATOM     10  C   UNL     1       1.010  10.258  20.047  0.00  0.00    +0.000 C 
ATOM     11  C   UNL     1       0.914  11.655  21.376  0.00  0.00    +0.000 C 
ENDROOT
BRANCH   1  12
ATOM     12  C   UNL     1      -0.499  11.843  20.332  0.00  0.00    +0.000 C 
ATOM     13  O   UNL     1      -0.883  10.710  20.831  0.00  0.00    +0.000 OA
BRANCH  12  14
ATOM     14  O   UNL     1       0.368  12.412  19.294  0.00  0.00    +0.000 OA
BRANCH  14  16
ATOM     15  C   UNL     1       1.879  14.166  18.433  0.00  0.00    +0.000 C 
ATOM     16  C   UNL     1       0.521  13.860  19.020  0.00  0.00    +0.000 C 
ENDBRANCH  14  16
ENDBRANCH  12  14
ENDBRANCH   1  12
BRANCH   7  17
ATOM     17  C   UNL     1      -2.660  10.436  17.903  0.00  0.00    +0.000 C 
BRANCH  17  18
ATOM     18  C   UNL     1      -4.055  10.900  17.871  0.00  0.00    +0.000 A 
ATOM     19  C   UNL     1      -5.226  10.409  18.411  0.00  0.00    +0.000 A 
ATOM     20  C   UNL     1      -6.252  11.280  17.980  0.00  0.00    +0.000 A 
ATOM     21  C   UNL     1      -5.651  12.200  17.157  0.00  0.00    +0.000 A 
ATOM     22  O   UNL     1      -4.323  11.946  17.047  0.00  0.00    +0.000 OA
ENDBRANCH  17  18
ENDBRANCH   7  17
BRANCH  10  23
ATOM     23  C   UNL     1       0.986   8.782  20.610  0.00  0.00    +0.000 C 
BRANCH  23  24
ATOM     24  C   UNL     1       1.804   7.584  19.982  0.00  0.00    +0.000 C 
ATOM     25  O   UNL     1       2.469   7.756  18.956  0.00  0.00    +0.000 OA
ATOM     26  N   UNL     1       1.718   6.380  20.601  0.00  0.00    +0.000 N 
ATOM     27  H   UNL     1       1.413   6.476  21.554  0.00  0.00    +0.000 HD
BRANCH  26  28
ATOM     28  C   UNL     1       2.322   5.074  20.492  0.00  0.00    +0.000 C 
BRANCH  28  29
ATOM     29  C   UNL     1       1.564   3.957  19.787  0.00  0.00    +0.000 C 
ATOM     30  C   UNL     1       1.531   4.174  18.272  0.00  0.00    +0.000 C 
ATOM     31  C   UNL     1       2.820   3.778  17.554  0.00  0.00    +0.000 C 
ATOM     32  C   UNL     1       3.242   2.363  17.916  0.00  0.00    +0.000 C 
ATOM     33  C   UNL     1       3.462   2.245  19.415  0.00  0.00    +0.000 C 
ATOM     34  C   UNL     1       2.196   2.614  20.193  0.00  0.00    +0.000 C 
ENDBRANCH  28  29
ENDBRANCH  26  28
ENDBRANCH  23  24
ENDBRANCH  10  23
TORSDOF 9
ENDMDL
MODEL 8
REMARK VINA RESULT:      -7.1      1.742      2.449
REMARK  Name = 
REMARK  10 active torsions:
REMARK  status: ('A' for Active; 'I' for Inactive)
REMARK    1  A    between atoms: C_1  and  C_2
REMARK    2  A    between atoms: C_2  and  O_3
REMARK    3  A    between atoms: O_3  and  C_4
REMARK    4  A    between atoms: C_4  and  C_6
REMARK    5  A    between atoms: N_12  and  C_13
REMARK    6  A    between atoms: C_13  and  C_14
REMARK    7  A    between atoms: C_21  and  C_22
REMARK    8  A    between atoms: C_22  and  C_23
REMARK    9  A    between atoms: N_25  and  C_26
REMARK   10  A    between atoms: C_26  and  C_27
REMARK                            x       y       z     vdW  Elec       q    Type
REMARK                         _______ _______ _______ _____ _____    ______ ____
ROOT
ATOM      1  C   UNL     1      -0.972  12.789  21.169  0.00  0.00    +0.000 C 
ATOM      2  C   UNL     1      -1.391  12.372  22.613  0.00  0.00    +0.000 C 
ATOM      3  C   UNL     1      -2.860  12.643  22.986  0.00  0.00    +0.000 C 
ATOM      4  C   UNL     1      -3.677  13.320  21.884  0.00  0.00    +0.000 C 
ATOM      5  C   UNL     1      -3.633  12.518  20.612  0.00  0.00    +0.000 C 
ATOM      6  C   UNL     1      -2.438  12.122  20.129  0.00  0.00    +0.000 C 
ATOM      7  N   UNL     1      -2.175  10.984  18.879  0.00  0.00    +0.000 N 
ATOM      8  C   UNL     1      -0.640  10.451  18.422  0.00  0.00    +0.000 C 
ATOM      9  O   UNL     1      -0.510   9.852  17.347  0.00  0.00    +0.000 OA
ATOM     10  C   UNL     1       0.811  10.622  19.554  0.00  0.00    +0.000 C 
ATOM     11  C   UNL     1       0.734  11.938  20.964  0.00  0.00    +0.000 C 
ENDROOT
BRANCH   1  12
ATOM     12  C   UNL     1      -0.835  11.966  20.150  0.00  0.00    +0.000 C 
ATOM     13  O   UNL     1      -0.968  10.771  20.633  0.00  0.00    +0.000 OA
BRANCH  12  14
ATOM     14  O   UNL     1      -0.235  12.697  19.027  0.00  0.00    +0.000 OA
BRANCH  14  16
ATOM     15  C   UNL     1       0.917  14.862  18.737  0.00  0.00    +0.000 C 
ATOM     16  C   UNL     1      -0.412  14.145  18.770  0.00  0.00    +0.000 C 
ENDBRANCH  14  16
ENDBRANCH  12  14
ENDBRANCH   1  12
BRANCH   7  17
ATOM     17  C   UNL     1      -3.134  10.366  17.983  0.00  0.00    +0.000 C 
BRANCH  17  18
ATOM     18  C   UNL     1      -4.470  10.967  17.846  0.00  0.00    +0.000 A 
ATOM     19  C   UNL     1      -4.938  12.087  17.190  0.00  0.00    +0.000 A 
ATOM     20  C   UNL     1      -6.319  12.162  17.480  0.00  0.00    +0.000 A 
ATOM     21  C   UNL     1      -6.586  11.126  18.341  0.00  0.00    +0.000 A 
ATOM     22  O   UNL     1      -5.456  10.424  18.607  0.00  0.00    +0.000 OA
ENDBRANCH  17  18
ENDBRANCH   7  17
BRANCH  10  23
ATOM     23  C   UNL     1       1.070   9.137  20.024  0.00  0.00    +0.000 C 
BRANCH  23  24
ATOM     24  C   UNL     1       1.983   8.110  19.243  0.00  0.00    +0.000 C 
ATOM     25  O   UNL     1       2.552   8.450  18.201  0.00  0.00    +0.000 OA
ATOM     26  N   UNL     1       2.085   6.856  19.752  0.00  0.00    +0.000 N 
ATOM     27  H   UNL     1       1.835   6.831  20.725  0.00  0.00    +0.000 HD
BRANCH  26  28
ATOM     28  C   UNL     1       2.833   5.651  19.489  0.00  0.00    +0.000 C 
BRANCH  28  29
ATOM     29  C   UNL     1       2.756   4.493  20.475  0.00  0.00    +0.000 C 
ATOM     30  C   UNL     1       1.308   4.053  20.710  0.00  0.00    +0.000 C 
ATOM     31  C   UNL     1       0.734   3.172  19.602  0.00  0.00    +0.000 C 
ATOM     32  C   UNL     1       1.646   1.991  19.308  0.00  0.00    +0.000 C 
ATOM     33  C   UNL     1       3.020   2.479  18.880  0.00  0.00    +0.000 C 
ATOM     34  C   UNL     1       3.657   3.358  19.959  0.00  0.00    +0.000 C 
ENDBRANCH  28  29
ENDBRANCH  26  28
ENDBRANCH  23  24
ENDBRANCH  10  23
TORSDOF 9
ENDMDL
MODEL 9
REMARK VINA RESULT:      -7.0      1.973      4.439
REMARK  Name = 
REMARK  10 active torsions:
REMARK  status: ('A' for Active; 'I' for Inactive)
REMARK    1  A    between atoms: C_1  and  C_2
REMARK    2  A    between atoms: C_2  and  O_3
REMARK    3  A    between atoms: O_3  and  C_4
REMARK    4  A    between atoms: C_4  and  C_6
REMARK    5  A    between atoms: N_12  and  C_13
REMARK    6  A    between atoms: C_13  and  C_14
REMARK    7  A    between atoms: C_21  and  C_22
REMARK    8  A    between atoms: C_22  and  C_23
REMARK    9  A    between atoms: N_25  and  C_26
REMARK   10  A    between atoms: C_26  and  C_27
REMARK                            x       y       z     vdW  Elec       q    Type
REMARK                         _______ _______ _______ _____ _____    ______ ____
ROOT
ATOM      1  C   UNL     1       0.235  12.315  18.596  0.00  0.00    +0.000 C 
ATOM      2  C   UNL     1       1.691  12.752  18.243  0.00  0.00    +0.000 C 
ATOM      3  C   UNL     1       2.020  14.236  18.490  0.00  0.00    +0.000 C 
ATOM      4  C   UNL     1       0.845  15.065  19.011  0.00  0.00    +0.000 C 
ATOM      5  C   UNL     1       0.285  14.470  20.275  0.00  0.00    +0.000 C 
ATOM      6  C   UNL     1      -0.024  13.158  20.298  0.00  0.00    +0.000 C 
ATOM      7  N   UNL     1      -0.400  12.229  21.685  0.00  0.00    +0.000 N 
ATOM      8  C   UNL     1      -0.652  10.560  21.638  0.00  0.00    +0.000 C 
ATOM      9  O   UNL     1      -1.183  10.008  22.610  0.00  0.00    +0.000 OA
ATOM     10  C   UNL     1      -0.028   9.535  20.233  0.00  0.00    +0.000 C 
ATOM     11  C   UNL     1       0.348  10.401  18.550  0.00  0.00    +0.000 C 
ENDROOT
BRANCH   1  12
ATOM     12  C   UNL     1      -0.122  11.670  19.687  0.00  0.00    +0.000 C 
ATOM     13  O   UNL     1       0.977  11.395  20.316  0.00  0.00    +0.000 OA
BRANCH  12  14
ATOM     14  O   UNL     1      -1.512  11.223  19.541  0.00  0.00    +0.000 OA
BRANCH  14  16
ATOM     15  C   UNL     1      -3.340  11.264  17.881  0.00  0.00    +0.000 C 
ATOM     16  C   UNL     1      -2.604  12.032  18.954  0.00  0.00    +0.000 C 
ENDBRANCH  14  16
ENDBRANCH  12  14
ENDBRANCH   1  12
BRANCH   7  17
ATOM     17  C   UNL     1      -0.637  12.666  23.047  0.00  0.00    +0.000 C 
BRANCH  17  18
ATOM     18  C   UNL     1      -1.733  13.611  23.311  0.00  0.00    +0.000 A 
ATOM     19  C   UNL     1      -1.861  14.698  24.150  0.00  0.00    +0.000 A 
ATOM     20  C   UNL     1      -3.185  15.165  23.987  0.00  0.00    +0.000 A 
ATOM     21  C   UNL     1      -3.791  14.297  23.113  0.00  0.00    +0.000 A 
ATOM     22  O   UNL     1      -2.929  13.321  22.735  0.00  0.00    +0.000 OA
ENDBRANCH  17  18
ENDBRANCH   7  17
BRANCH  10  23
ATOM     23  C   UNL     1       1.181   8.749  20.878  0.00  0.00    +0.000 C 
BRANCH  23  24
ATOM     24  C   UNL     1       1.928   7.546  20.177  0.00  0.00    +0.000 C 
ATOM     25  O   UNL     1       2.593   7.738  19.154  0.00  0.00    +0.000 OA
ATOM     26  N   UNL     1       1.782   6.315  20.730  0.00  0.00    +0.000 N 
ATOM     27  H   UNL     1       1.490   6.375  21.690  0.00  0.00    +0.000 HD
BRANCH  26  28
ATOM     28  C   UNL     1       2.313   4.987  20.543  0.00  0.00    +0.000 C 
BRANCH  28  29
ATOM     29  C   UNL     1       1.476   3.942  19.817  0.00  0.00    +0.000 C 
ATOM     30  C   UNL     1       1.424   4.214  18.311  0.00  0.00    +0.000 C 
ATOM     31  C   UNL     1       2.672   3.769  17.551  0.00  0.00    +0.000 C 
ATOM     32  C   UNL     1       3.015   2.319  17.855  0.00  0.00    +0.000 C 
ATOM     33  C   UNL     1       3.260   2.135  19.344  0.00  0.00    +0.000 C 
ATOM     34  C   UNL     1       2.034   2.551  20.162  0.00  0.00    +0.000 C 
ENDBRANCH  28  29
ENDBRANCH  26  28
ENDBRANCH  23  24
ENDBRANCH  10  23
TORSDOF 9
ENDMDL
