MODEL 1
REMARK VINA RESULT:      -7.0      0.000      0.000
REMARK  Name = 
REMARK  11 active torsions:
REMARK  status: ('A' for Active; 'I' for Inactive)
REMARK    1  A    between atoms: C_1  and  C_2
REMARK    2  A    between atoms: C_2  and  C_8
REMARK    3  A    between atoms: N_3  and  N_4
REMARK    4  A    between atoms: N_4  and  C_5
REMARK    5  A    between atoms: C_5  and  N_6
REMARK    6  A    between atoms: C_8  and  C_9
REMARK    7  A    between atoms: C_8  and  O_10
REMARK    8  A    between atoms: O_10  and  C_11
REMARK    9  A    between atoms: C_14  and  C_15
REMARK   10  A    between atoms: C_15  and  C_16
REMARK   11  A    between atoms: C_15  and  C_17
REMARK                            x       y       z     vdW  Elec       q    Type
REMARK                         _______ _______ _______ _____ _____    ______ ____
ROOT
ATOM      1  C   UNL     1       6.380   6.775  17.724  0.00  0.00    +0.000 C 
ATOM      2  C   UNL     1       7.200   8.059  17.607  0.00  0.00    +0.000 C 
ENDROOT
BRANCH   1   4
ATOM      3  C   UNL     1       7.658   4.505  17.607  0.00  0.00    +0.000 C 
ATOM      4  C   UNL     1       7.098   5.707  16.873  0.00  0.00    +0.000 C 
ATOM      5  N   UNL     1       7.119   5.902  15.582  0.00  0.00    +0.000 NA
BRANCH   5   6
ATOM      6  N   UNL     1       7.714   4.981  14.772  0.00  0.00    +0.000 N 
ATOM      7  H   UNL     1       8.443   4.364  15.108  0.00  0.00    +0.000 HD
BRANCH   6   8
ATOM      8  C   UNL     1       7.367   4.860  13.456  0.00  0.00    +0.000 C 
ATOM      9  S   UNL     1       6.235   3.763  12.940  0.00  0.00    +0.000 S 
BRANCH   8  10
ATOM     10  N   UNL     1       7.996   5.696  12.597  0.00  0.00    +0.000 N 
ATOM     11  H   UNL     1       8.511   5.271  11.837  0.00  0.00    +0.000 HD
ATOM     12  H   UNL     1       7.836   6.693  12.621  0.00  0.00    +0.000 HD
ENDBRANCH   8  10
ENDBRANCH   6   8
ENDBRANCH   5   6
ENDBRANCH   1   4
BRANCH   1  13
ATOM     13  O   UNL     1       5.054   6.935  17.216  0.00  0.00    +0.000 OA
BRANCH  13  14
ATOM     14  C   UNL     1       4.078   6.124  17.728  0.00  0.00    +0.000 A 
ATOM     15  C   UNL     1       3.840   4.812  17.331  0.00  0.00    +0.000 A 
ATOM     16  C   UNL     1       2.865   4.039  17.966  0.00  0.00    +0.000 A 
ATOM     17  C   UNL     1       2.098   4.566  19.014  0.00  0.00    +0.000 A 
ATOM     18  C   UNL     1       2.331   5.890  19.404  0.00  0.00    +0.000 A 
ATOM     19  C   UNL     1       3.324   6.657  18.776  0.00  0.00    +0.000 A 
BRANCH  17  20
ATOM     20  C   UNL     1       1.063   3.683  19.689  0.00  0.00    +0.000 C 
ATOM     21  C   UNL     1       0.720   2.461  18.835  0.00  0.00    +0.000 C 
ATOM     22  C   UNL     1       1.496   3.270  21.097  0.00  0.00    +0.000 C 
ENDBRANCH  17  20
ENDBRANCH  13  14
ENDBRANCH   1  13
TORSDOF 7
ENDMDL
MODEL 2
REMARK VINA RESULT:      -6.7      3.267      6.155
REMARK  Name = 
REMARK  11 active torsions:
REMARK  status: ('A' for Active; 'I' for Inactive)
REMARK    1  A    between atoms: C_1  and  C_2
REMARK    2  A    between atoms: C_2  and  C_8
REMARK    3  A    between atoms: N_3  and  N_4
REMARK    4  A    between atoms: N_4  and  C_5
REMARK    5  A    between atoms: C_5  and  N_6
REMARK    6  A    between atoms: C_8  and  C_9
REMARK    7  A    between atoms: C_8  and  O_10
REMARK    8  A    between atoms: O_10  and  C_11
REMARK    9  A    between atoms: C_14  and  C_15
REMARK   10  A    between atoms: C_15  and  C_16
REMARK   11  A    between atoms: C_15  and  C_17
REMARK                            x       y       z     vdW  Elec       q    Type
REMARK                         _______ _______ _______ _____ _____    ______ ____
ROOT
ATOM      1  C   UNL     1       6.800   6.623  16.848  0.00  0.00    +0.000 C 
ATOM      2  C   UNL     1       7.720   7.511  17.685  0.00  0.00    +0.000 C 
ENDROOT
BRANCH   1   4
ATOM      3  C   UNL     1       4.262   6.921  17.365  0.00  0.00    +0.000 C 
ATOM      4  C   UNL     1       5.585   6.278  17.733  0.00  0.00    +0.000 C 
ATOM      5  N   UNL     1       5.785   5.419  18.696  0.00  0.00    +0.000 NA
BRANCH   5   6
ATOM      6  N   UNL     1       4.744   5.052  19.496  0.00  0.00    +0.000 N 
ATOM      7  H   UNL     1       4.349   5.681  20.184  0.00  0.00    +0.000 HD
BRANCH   6   8
ATOM      8  C   UNL     1       4.194   3.803  19.420  0.00  0.00    +0.000 C 
ATOM      9  S   UNL     1       2.566   3.568  19.207  0.00  0.00    +0.000 S 
BRANCH   8  10
ATOM     10  N   UNL     1       5.059   2.767  19.521  0.00  0.00    +0.000 N 
ATOM     11  H   UNL     1       5.937   2.851  19.023  0.00  0.00    +0.000 HD
ATOM     12  H   UNL     1       4.906   2.016  20.177  0.00  0.00    +0.000 HD
ENDBRANCH   8  10
ENDBRANCH   6   8
ENDBRANCH   5   6
ENDBRANCH   1   4
BRANCH   1  13
ATOM     13  O   UNL     1       7.435   5.402  16.463  0.00  0.00    +0.000 OA
BRANCH  13  14
ATOM     14  C   UNL     1       6.983   4.783  15.329  0.00  0.00    +0.000 A 
ATOM     15  C   UNL     1       5.974   3.825  15.291  0.00  0.00    +0.000 A 
ATOM     16  C   UNL     1       5.531   3.304  14.073  0.00  0.00    +0.000 A 
ATOM     17  C   UNL     1       6.094   3.726  12.861  0.00  0.00    +0.000 A 
ATOM     18  C   UNL     1       7.117   4.681  12.903  0.00  0.00    +0.000 A 
ATOM     19  C   UNL     1       7.546   5.216  14.128  0.00  0.00    +0.000 A 
BRANCH  17  20
ATOM     20  C   UNL     1       5.568   3.147  11.559  0.00  0.00    +0.000 C 
ATOM     21  C   UNL     1       5.949   1.674  11.402  0.00  0.00    +0.000 C 
ATOM     22  C   UNL     1       4.058   3.346  11.416  0.00  0.00    +0.000 C 
ENDBRANCH  17  20
ENDBRANCH  13  14
ENDBRANCH   1  13
TORSDOF 7
ENDMDL
MODEL 3
REMARK VINA RESULT:      -6.7      0.654      1.412
REMARK  Name = 
REMARK  11 active torsions:
REMARK  status: ('A' for Active; 'I' for Inactive)
REMARK    1  A    between atoms: C_1  and  C_2
REMARK    2  A    between atoms: C_2  and  C_8
REMARK    3  A    between atoms: N_3  and  N_4
REMARK    4  A    between atoms: N_4  and  C_5
REMARK    5  A    between atoms: C_5  and  N_6
REMARK    6  A    between atoms: C_8  and  C_9
REMARK    7  A    between atoms: C_8  and  O_10
REMARK    8  A    between atoms: O_10  and  C_11
REMARK    9  A    between atoms: C_14  and  C_15
REMARK   10  A    between atoms: C_15  and  C_16
REMARK   11  A    between atoms: C_15  and  C_17
REMARK                            x       y       z     vdW  Elec       q    Type
REMARK                         _______ _______ _______ _____ _____    ______ ____
ROOT
ATOM      1  C   UNL     1       6.414   6.742  17.760  0.00  0.00    +0.000 C 
ATOM      2  C   UNL     1       7.194   8.048  17.604  0.00  0.00    +0.000 C 
ENDROOT
BRANCH   1   4
ATOM      3  C   UNL     1       7.671   4.468  17.546  0.00  0.00    +0.000 C 
ATOM      4  C   UNL     1       7.107   5.698  16.862  0.00  0.00    +0.000 C 
ATOM      5  N   UNL     1       7.106   5.935  15.577  0.00  0.00    +0.000 NA
BRANCH   5   6
ATOM      6  N   UNL     1       7.678   5.036  14.727  0.00  0.00    +0.000 N 
ATOM      7  H   UNL     1       8.679   4.888  14.699  0.00  0.00    +0.000 HD
BRANCH   6   8
ATOM      8  C   UNL     1       6.925   4.303  13.854  0.00  0.00    +0.000 C 
ATOM      9  S   UNL     1       7.094   4.445  12.210  0.00  0.00    +0.000 S 
BRANCH   8  10
ATOM     10  N   UNL     1       6.037   3.447  14.410  0.00  0.00    +0.000 N 
ATOM     11  H   UNL     1       6.022   3.392  15.420  0.00  0.00    +0.000 HD
ATOM     12  H   UNL     1       5.322   2.998  13.856  0.00  0.00    +0.000 HD
ENDBRANCH   8  10
ENDBRANCH   6   8
ENDBRANCH   5   6
ENDBRANCH   1   4
BRANCH   1  13
ATOM     13  O   UNL     1       5.057   6.872  17.332  0.00  0.00    +0.000 OA
BRANCH  13  14
ATOM     14  C   UNL     1       4.118   6.102  17.963  0.00  0.00    +0.000 A 
ATOM     15  C   UNL     1       3.370   6.500  19.067  0.00  0.00    +0.000 A 
ATOM     16  C   UNL     1       2.381   5.669  19.598  0.00  0.00    +0.000 A 
ATOM     17  C   UNL     1       2.122   4.410  19.038  0.00  0.00    +0.000 A 
ATOM     18  C   UNL     1       2.884   4.006  17.935  0.00  0.00    +0.000 A 
ATOM     19  C   UNL     1       3.863   4.854  17.394  0.00  0.00    +0.000 A 
BRANCH  17  20
ATOM     20  C   UNL     1       1.024   3.547  19.635  0.00  0.00    +0.000 C 
ATOM     21  C   UNL     1       0.729   2.326  18.762  0.00  0.00    +0.000 C 
ATOM     22  C   UNL     1       1.341   3.135  21.074  0.00  0.00    +0.000 C 
ENDBRANCH  17  20
ENDBRANCH  13  14
ENDBRANCH   1  13
TORSDOF 7
ENDMDL
MODEL 4
REMARK VINA RESULT:      -6.6      2.587      3.573
REMARK  Name = 
REMARK  11 active torsions:
REMARK  status: ('A' for Active; 'I' for Inactive)
REMARK    1  A    between atoms: C_1  and  C_2
REMARK    2  A    between atoms: C_2  and  C_8
REMARK    3  A    between atoms: N_3  and  N_4
REMARK    4  A    between atoms: N_4  and  C_5
REMARK    5  A    between atoms: C_5  and  N_6
REMARK    6  A    between atoms: C_8  and  C_9
REMARK    7  A    between atoms: C_8  and  O_10
REMARK    8  A    between atoms: O_10  and  C_11
REMARK    9  A    between atoms: C_14  and  C_15
REMARK   10  A    between atoms: C_15  and  C_16
REMARK   11  A    between atoms: C_15  and  C_17
REMARK                            x       y       z     vdW  Elec       q    Type
REMARK                         _______ _______ _______ _____ _____    ______ ____
ROOT
ATOM      1  C   UNL     1       5.401   4.323  15.202  0.00  0.00    +0.000 C 
ATOM      2  C   UNL     1       6.325   3.803  14.101  0.00  0.00    +0.000 C 
ENDROOT
BRANCH   1   4
ATOM      3  C   UNL     1       4.963   6.857  15.629  0.00  0.00    +0.000 C 
ATOM      4  C   UNL     1       5.944   5.702  15.628  0.00  0.00    +0.000 C 
ATOM      5  N   UNL     1       7.195   5.750  16.003  0.00  0.00    +0.000 NA
BRANCH   5   6
ATOM      6  N   UNL     1       7.727   6.934  16.417  0.00  0.00    +0.000 N 
ATOM      7  H   UNL     1       8.098   7.613  15.763  0.00  0.00    +0.000 HD
BRANCH   6   8
ATOM      8  C   UNL     1       7.805   7.254  17.743  0.00  0.00    +0.000 C 
ATOM      9  S   UNL     1       8.199   8.780  18.260  0.00  0.00    +0.000 S 
BRANCH   8  10
ATOM     10  N   UNL     1       7.534   6.252  18.612  0.00  0.00    +0.000 N 
ATOM     11  H   UNL     1       8.174   6.131  19.387  0.00  0.00    +0.000 HD
ATOM     12  H   UNL     1       6.660   5.749  18.579  0.00  0.00    +0.000 HD
ENDBRANCH   8  10
ENDBRANCH   6   8
ENDBRANCH   5   6
ENDBRANCH   1   4
BRANCH   1  13
ATOM     13  O   UNL     1       5.396   3.469  16.348  0.00  0.00    +0.000 OA
BRANCH  13  14
ATOM     14  C   UNL     1       4.397   3.647  17.266  0.00  0.00    +0.000 A 
ATOM     15  C   UNL     1       3.035   3.581  16.986  0.00  0.00    +0.000 A 
ATOM     16  C   UNL     1       2.089   3.704  18.007  0.00  0.00    +0.000 A 
ATOM     17  C   UNL     1       2.486   3.907  19.336  0.00  0.00    +0.000 A 
ATOM     18  C   UNL     1       3.856   3.985  19.613  0.00  0.00    +0.000 A 
ATOM     19  C   UNL     1       4.803   3.841  18.587  0.00  0.00    +0.000 A 
BRANCH  17  20
ATOM     20  C   UNL     1       1.425   4.016  20.416  0.00  0.00    +0.000 C 
ATOM     21  C   UNL     1       1.675   3.025  21.555  0.00  0.00    +0.000 C 
ATOM     22  C   UNL     1       1.293   5.445  20.945  0.00  0.00    +0.000 C 
ENDBRANCH  17  20
ENDBRANCH  13  14
ENDBRANCH   1  13
TORSDOF 7
ENDMDL
MODEL 5
REMARK VINA RESULT:      -6.6      3.701      5.330
REMARK  Name = 
REMARK  11 active torsions:
REMARK  status: ('A' for Active; 'I' for Inactive)
REMARK    1  A    between atoms: C_1  and  C_2
REMARK    2  A    between atoms: C_2  and  C_8
REMARK    3  A    between atoms: N_3  and  N_4
REMARK    4  A    between atoms: N_4  and  C_5
REMARK    5  A    between atoms: C_5  and  N_6
REMARK    6  A    between atoms: C_8  and  C_9
REMARK    7  A    between atoms: C_8  and  O_10
REMARK    8  A    between atoms: O_10  and  C_11
REMARK    9  A    between atoms: C_14  and  C_15
REMARK   10  A    between atoms: C_15  and  C_16
REMARK   11  A    between atoms: C_15  and  C_17
REMARK                            x       y       z     vdW  Elec       q    Type
REMARK                         _______ _______ _______ _____ _____    ______ ____
ROOT
ATOM      1  C   UNL     1       2.763   5.378  18.368  0.00  0.00    +0.000 C 
ATOM      2  C   UNL     1       1.801   4.369  18.994  0.00  0.00    +0.000 C 
ENDROOT
BRANCH   1   4
ATOM      3  C   UNL     1       4.049   3.747  16.791  0.00  0.00    +0.000 C 
ATOM      4  C   UNL     1       4.060   4.611  18.036  0.00  0.00    +0.000 C 
ATOM      5  N   UNL     1       5.079   4.811  18.829  0.00  0.00    +0.000 NA
BRANCH   5   6
ATOM      6  N   UNL     1       6.262   4.184  18.573  0.00  0.00    +0.000 N 
ATOM      7  H   UNL     1       6.398   3.199  18.761  0.00  0.00    +0.000 HD
BRANCH   6   8
ATOM      8  C   UNL     1       7.333   4.865  18.066  0.00  0.00    +0.000 C 
ATOM      9  S   UNL     1       7.877   6.280  18.741  0.00  0.00    +0.000 S 
BRANCH   8  10
ATOM     10  N   UNL     1       7.931   4.312  16.985  0.00  0.00    +0.000 N 
ATOM     11  H   UNL     1       8.566   4.900  16.461  0.00  0.00    +0.000 HD
ATOM     12  H   UNL     1       7.866   3.323  16.797  0.00  0.00    +0.000 HD
ENDBRANCH   8  10
ENDBRANCH   6   8
ENDBRANCH   5   6
ENDBRANCH   1   4
BRANCH   1  13
ATOM     13  O   UNL     1       3.089   6.441  19.267  0.00  0.00    +0.000 OA
BRANCH  13  14
ATOM     14  C   UNL     1       2.256   7.527  19.290  0.00  0.00    +0.000 A 
ATOM     15  C   UNL     1       1.630   8.029  20.426  0.00  0.00    +0.000 A 
ATOM     16  C   UNL     1       0.855   9.189  20.361  0.00  0.00    +0.000 A 
ATOM     17  C   UNL     1       0.682   9.873  19.149  0.00  0.00    +0.000 A 
ATOM     18  C   UNL     1       1.303   9.359  18.005  0.00  0.00    +0.000 A 
ATOM     19  C   UNL     1       2.097   8.204  18.079  0.00  0.00    +0.000 A 
BRANCH  17  20
ATOM     20  C   UNL     1      -0.153  11.141  19.128  0.00  0.00    +0.000 C 
ATOM     21  C   UNL     1      -1.328  11.027  18.155  0.00  0.00    +0.000 C 
ATOM     22  C   UNL     1      -0.629  11.534  20.528  0.00  0.00    +0.000 C 
ENDBRANCH  17  20
ENDBRANCH  13  14
ENDBRANCH   1  13
TORSDOF 7
ENDMDL
MODEL 6
REMARK VINA RESULT:      -6.5      3.909      5.256
REMARK  Name = 
REMARK  11 active torsions:
REMARK  status: ('A' for Active; 'I' for Inactive)
REMARK    1  A    between atoms: C_1  and  C_2
REMARK    2  A    between atoms: C_2  and  C_8
REMARK    3  A    between atoms: N_3  and  N_4
REMARK    4  A    between atoms: N_4  and  C_5
REMARK    5  A    between atoms: C_5  and  N_6
REMARK    6  A    between atoms: C_8  and  C_9
REMARK    7  A    between atoms: C_8  and  O_10
REMARK    8  A    between atoms: O_10  and  C_11
REMARK    9  A    between atoms: C_14  and  C_15
REMARK   10  A    between atoms: C_15  and  C_16
REMARK   11  A    between atoms: C_15  and  C_17
REMARK                            x       y       z     vdW  Elec       q    Type
REMARK                         _______ _______ _______ _____ _____    ______ ____
ROOT
ATOM      1  C   UNL     1       4.691   6.639  17.489  0.00  0.00    +0.000 C 
ATOM      2  C   UNL     1       5.134   6.587  16.027  0.00  0.00    +0.000 C 
ENDROOT
BRANCH   1   4
ATOM      3  C   UNL     1       6.856   5.718  18.614  0.00  0.00    +0.000 C 
ATOM      4  C   UNL     1       5.412   5.485  18.216  0.00  0.00    +0.000 C 
ATOM      5  N   UNL     1       4.701   4.420  18.475  0.00  0.00    +0.000 NA
BRANCH   5   6
ATOM      6  N   UNL     1       5.272   3.377  19.140  0.00  0.00    +0.000 N 
ATOM      7  H   UNL     1       6.272   3.217  19.129  0.00  0.00    +0.000 HD
BRANCH   6   8
ATOM      8  C   UNL     1       4.516   2.480  19.841  0.00  0.00    +0.000 C 
ATOM      9  S   UNL     1       2.868   2.621  19.961  0.00  0.00    +0.000 S 
BRANCH   8  10
ATOM     10  N   UNL     1       5.191   1.463  20.425  0.00  0.00    +0.000 N 
ATOM     11  H   UNL     1       4.976   1.266  21.395  0.00  0.00    +0.000 HD
ATOM     12  H   UNL     1       5.767   0.834  19.885  0.00  0.00    +0.000 HD
ENDBRANCH   8  10
ENDBRANCH   6   8
ENDBRANCH   5   6
ENDBRANCH   1   4
BRANCH   1  13
ATOM     13  O   UNL     1       3.282   6.448  17.631  0.00  0.00    +0.000 OA
BRANCH  13  14
ATOM     14  C   UNL     1       2.594   7.354  18.393  0.00  0.00    +0.000 A 
ATOM     15  C   UNL     1       2.069   8.555  17.925  0.00  0.00    +0.000 A 
ATOM     16  C   UNL     1       1.317   9.381  18.763  0.00  0.00    +0.000 A 
ATOM     17  C   UNL     1       1.079   9.026  20.099  0.00  0.00    +0.000 A 
ATOM     18  C   UNL     1       1.618   7.823  20.570  0.00  0.00    +0.000 A 
ATOM     19  C   UNL     1       2.356   6.987  19.718  0.00  0.00    +0.000 A 
BRANCH  17  20
ATOM     20  C   UNL     1       0.240   9.945  20.969  0.00  0.00    +0.000 C 
ATOM     21  C   UNL     1       0.251   9.500  22.433  0.00  0.00    +0.000 C 
ATOM     22  C   UNL     1       0.666  11.407  20.832  0.00  0.00    +0.000 C 
ENDBRANCH  17  20
ENDBRANCH  13  14
ENDBRANCH   1  13
TORSDOF 7
ENDMDL
MODEL 7
REMARK VINA RESULT:      -6.5      2.733      3.701
REMARK  Name = 
REMARK  11 active torsions:
REMARK  status: ('A' for Active; 'I' for Inactive)
REMARK    1  A    between atoms: C_1  and  C_2
REMARK    2  A    between atoms: C_2  and  C_8
REMARK    3  A    between atoms: N_3  and  N_4
REMARK    4  A    between atoms: N_4  and  C_5
REMARK    5  A    between atoms: C_5  and  N_6
REMARK    6  A    between atoms: C_8  and  C_9
REMARK    7  A    between atoms: C_8  and  O_10
REMARK    8  A    between atoms: O_10  and  C_11
REMARK    9  A    between atoms: C_14  and  C_15
REMARK   10  A    between atoms: C_15  and  C_16
REMARK   11  A    between atoms: C_15  and  C_17
REMARK                            x       y       z     vdW  Elec       q    Type
REMARK                         _______ _______ _______ _____ _____    ______ ____
ROOT
ATOM      1  C   UNL     1       5.921   4.819  15.644  0.00  0.00    +0.000 C 
ATOM      2  C   UNL     1       7.024   4.647  14.600  0.00  0.00    +0.000 C 
ENDROOT
BRANCH   1   4
ATOM      3  C   UNL     1       4.749   7.032  16.370  0.00  0.00    +0.000 C 
ATOM      4  C   UNL     1       6.039   6.258  16.186  0.00  0.00    +0.000 C 
ATOM      5  N   UNL     1       7.239   6.674  16.491  0.00  0.00    +0.000 NA
BRANCH   5   6
ATOM      6  N   UNL     1       7.407   7.927  17.001  0.00  0.00    +0.000 N 
ATOM      7  H   UNL     1       6.999   8.743  16.562  0.00  0.00    +0.000 HD
BRANCH   6   8
ATOM      8  C   UNL     1       8.156   8.144  18.124  0.00  0.00    +0.000 C 
ATOM      9  S   UNL     1       8.764   9.640  18.501  0.00  0.00    +0.000 S 
BRANCH   8  10
ATOM     10  N   UNL     1       8.365   7.066  18.915  0.00  0.00    +0.000 N 
ATOM     11  H   UNL     1       8.331   7.217  19.915  0.00  0.00    +0.000 HD
ATOM     12  H   UNL     1       8.402   6.132  18.533  0.00  0.00    +0.000 HD
ENDBRANCH   8  10
ENDBRANCH   6   8
ENDBRANCH   5   6
ENDBRANCH   1   4
BRANCH   1  13
ATOM     13  O   UNL     1       6.070   3.914  16.740  0.00  0.00    +0.000 OA
BRANCH  13  14
ATOM     14  C   UNL     1       5.029   3.811  17.622  0.00  0.00    +0.000 A 
ATOM     15  C   UNL     1       5.111   4.068  18.988  0.00  0.00    +0.000 A 
ATOM     16  C   UNL     1       3.974   4.007  19.796  0.00  0.00    +0.000 A 
ATOM     17  C   UNL     1       2.723   3.677  19.255  0.00  0.00    +0.000 A 
ATOM     18  C   UNL     1       2.645   3.407  17.883  0.00  0.00    +0.000 A 
ATOM     19  C   UNL     1       3.787   3.490  17.072  0.00  0.00    +0.000 A 
BRANCH  17  20
ATOM     20  C   UNL     1       1.509   3.641  20.167  0.00  0.00    +0.000 C 
ATOM     21  C   UNL     1       0.344   2.885  19.526  0.00  0.00    +0.000 C 
ATOM     22  C   UNL     1       1.848   3.070  21.545  0.00  0.00    +0.000 C 
ENDBRANCH  17  20
ENDBRANCH  13  14
ENDBRANCH   1  13
TORSDOF 7
ENDMDL
MODEL 8
REMARK VINA RESULT:      -6.5      3.797      5.428
REMARK  Name = 
REMARK  11 active torsions:
REMARK  status: ('A' for Active; 'I' for Inactive)
REMARK    1  A    between atoms: C_1  and  C_2
REMARK    2  A    between atoms: C_2  and  C_8
REMARK    3  A    between atoms: N_3  and  N_4
REMARK    4  A    between atoms: N_4  and  C_5
REMARK    5  A    between atoms: C_5  and  N_6
REMARK    6  A    between atoms: C_8  and  C_9
REMARK    7  A    between atoms: C_8  and  O_10
REMARK    8  A    between atoms: O_10  and  C_11
REMARK    9  A    between atoms: C_14  and  C_15
REMARK   10  A    between atoms: C_15  and  C_16
REMARK   11  A    between atoms: C_15  and  C_17
REMARK                            x       y       z     vdW  Elec       q    Type
REMARK                         _______ _______ _______ _____ _____    ______ ____
ROOT
ATOM      1  C   UNL     1       2.422   5.241  19.415  0.00  0.00    +0.000 C 
ATOM      2  C   UNL     1       1.966   4.374  20.588  0.00  0.00    +0.000 C 
ENDROOT
BRANCH   1   4
ATOM      3  C   UNL     1       3.239   3.777  17.418  0.00  0.00    +0.000 C 
ATOM      4  C   UNL     1       3.570   4.483  18.718  0.00  0.00    +0.000 C 
ATOM      5  N   UNL     1       4.747   4.554  19.280  0.00  0.00    +0.000 NA
BRANCH   5   6
ATOM      6  N   UNL     1       5.809   3.928  18.698  0.00  0.00    +0.000 N 
ATOM      7  H   UNL     1       5.929   2.923  18.743  0.00  0.00    +0.000 HD
BRANCH   6   8
ATOM      8  C   UNL     1       6.777   4.632  18.040  0.00  0.00    +0.000 C 
ATOM      9  S   UNL     1       7.589   5.891  18.752  0.00  0.00    +0.000 S 
BRANCH   8  10
ATOM     10  N   UNL     1       7.041   4.237  16.772  0.00  0.00    +0.000 N 
ATOM     11  H   UNL     1       6.943   3.250  16.569  0.00  0.00    +0.000 HD
ATOM     12  H   UNL     1       7.179   4.907  16.030  0.00  0.00    +0.000 HD
ENDBRANCH   8  10
ENDBRANCH   6   8
ENDBRANCH   5   6
ENDBRANCH   1   4
BRANCH   1  13
ATOM     13  O   UNL     1       2.920   6.510  19.845  0.00  0.00    +0.000 OA
BRANCH  13  14
ATOM     14  C   UNL     1       2.192   7.621  19.513  0.00  0.00    +0.000 A 
ATOM     15  C   UNL     1       2.108   8.167  18.236  0.00  0.00    +0.000 A 
ATOM     16  C   UNL     1       1.279   9.262  17.981  0.00  0.00    +0.000 A 
ATOM     17  C   UNL     1       0.517   9.843  19.005  0.00  0.00    +0.000 A 
ATOM     18  C   UNL     1       0.613   9.299  20.291  0.00  0.00    +0.000 A 
ATOM     19  C   UNL     1       1.432   8.186  20.538  0.00  0.00    +0.000 A 
BRANCH  17  20
ATOM     20  C   UNL     1      -0.385  11.019  18.678  0.00  0.00    +0.000 C 
ATOM     21  C   UNL     1      -1.571  10.596  17.808  0.00  0.00    +0.000 C 
ATOM     22  C   UNL     1      -0.857  11.745  19.940  0.00  0.00    +0.000 C 
ENDBRANCH  17  20
ENDBRANCH  13  14
ENDBRANCH   1  13
TORSDOF 7
ENDMDL
MODEL 9
REMARK VINA RESULT:      -6.4      3.036      4.882
REMARK  Name = 
REMARK  11 active torsions:
REMARK  status: ('A' for Active; 'I' for Inactive)
REMARK    1  A    between atoms: C_1  and  C_2
REMARK    2  A    between atoms: C_2  and  C_8
REMARK    3  A    between atoms: N_3  and  N_4
REMARK    4  A    between atoms: N_4  and  C_5
REMARK    5  A    between atoms: C_5  and  N_6
REMARK    6  A    between atoms: C_8  and  C_9
REMARK    7  A    between atoms: C_8  and  O_10
REMARK    8  A    between atoms: O_10  and  C_11
REMARK    9  A    between atoms: C_14  and  C_15
REMARK   10  A    between atoms: C_15  and  C_16
REMARK   11  A    between atoms: C_15  and  C_17
REMARK                            x       y       z     vdW  Elec       q    Type
REMARK                         _______ _______ _______ _____ _____    ______ ____
ROOT
ATOM      1  C   UNL     1       3.331   3.737  18.153  0.00  0.00    +0.000 C 
ATOM      2  C   UNL     1       3.103   2.226  18.107  0.00  0.00    +0.000 C 
ENDROOT
BRANCH   1   4
ATOM      3  C   UNL     1       5.078   4.145  16.261  0.00  0.00    +0.000 C 
ATOM      4  C   UNL     1       4.797   3.980  17.741  0.00  0.00    +0.000 C 
ATOM      5  N   UNL     1       5.670   4.076  18.708  0.00  0.00    +0.000 NA
BRANCH   5   6
ATOM      6  N   UNL     1       6.978   4.318  18.412  0.00  0.00    +0.000 N 
ATOM      7  H   UNL     1       7.565   3.622  17.968  0.00  0.00    +0.000 HD
BRANCH   6   8
ATOM      8  C   UNL     1       7.568   5.511  18.720  0.00  0.00    +0.000 C 
ATOM      9  S   UNL     1       7.432   6.841  17.737  0.00  0.00    +0.000 S 
BRANCH   8  10
ATOM     10  N   UNL     1       8.265   5.547  19.880  0.00  0.00    +0.000 N 
ATOM     11  H   UNL     1       8.200   6.395  20.428  0.00  0.00    +0.000 HD
ATOM     12  H   UNL     1       8.704   4.720  20.255  0.00  0.00    +0.000 HD
ENDBRANCH   8  10
ENDBRANCH   6   8
ENDBRANCH   5   6
ENDBRANCH   1   4
BRANCH   1  13
ATOM     13  O   UNL     1       3.139   4.271  19.465  0.00  0.00    +0.000 OA
BRANCH  13  14
ATOM     14  C   UNL     1       2.593   5.522  19.564  0.00  0.00    +0.000 A 
ATOM     15  C   UNL     1       1.874   5.994  20.659  0.00  0.00    +0.000 A 
ATOM     16  C   UNL     1       1.418   7.314  20.698  0.00  0.00    +0.000 A 
ATOM     17  C   UNL     1       1.665   8.193  19.635  0.00  0.00    +0.000 A 
ATOM     18  C   UNL     1       2.378   7.712  18.530  0.00  0.00    +0.000 A 
ATOM     19  C   UNL     1       2.851   6.391  18.504  0.00  0.00    +0.000 A 
BRANCH  17  20
ATOM     20  C   UNL     1       1.168   9.625  19.728  0.00  0.00    +0.000 C 
ATOM     21  C   UNL     1       1.395  10.388  18.422  0.00  0.00    +0.000 C 
ATOM     22  C   UNL     1      -0.298   9.693  20.161  0.00  0.00    +0.000 C 
ENDBRANCH  17  20
ENDBRANCH  13  14
ENDBRANCH   1  13
TORSDOF 7
ENDMDL
