MODEL 1
REMARK VINA RESULT:      -7.3      0.000      0.000
REMARK  Name = 
REMARK  5 active torsions:
REMARK  status: ('A' for Active; 'I' for Inactive)
REMARK    1  A    between atoms: N_1  and  C_2
REMARK    2  A    between atoms: N_10  and  C1*_11
REMARK    3  A    between atoms: C3*_13  and  O3*_14
REMARK    4  A    between atoms: C4*_15  and  C5*_16
REMARK    5  A    between atoms: C5*_16  and  O5*_17
REMARK                            x       y       z     vdW  Elec       q    Type
REMARK                         _______ _______ _______ _____ _____    ______ ____
ROOT
ATOM      1  C   UNL     1       7.073   5.633  16.882  0.00  0.00    +0.000 A 
ATOM      2  N   UNL     1       7.863   6.018  17.900  0.00  0.00    +0.000 NA
ATOM      3  C   UNL     1       7.446   5.770  19.157  0.00  0.00    +0.000 A 
ATOM      4  N   UNL     1       6.299   5.175  19.567  0.00  0.00    +0.000 NA
ATOM      5  C   UNL     1       5.535   4.825  18.517  0.00  0.00    +0.000 A 
ATOM      6  C   UNL     1       5.840   5.028  17.175  0.00  0.00    +0.000 A 
ATOM      7  C   UNL     1       4.751   4.518  16.415  0.00  0.00    +0.000 A 
ATOM      8  C   UNL     1       3.828   4.014  17.300  0.00  0.00    +0.000 A 
ATOM      9  N   UNL     1       4.315   4.183  18.576  0.00  0.00    +0.000 N 
ENDROOT
BRANCH   9  10
ATOM     10  C1* UNL     1       3.666   3.691  19.778  0.00  0.00    +0.000 C 
ATOM     11  C2* UNL     1       2.581   4.583  20.356  0.00  0.00    +0.000 C 
ATOM     12  C3* UNL     1       1.687   3.582  21.053  0.00  0.00    +0.000 C 
ATOM     13  C4* UNL     1       1.780   2.337  20.173  0.00  0.00    +0.000 C 
ATOM     14  O4* UNL     1       3.072   2.395  19.524  0.00  0.00    +0.000 OA
BRANCH  12  15
ATOM     15  O3* UNL     1       2.209   3.328  22.361  0.00  0.00    +0.000 OA
ATOM     16  H3* UNL     1       2.626   2.447  22.379  0.00  0.00    +0.000 HD
ENDBRANCH  12  15
BRANCH  13  17
ATOM     17  C5* UNL     1       0.688   2.282  19.100  0.00  0.00    +0.000 C 
BRANCH  17  18
ATOM     18  O5* UNL     1       1.212   1.835  17.850  0.00  0.00    +0.000 OA
ATOM     19  H5* UNL     1       0.474   1.822  17.211  0.00  0.00    +0.000 HD
ENDBRANCH  17  18
ENDBRANCH  13  17
ENDBRANCH   9  10
BRANCH   1  20
ATOM     20  N   UNL     1       7.535   5.834  15.595  0.00  0.00    +0.000 N 
ATOM     21  H   UNL     1       6.878   5.564  14.876  0.00  0.00    +0.000 HD
ATOM     22  H   UNL     1       8.522   5.730  15.420  0.00  0.00    +0.000 HD
ENDBRANCH   1  20
TORSDOF 5
ENDMDL
MODEL 2
REMARK VINA RESULT:      -7.1      2.906      6.003
REMARK  Name = 
REMARK  5 active torsions:
REMARK  status: ('A' for Active; 'I' for Inactive)
REMARK    1  A    between atoms: N_1  and  C_2
REMARK    2  A    between atoms: N_10  and  C1*_11
REMARK    3  A    between atoms: C3*_13  and  O3*_14
REMARK    4  A    between atoms: C4*_15  and  C5*_16
REMARK    5  A    between atoms: C5*_16  and  O5*_17
REMARK                            x       y       z     vdW  Elec       q    Type
REMARK                         _______ _______ _______ _____ _____    ______ ____
ROOT
ATOM      1  C   UNL     1       1.445   3.124  19.510  0.00  0.00    +0.000 A 
ATOM      2  N   UNL     1       1.706   1.853  19.154  0.00  0.00    +0.000 NA
ATOM      3  C   UNL     1       2.770   1.622  18.358  0.00  0.00    +0.000 A 
ATOM      4  N   UNL     1       3.645   2.514  17.835  0.00  0.00    +0.000 NA
ATOM      5  C   UNL     1       3.334   3.770  18.204  0.00  0.00    +0.000 A 
ATOM      6  C   UNL     1       2.267   4.148  19.010  0.00  0.00    +0.000 A 
ATOM      7  C   UNL     1       2.310   5.565  19.128  0.00  0.00    +0.000 A 
ATOM      8  C   UNL     1       3.395   6.007  18.410  0.00  0.00    +0.000 A 
ATOM      9  N   UNL     1       4.029   4.913  17.866  0.00  0.00    +0.000 N 
ENDROOT
BRANCH   9  10
ATOM     10  C1* UNL     1       5.271   4.969  17.116  0.00  0.00    +0.000 C 
ATOM     11  C2* UNL     1       5.674   6.340  16.603  0.00  0.00    +0.000 C 
ATOM     12  C3* UNL     1       7.181   6.225  16.543  0.00  0.00    +0.000 C 
ATOM     13  C4* UNL     1       7.523   5.310  17.717  0.00  0.00    +0.000 C 
ATOM     14  O4* UNL     1       6.361   4.472  17.929  0.00  0.00    +0.000 OA
BRANCH  12  15
ATOM     15  O3* UNL     1       7.549   5.624  15.298  0.00  0.00    +0.000 OA
ATOM     16  H3* UNL     1       7.600   6.310  14.608  0.00  0.00    +0.000 HD
ENDBRANCH  12  15
BRANCH  13  17
ATOM     17  C5* UNL     1       7.821   6.080  19.007  0.00  0.00    +0.000 C 
BRANCH  17  18
ATOM     18  O5* UNL     1       7.416   5.340  20.159  0.00  0.00    +0.000 OA
ATOM     19  H5* UNL     1       7.151   4.450  19.857  0.00  0.00    +0.000 HD
ENDBRANCH  17  18
ENDBRANCH  13  17
ENDBRANCH   9  10
BRANCH   1  20
ATOM     20  N   UNL     1       0.392   3.347  20.376  0.00  0.00    +0.000 N 
ATOM     21  H   UNL     1       0.637   3.260  21.353  0.00  0.00    +0.000 HD
ATOM     22  H   UNL     1      -0.535   3.086  20.079  0.00  0.00    +0.000 HD
ENDBRANCH   1  20
TORSDOF 5
ENDMDL
MODEL 3
REMARK VINA RESULT:      -6.7      1.604      1.748
REMARK  Name = 
REMARK  5 active torsions:
REMARK  status: ('A' for Active; 'I' for Inactive)
REMARK    1  A    between atoms: N_1  and  C_2
REMARK    2  A    between atoms: N_10  and  C1*_11
REMARK    3  A    between atoms: C3*_13  and  O3*_14
REMARK    4  A    between atoms: C4*_15  and  C5*_16
REMARK    5  A    between atoms: C5*_16  and  O5*_17
REMARK                            x       y       z     vdW  Elec       q    Type
REMARK                         _______ _______ _______ _____ _____    ______ ____
ROOT
ATOM      1  C   UNL     1       7.219   6.706  17.741  0.00  0.00    +0.000 A 
ATOM      2  N   UNL     1       8.003   6.206  18.712  0.00  0.00    +0.000 NA
ATOM      3  C   UNL     1       7.426   5.448  19.667  0.00  0.00    +0.000 A 
ATOM      4  N   UNL     1       6.121   5.110  19.806  0.00  0.00    +0.000 NA
ATOM      5  C   UNL     1       5.375   5.647  18.823  0.00  0.00    +0.000 A 
ATOM      6  C   UNL     1       5.838   6.449  17.786  0.00  0.00    +0.000 A 
ATOM      7  C   UNL     1       4.712   6.802  16.993  0.00  0.00    +0.000 A 
ATOM      8  C   UNL     1       3.608   6.204  17.552  0.00  0.00    +0.000 A 
ATOM      9  N   UNL     1       4.016   5.485  18.653  0.00  0.00    +0.000 N 
ENDROOT
BRANCH   9  10
ATOM     10  C1* UNL     1       3.148   4.640  19.453  0.00  0.00    +0.000 C 
ATOM     11  C2* UNL     1       1.773   4.364  18.871  0.00  0.00    +0.000 C 
ATOM     12  C3* UNL     1       1.439   3.018  19.474  0.00  0.00    +0.000 C 
ATOM     13  C4* UNL     1       2.792   2.315  19.567  0.00  0.00    +0.000 C 
ATOM     14  O4* UNL     1       3.785   3.361  19.689  0.00  0.00    +0.000 OA
BRANCH  12  15
ATOM     15  O3* UNL     1       0.876   3.221  20.774  0.00  0.00    +0.000 OA
ATOM     16  H3* UNL     1       1.301   3.989  21.196  0.00  0.00    +0.000 HD
ENDBRANCH  12  15
BRANCH  13  17
ATOM     17  C5* UNL     1       3.111   1.471  18.329  0.00  0.00    +0.000 C 
BRANCH  17  18
ATOM     18  O5* UNL     1       4.287   0.686  18.525  0.00  0.00    +0.000 OA
ATOM     19  H5* UNL     1       4.703   0.984  19.356  0.00  0.00    +0.000 HD
ENDBRANCH  17  18
ENDBRANCH  13  17
ENDBRANCH   9  10
BRANCH   1  20
ATOM     20  N   UNL     1       7.825   7.429  16.731  0.00  0.00    +0.000 N 
ATOM     21  H   UNL     1       7.212   8.090  16.273  0.00  0.00    +0.000 HD
ATOM     22  H   UNL     1       8.552   6.983  16.194  0.00  0.00    +0.000 HD
ENDBRANCH   1  20
TORSDOF 5
ENDMDL
MODEL 4
REMARK VINA RESULT:      -6.7      2.866      5.797
REMARK  Name = 
REMARK  5 active torsions:
REMARK  status: ('A' for Active; 'I' for Inactive)
REMARK    1  A    between atoms: N_1  and  C_2
REMARK    2  A    between atoms: N_10  and  C1*_11
REMARK    3  A    between atoms: C3*_13  and  O3*_14
REMARK    4  A    between atoms: C4*_15  and  C5*_16
REMARK    5  A    between atoms: C5*_16  and  O5*_17
REMARK                            x       y       z     vdW  Elec       q    Type
REMARK                         _______ _______ _______ _____ _____    ______ ____
ROOT
ATOM      1  C   UNL     1       2.303   3.056  20.790  0.00  0.00    +0.000 A 
ATOM      2  N   UNL     1       3.194   2.227  21.363  0.00  0.00    +0.000 NA
ATOM      3  C   UNL     1       4.418   2.127  20.808  0.00  0.00    +0.000 A 
ATOM      4  N   UNL     1       4.903   2.755  19.710  0.00  0.00    +0.000 NA
ATOM      5  C   UNL     1       3.973   3.558  19.161  0.00  0.00    +0.000 A 
ATOM      6  C   UNL     1       2.676   3.747  19.625  0.00  0.00    +0.000 A 
ATOM      7  C   UNL     1       2.043   4.662  18.740  0.00  0.00    +0.000 A 
ATOM      8  C   UNL     1       2.961   5.013  17.779  0.00  0.00    +0.000 A 
ATOM      9  N   UNL     1       4.141   4.356  18.049  0.00  0.00    +0.000 N 
ENDROOT
BRANCH   9  10
ATOM     10  C1* UNL     1       5.376   4.542  17.309  0.00  0.00    +0.000 C 
ATOM     11  C2* UNL     1       5.587   5.922  16.710  0.00  0.00    +0.000 C 
ATOM     12  C3* UNL     1       7.096   6.022  16.671  0.00  0.00    +0.000 C 
ATOM     13  C4* UNL     1       7.544   5.243  17.906  0.00  0.00    +0.000 C 
ATOM     14  O4* UNL     1       6.511   4.262  18.163  0.00  0.00    +0.000 OA
BRANCH  12  15
ATOM     15  O3* UNL     1       7.569   5.402  15.472  0.00  0.00    +0.000 OA
ATOM     16  H3* UNL     1       7.619   6.066  14.760  0.00  0.00    +0.000 HD
ENDBRANCH  12  15
BRANCH  13  17
ATOM     17  C5* UNL     1       7.704   6.130  19.145  0.00  0.00    +0.000 C 
BRANCH  17  18
ATOM     18  O5* UNL     1       7.859   5.346  20.327  0.00  0.00    +0.000 OA
ATOM     19  H5* UNL     1       7.595   5.902  21.084  0.00  0.00    +0.000 HD
ENDBRANCH  17  18
ENDBRANCH  13  17
ENDBRANCH   9  10
BRANCH   1  20
ATOM     20  N   UNL     1       1.072   3.201  21.399  0.00  0.00    +0.000 N 
ATOM     21  H   UNL     1       0.580   4.045  21.138  0.00  0.00    +0.000 HD
ATOM     22  H   UNL     1       0.953   2.836  22.331  0.00  0.00    +0.000 HD
ENDBRANCH   1  20
TORSDOF 5
ENDMDL
MODEL 5
REMARK VINA RESULT:      -6.7      1.355      2.780
REMARK  Name = 
REMARK  5 active torsions:
REMARK  status: ('A' for Active; 'I' for Inactive)
REMARK    1  A    between atoms: N_1  and  C_2
REMARK    2  A    between atoms: N_10  and  C1*_11
REMARK    3  A    between atoms: C3*_13  and  O3*_14
REMARK    4  A    between atoms: C4*_15  and  C5*_16
REMARK    5  A    between atoms: C5*_16  and  O5*_17
REMARK                            x       y       z     vdW  Elec       q    Type
REMARK                         _______ _______ _______ _____ _____    ______ ____
ROOT
ATOM      1  C   UNL     1       6.780   6.026  16.500  0.00  0.00    +0.000 A 
ATOM      2  N   UNL     1       6.608   5.560  15.250  0.00  0.00    +0.000 NA
ATOM      3  C   UNL     1       5.570   4.731  15.019  0.00  0.00    +0.000 A 
ATOM      4  N   UNL     1       4.643   4.270  15.893  0.00  0.00    +0.000 NA
ATOM      5  C   UNL     1       4.867   4.748  17.131  0.00  0.00    +0.000 A 
ATOM      6  C   UNL     1       5.899   5.600  17.507  0.00  0.00    +0.000 A 
ATOM      7  C   UNL     1       5.761   5.835  18.903  0.00  0.00    +0.000 A 
ATOM      8  C   UNL     1       4.658   5.139  19.334  0.00  0.00    +0.000 A 
ATOM      9  N   UNL     1       4.103   4.495  18.251  0.00  0.00    +0.000 N 
ENDROOT
BRANCH   9  10
ATOM     10  C1* UNL     1       2.867   3.733  18.289  0.00  0.00    +0.000 C 
ATOM     11  C2* UNL     1       2.993   2.291  18.750  0.00  0.00    +0.000 C 
ATOM     12  C3* UNL     1       1.627   2.029  19.343  0.00  0.00    +0.000 C 
ATOM     13  C4* UNL     1       1.223   3.377  19.937  0.00  0.00    +0.000 C 
ATOM     14  O4* UNL     1       1.911   4.385  19.159  0.00  0.00    +0.000 OA
BRANCH  12  15
ATOM     15  O3* UNL     1       0.735   1.642  18.293  0.00  0.00    +0.000 OA
ATOM     16  H3* UNL     1       0.836   0.688  18.116  0.00  0.00    +0.000 HD
ENDBRANCH  12  15
BRANCH  13  17
ATOM     17  C5* UNL     1       1.626   3.525  21.408  0.00  0.00    +0.000 C 
BRANCH  17  18
ATOM     18  O5* UNL     1       1.705   2.255  22.054  0.00  0.00    +0.000 OA
ATOM     19  H5* UNL     1       2.307   2.352  22.817  0.00  0.00    +0.000 HD
ENDBRANCH  17  18
ENDBRANCH  13  17
ENDBRANCH   9  10
BRANCH   1  20
ATOM     20  N   UNL     1       7.807   6.924  16.717  0.00  0.00    +0.000 N 
ATOM     21  H   UNL     1       8.387   7.090  15.905  0.00  0.00    +0.000 HD
ATOM     22  H   UNL     1       8.227   6.958  17.632  0.00  0.00    +0.000 HD
ENDBRANCH   1  20
TORSDOF 5
ENDMDL
MODEL 6
REMARK VINA RESULT:      -6.7      2.871      5.647
REMARK  Name = 
REMARK  5 active torsions:
REMARK  status: ('A' for Active; 'I' for Inactive)
REMARK    1  A    between atoms: N_1  and  C_2
REMARK    2  A    between atoms: N_10  and  C1*_11
REMARK    3  A    between atoms: C3*_13  and  O3*_14
REMARK    4  A    between atoms: C4*_15  and  C5*_16
REMARK    5  A    between atoms: C5*_16  and  O5*_17
REMARK                            x       y       z     vdW  Elec       q    Type
REMARK                         _______ _______ _______ _____ _____    ______ ____
ROOT
ATOM      1  C   UNL     1       1.603   4.032  19.915  0.00  0.00    +0.000 A 
ATOM      2  N   UNL     1       1.851   5.255  20.415  0.00  0.00    +0.000 NA
ATOM      3  C   UNL     1       2.948   5.908  19.982  0.00  0.00    +0.000 A 
ATOM      4  N   UNL     1       3.881   5.497  19.090  0.00  0.00    +0.000 NA
ATOM      5  C   UNL     1       3.601   4.264  18.631  0.00  0.00    +0.000 A 
ATOM      6  C   UNL     1       2.513   3.480  18.998  0.00  0.00    +0.000 A 
ATOM      7  C   UNL     1       2.619   2.255  18.283  0.00  0.00    +0.000 A 
ATOM      8  C   UNL     1       3.747   2.327  17.501  0.00  0.00    +0.000 A 
ATOM      9  N   UNL     1       4.331   3.557  17.698  0.00  0.00    +0.000 N 
ENDROOT
BRANCH   9  10
ATOM     10  C1* UNL     1       5.494   4.043  16.976  0.00  0.00    +0.000 C 
ATOM     11  C2* UNL     1       5.385   5.452  16.419  0.00  0.00    +0.000 C 
ATOM     12  C3* UNL     1       6.831   5.896  16.398  0.00  0.00    +0.000 C 
ATOM     13  C4* UNL     1       7.442   5.202  17.614  0.00  0.00    +0.000 C 
ATOM     14  O4* UNL     1       6.660   4.003  17.832  0.00  0.00    +0.000 OA
BRANCH  12  15
ATOM     15  O3* UNL     1       7.437   5.437  15.186  0.00  0.00    +0.000 OA
ATOM     16  H3* UNL     1       8.013   4.674  15.379  0.00  0.00    +0.000 HD
ENDBRANCH  12  15
BRANCH  13  17
ATOM     17  C5* UNL     1       7.392   6.063  18.880  0.00  0.00    +0.000 C 
BRANCH  17  18
ATOM     18  O5* UNL     1       6.885   5.324  19.991  0.00  0.00    +0.000 OA
ATOM     19  H5* UNL     1       7.517   5.432  20.727  0.00  0.00    +0.000 HD
ENDBRANCH  17  18
ENDBRANCH  13  17
ENDBRANCH   9  10
BRANCH   1  20
ATOM     20  N   UNL     1       0.445   3.394  20.315  0.00  0.00    +0.000 N 
ATOM     21  H   UNL     1      -0.364   3.620  19.753  0.00  0.00    +0.000 HD
ATOM     22  H   UNL     1       0.320   3.200  21.296  0.00  0.00    +0.000 HD
ENDBRANCH   1  20
TORSDOF 5
ENDMDL
MODEL 7
REMARK VINA RESULT:      -6.6      3.698      4.528
REMARK  Name = 
REMARK  5 active torsions:
REMARK  status: ('A' for Active; 'I' for Inactive)
REMARK    1  A    between atoms: N_1  and  C_2
REMARK    2  A    between atoms: N_10  and  C1*_11
REMARK    3  A    between atoms: C3*_13  and  O3*_14
REMARK    4  A    between atoms: C4*_15  and  C5*_16
REMARK    5  A    between atoms: C5*_16  and  O5*_17
REMARK                            x       y       z     vdW  Elec       q    Type
REMARK                         _______ _______ _______ _____ _____    ______ ____
ROOT
ATOM      1  C   UNL     1       1.648   9.692  18.789  0.00  0.00    +0.000 A 
ATOM      2  N   UNL     1       1.002  10.069  19.907  0.00  0.00    +0.000 NA
ATOM      3  C   UNL     1       0.844   9.157  20.888  0.00  0.00    +0.000 A 
ATOM      4  N   UNL     1       1.245   7.864  20.914  0.00  0.00    +0.000 NA
ATOM      5  C   UNL     1       1.869   7.528  19.770  0.00  0.00    +0.000 A 
ATOM      6  C   UNL     1       2.092   8.363  18.681  0.00  0.00    +0.000 A 
ATOM      7  C   UNL     1       2.768   7.595  17.694  0.00  0.00    +0.000 A 
ATOM      8  C   UNL     1       2.949   6.331  18.204  0.00  0.00    +0.000 A 
ATOM      9  N   UNL     1       2.420   6.298  19.474  0.00  0.00    +0.000 N 
ENDROOT
BRANCH   9  10
ATOM     10  C1* UNL     1       2.502   5.160  20.372  0.00  0.00    +0.000 C 
ATOM     11  C2* UNL     1       1.231   4.341  20.521  0.00  0.00    +0.000 C 
ATOM     12  C3* UNL     1       1.776   2.972  20.864  0.00  0.00    +0.000 C 
ATOM     13  C4* UNL     1       3.087   2.897  20.084  0.00  0.00    +0.000 C 
ATOM     14  O4* UNL     1       3.549   4.260  19.935  0.00  0.00    +0.000 OA
BRANCH  12  15
ATOM     15  O3* UNL     1       2.011   2.909  22.274  0.00  0.00    +0.000 OA
ATOM     16  H3* UNL     1       2.699   3.555  22.518  0.00  0.00    +0.000 HD
ENDBRANCH  12  15
BRANCH  13  17
ATOM     17  C5* UNL     1       2.920   2.275  18.694  0.00  0.00    +0.000 C 
BRANCH  17  18
ATOM     18  O5* UNL     1       1.733   1.486  18.618  0.00  0.00    +0.000 OA
ATOM     19  H5* UNL     1       0.972   2.093  18.688  0.00  0.00    +0.000 HD
ENDBRANCH  17  18
ENDBRANCH  13  17
ENDBRANCH   9  10
BRANCH   1  20
ATOM     20  N   UNL     1       1.862  10.647  17.814  0.00  0.00    +0.000 N 
ATOM     21  H   UNL     1       2.663  11.238  17.987  0.00  0.00    +0.000 HD
ATOM     22  H   UNL     1       1.061  11.035  17.341  0.00  0.00    +0.000 HD
ENDBRANCH   1  20
TORSDOF 5
ENDMDL
MODEL 8
REMARK VINA RESULT:      -6.6      3.218      6.187
REMARK  Name = 
REMARK  5 active torsions:
REMARK  status: ('A' for Active; 'I' for Inactive)
REMARK    1  A    between atoms: N_1  and  C_2
REMARK    2  A    between atoms: N_10  and  C1*_11
REMARK    3  A    between atoms: C3*_13  and  O3*_14
REMARK    4  A    between atoms: C4*_15  and  C5*_16
REMARK    5  A    between atoms: C5*_16  and  O5*_17
REMARK                            x       y       z     vdW  Elec       q    Type
REMARK                         _______ _______ _______ _____ _____    ______ ____
ROOT
ATOM      1  C   UNL     1       1.486   3.183  19.512  0.00  0.00    +0.000 A 
ATOM      2  N   UNL     1       1.771   1.872  19.415  0.00  0.00    +0.000 NA
ATOM      3  C   UNL     1       2.836   1.506  18.675  0.00  0.00    +0.000 A 
ATOM      4  N   UNL     1       3.693   2.291  17.977  0.00  0.00    +0.000 NA
ATOM      5  C   UNL     1       3.359   3.590  18.090  0.00  0.00    +0.000 A 
ATOM      6  C   UNL     1       2.286   4.102  18.811  0.00  0.00    +0.000 A 
ATOM      7  C   UNL     1       2.302   5.513  18.642  0.00  0.00    +0.000 A 
ATOM      8  C   UNL     1       3.376   5.823  17.843  0.00  0.00    +0.000 A 
ATOM      9  N   UNL     1       4.029   4.654  17.524  0.00  0.00    +0.000 N 
ENDROOT
BRANCH   9  10
ATOM     10  C1* UNL     1       5.268   4.581  16.770  0.00  0.00    +0.000 C 
ATOM     11  C2* UNL     1       5.462   5.652  15.711  0.00  0.00    +0.000 C 
ATOM     12  C3* UNL     1       6.969   5.760  15.642  0.00  0.00    +0.000 C 
ATOM     13  C4* UNL     1       7.418   5.492  17.077  0.00  0.00    +0.000 C 
ATOM     14  O4* UNL     1       6.400   4.652  17.671  0.00  0.00    +0.000 OA
BRANCH  12  15
ATOM     15  O3* UNL     1       7.464   4.754  14.753  0.00  0.00    +0.000 OA
ATOM     16  H3* UNL     1       6.852   4.656  14.000  0.00  0.00    +0.000 HD
ENDBRANCH  12  15
BRANCH  13  17
ATOM     17  C5* UNL     1       7.552   6.772  17.909  0.00  0.00    +0.000 C 
BRANCH  17  18
ATOM     18  O5* UNL     1       7.798   7.906  17.079  0.00  0.00    +0.000 OA
ATOM     19  H5* UNL     1       6.939   8.199  16.720  0.00  0.00    +0.000 HD
ENDBRANCH  17  18
ENDBRANCH  13  17
ENDBRANCH   9  10
BRANCH   1  20
ATOM     20  N   UNL     1       0.432   3.556  20.323  0.00  0.00    +0.000 N 
ATOM     21  H   UNL     1       0.216   4.543  20.289  0.00  0.00    +0.000 HD
ATOM     22  H   UNL     1       0.291   3.055  21.185  0.00  0.00    +0.000 HD
ENDBRANCH   1  20
TORSDOF 5
ENDMDL
MODEL 9
REMARK VINA RESULT:      -6.6      3.089      5.692
REMARK  Name = 
REMARK  5 active torsions:
REMARK  status: ('A' for Active; 'I' for Inactive)
REMARK    1  A    between atoms: N_1  and  C_2
REMARK    2  A    between atoms: N_10  and  C1*_11
REMARK    3  A    between atoms: C3*_13  and  O3*_14
REMARK    4  A    between atoms: C4*_15  and  C5*_16
REMARK    5  A    between atoms: C5*_16  and  O5*_17
REMARK                            x       y       z     vdW  Elec       q    Type
REMARK                         _______ _______ _______ _____ _____    ______ ____
ROOT
ATOM      1  C   UNL     1       1.655   3.061  19.654  0.00  0.00    +0.000 A 
ATOM      2  N   UNL     1       2.083   1.997  18.951  0.00  0.00    +0.000 NA
ATOM      3  C   UNL     1       3.102   2.174  18.087  0.00  0.00    +0.000 A 
ATOM      4  N   UNL     1       3.781   3.311  17.800  0.00  0.00    +0.000 NA
ATOM      5  C   UNL     1       3.307   4.350  18.512  0.00  0.00    +0.000 A 
ATOM      6  C   UNL     1       2.261   4.308  19.428  0.00  0.00    +0.000 A 
ATOM      7  C   UNL     1       2.090   5.627  19.930  0.00  0.00    +0.000 A 
ATOM      8  C   UNL     1       3.030   6.427  19.325  0.00  0.00    +0.000 A 
ATOM      9  N   UNL     1       3.783   5.644  18.479  0.00  0.00    +0.000 N 
ENDROOT
BRANCH   9  10
ATOM     10  C1* UNL     1       4.936   6.112  17.731  0.00  0.00    +0.000 C 
ATOM     11  C2* UNL     1       6.224   5.336  17.947  0.00  0.00    +0.000 C 
ATOM     12  C3* UNL     1       6.944   5.546  16.634  0.00  0.00    +0.000 C 
ATOM     13  C4* UNL     1       5.816   5.605  15.606  0.00  0.00    +0.000 C 
ATOM     14  O4* UNL     1       4.648   6.088  16.312  0.00  0.00    +0.000 OA
BRANCH  12  15
ATOM     15  O3* UNL     1       7.653   6.788  16.690  0.00  0.00    +0.000 OA
ATOM     16  H3* UNL     1       8.595   6.616  16.874  0.00  0.00    +0.000 HD
ENDBRANCH  12  15
BRANCH  13  17
ATOM     17  C5* UNL     1       5.494   4.237  14.995  0.00  0.00    +0.000 C 
BRANCH  17  18
ATOM     18  O5* UNL     1       6.125   3.183  15.721  0.00  0.00    +0.000 OA
ATOM     19  H5* UNL     1       7.054   3.139  15.425  0.00  0.00    +0.000 HD
ENDBRANCH  17  18
ENDBRANCH  13  17
ENDBRANCH   9  10
BRANCH   1  20
ATOM     20  N   UNL     1       0.653   2.860  20.583  0.00  0.00    +0.000 N 
ATOM     21  H   UNL     1       0.493   1.888  20.811  0.00  0.00    +0.000 HD
ATOM     22  H   UNL     1      -0.126   3.499  20.593  0.00  0.00    +0.000 HD
ENDBRANCH   1  20
TORSDOF 5
ENDMDL
