MODEL 1
REMARK VINA RESULT:      -8.2      0.000      0.000
REMARK  Name = 
REMARK  6 active torsions:
REMARK  status: ('A' for Active; 'I' for Inactive)
REMARK    1  A    between atoms: C_1  and  C_2
REMARK    2  A    between atoms: C_2  and  C_3
REMARK    3  A    between atoms: C_2  and  N_4
REMARK    4  A    between atoms: N_7  and  C_8
REMARK    5  A    between atoms: C_8  and  C_9
REMARK    6  A    between atoms: C_8  and  C_15
REMARK                            x       y       z     vdW  Elec       q    Type
REMARK                         _______ _______ _______ _____ _____    ______ ____
ROOT
ATOM      1  C   UNL     1       2.811   6.006  18.408  0.00  0.00    +0.000 C 
ENDROOT
BRANCH   1   2
ATOM      2  C   UNL     1       2.196   7.362  18.808  0.00  0.00    +0.000 A 
ATOM      3  C   UNL     1       1.910   8.311  17.811  0.00  0.00    +0.000 A 
ATOM      4  C   UNL     1       1.296   9.528  18.128  0.00  0.00    +0.000 A 
ATOM      5  C   UNL     1       0.968   9.807  19.451  0.00  0.00    +0.000 A 
ATOM      6 CL   UNL     1       0.202  11.298  19.844  0.00  0.00    +0.000 Cl
ATOM      7  C   UNL     1       1.245   8.887  20.455  0.00  0.00    +0.000 A 
ATOM      8  C   UNL     1       1.845   7.664  20.135  0.00  0.00    +0.000 A 
ENDBRANCH   1   2
BRANCH   1  12
ATOM      9  N   UNL     1       5.332   5.383  15.578  0.00  0.00    +0.000 NA
ATOM     10  C   UNL     1       4.697   4.358  16.444  0.00  0.00    +0.000 C 
ATOM     11  C   UNL     1       4.820   4.635  17.967  0.00  0.00    +0.000 C 
ATOM     12  N   UNL     1       4.307   5.963  18.404  0.00  0.00    +0.000 NA
ATOM     13  C   UNL     1       4.931   6.978  17.522  0.00  0.00    +0.000 C 
ATOM     14  C   UNL     1       4.802   6.699  16.006  0.00  0.00    +0.000 C 
BRANCH   9  16
ATOM     15  C   UNL     1       7.310   4.310  16.661  0.00  0.00    +0.000 C 
ATOM     16  C   UNL     1       6.816   5.297  15.586  0.00  0.00    +0.000 C 
ATOM     17  C   UNL     1       7.404   4.816  14.246  0.00  0.00    +0.000 C 
ENDBRANCH   9  16
ENDBRANCH   1  12
BRANCH   1  18
ATOM     18  C   UNL     1       2.226   4.903  19.307  0.00  0.00    +0.000 A 
ATOM     19  C   UNL     1       2.608   4.788  20.656  0.00  0.00    +0.000 A 
ATOM     20  C   UNL     1       2.133   3.745  21.449  0.00  0.00    +0.000 A 
ATOM     21  C   UNL     1       1.271   2.796  20.907  0.00  0.00    +0.000 A 
ATOM     22  C   UNL     1       0.869   2.900  19.576  0.00  0.00    +0.000 A 
ATOM     23  C   UNL     1       1.339   3.949  18.782  0.00  0.00    +0.000 A 
ENDBRANCH   1  18
TORSDOF 4
ENDMDL
MODEL 2
REMARK VINA RESULT:      -8.2      0.094      1.011
REMARK  Name = 
REMARK  6 active torsions:
REMARK  status: ('A' for Active; 'I' for Inactive)
REMARK    1  A    between atoms: C_1  and  C_2
REMARK    2  A    between atoms: C_2  and  C_3
REMARK    3  A    between atoms: C_2  and  N_4
REMARK    4  A    between atoms: N_7  and  C_8
REMARK    5  A    between atoms: C_8  and  C_9
REMARK    6  A    between atoms: C_8  and  C_15
REMARK                            x       y       z     vdW  Elec       q    Type
REMARK                         _______ _______ _______ _____ _____    ______ ____
ROOT
ATOM      1  C   UNL     1       2.869   5.973  18.371  0.00  0.00    +0.000 C 
ENDROOT
BRANCH   1   2
ATOM      2  C   UNL     1       2.240   7.312  18.805  0.00  0.00    +0.000 A 
ATOM      3  C   UNL     1       1.934   8.279  17.833  0.00  0.00    +0.000 A 
ATOM      4  C   UNL     1       1.307   9.481  18.181  0.00  0.00    +0.000 A 
ATOM      5  C   UNL     1       0.985   9.726  19.512  0.00  0.00    +0.000 A 
ATOM      6 CL   UNL     1       0.202  11.197  19.944  0.00  0.00    +0.000 Cl
ATOM      7  C   UNL     1       1.280   8.787  20.493  0.00  0.00    +0.000 A 
ATOM      8  C   UNL     1       1.894   7.579  20.141  0.00  0.00    +0.000 A 
ENDBRANCH   1   2
BRANCH   1  12
ATOM      9  N   UNL     1       5.357   5.362  15.509  0.00  0.00    +0.000 NA
ATOM     10  C   UNL     1       4.751   4.336  16.394  0.00  0.00    +0.000 C 
ATOM     11  C   UNL     1       4.892   4.630  17.912  0.00  0.00    +0.000 C 
ATOM     12  N   UNL     1       4.366   5.954  18.344  0.00  0.00    +0.000 NA
ATOM     13  C   UNL     1       4.960   6.970  17.443  0.00  0.00    +0.000 C 
ATOM     14  C   UNL     1       4.813   6.674  15.932  0.00  0.00    +0.000 C 
BRANCH   9  16
ATOM     15  C   UNL     1       7.366   4.289  16.532  0.00  0.00    +0.000 C 
ATOM     16  C   UNL     1       6.842   5.299  15.495  0.00  0.00    +0.000 C 
ATOM     17  C   UNL     1       7.419   4.869  14.133  0.00  0.00    +0.000 C 
ENDBRANCH   9  16
ENDBRANCH   1  12
BRANCH   1  18
ATOM     18  C   UNL     1       2.314   4.845  19.257  0.00  0.00    +0.000 A 
ATOM     19  C   UNL     1       1.373   3.927  18.757  0.00  0.00    +0.000 A 
ATOM     20  C   UNL     1       0.818   2.950  19.583  0.00  0.00    +0.000 A 
ATOM     21  C   UNL     1       1.191   2.876  20.921  0.00  0.00    +0.000 A 
ATOM     22  C   UNL     1       2.133   3.768  21.432  0.00  0.00    +0.000 A 
ATOM     23  C   UNL     1       2.696   4.743  20.605  0.00  0.00    +0.000 A 
ENDBRANCH   1  18
TORSDOF 4
ENDMDL
MODEL 3
REMARK VINA RESULT:      -8.2      2.917      6.482
REMARK  Name = 
REMARK  6 active torsions:
REMARK  status: ('A' for Active; 'I' for Inactive)
REMARK    1  A    between atoms: C_1  and  C_2
REMARK    2  A    between atoms: C_2  and  C_3
REMARK    3  A    between atoms: C_2  and  N_4
REMARK    4  A    between atoms: N_7  and  C_8
REMARK    5  A    between atoms: C_8  and  C_9
REMARK    6  A    between atoms: C_8  and  C_15
REMARK                            x       y       z     vdW  Elec       q    Type
REMARK                         _______ _______ _______ _____ _____    ______ ____
ROOT
ATOM      1  C   UNL     1       5.798   4.528  16.708  0.00  0.00    +0.000 C 
ENDROOT
BRANCH   1   2
ATOM      2  C   UNL     1       6.547   5.744  17.287  0.00  0.00    +0.000 A 
ATOM      3  C   UNL     1       7.490   5.550  18.311  0.00  0.00    +0.000 A 
ATOM      4  C   UNL     1       8.234   6.620  18.820  0.00  0.00    +0.000 A 
ATOM      5  C   UNL     1       8.036   7.898  18.309  0.00  0.00    +0.000 A 
ATOM      6 CL   UNL     1       8.958   9.216  18.923  0.00  0.00    +0.000 Cl
ATOM      7  C   UNL     1       7.106   8.117  17.298  0.00  0.00    +0.000 A 
ATOM      8  C   UNL     1       6.373   7.043  16.780  0.00  0.00    +0.000 A 
ENDBRANCH   1   2
BRANCH   1  12
ATOM      9  N   UNL     1       3.605   3.972  19.812  0.00  0.00    +0.000 NA
ATOM     10  C   UNL     1       4.085   2.934  18.865  0.00  0.00    +0.000 C 
ATOM     11  C   UNL     1       3.794   3.240  17.372  0.00  0.00    +0.000 C 
ATOM     12  N   UNL     1       4.312   4.551  16.891  0.00  0.00    +0.000 NA
ATOM     13  C   UNL     1       3.845   5.579  17.852  0.00  0.00    +0.000 C 
ATOM     14  C   UNL     1       4.140   5.270  19.338  0.00  0.00    +0.000 C 
BRANCH   9  16
ATOM     15  C   UNL     1       1.682   2.751  20.835  0.00  0.00    +0.000 C 
ATOM     16  C   UNL     1       2.129   3.952  19.981  0.00  0.00    +0.000 C 
ATOM     17  C   UNL     1       1.580   5.213  20.677  0.00  0.00    +0.000 C 
ENDBRANCH   9  16
ENDBRANCH   1  12
BRANCH   1  18
ATOM     18  C   UNL     1       6.172   4.365  15.224  0.00  0.00    +0.000 A 
ATOM     19  C   UNL     1       7.341   4.948  14.704  0.00  0.00    +0.000 A 
ATOM     20  C   UNL     1       7.641   4.860  13.345  0.00  0.00    +0.000 A 
ATOM     21  C   UNL     1       6.776   4.192  12.483  0.00  0.00    +0.000 A 
ATOM     22  C   UNL     1       5.619   3.595  12.982  0.00  0.00    +0.000 A 
ATOM     23  C   UNL     1       5.320   3.676  14.345  0.00  0.00    +0.000 A 
ENDBRANCH   1  18
TORSDOF 4
ENDMDL
MODEL 4
REMARK VINA RESULT:      -8.2      2.913      6.543
REMARK  Name = 
REMARK  6 active torsions:
REMARK  status: ('A' for Active; 'I' for Inactive)
REMARK    1  A    between atoms: C_1  and  C_2
REMARK    2  A    between atoms: C_2  and  C_3
REMARK    3  A    between atoms: C_2  and  N_4
REMARK    4  A    between atoms: N_7  and  C_8
REMARK    5  A    between atoms: C_8  and  C_9
REMARK    6  A    between atoms: C_8  and  C_15
REMARK                            x       y       z     vdW  Elec       q    Type
REMARK                         _______ _______ _______ _____ _____    ______ ____
ROOT
ATOM      1  C   UNL     1       5.725   4.547  16.605  0.00  0.00    +0.000 C 
ENDROOT
BRANCH   1   2
ATOM      2  C   UNL     1       6.490   5.737  17.217  0.00  0.00    +0.000 A 
ATOM      3  C   UNL     1       7.428   5.502  18.238  0.00  0.00    +0.000 A 
ATOM      4  C   UNL     1       8.186   6.548  18.776  0.00  0.00    +0.000 A 
ATOM      5  C   UNL     1       8.007   7.842  18.298  0.00  0.00    +0.000 A 
ATOM      6 CL   UNL     1       8.946   9.131  18.948  0.00  0.00    +0.000 Cl
ATOM      7  C   UNL     1       7.083   8.100  17.291  0.00  0.00    +0.000 A 
ATOM      8  C   UNL     1       6.336   7.051  16.744  0.00  0.00    +0.000 A 
ENDBRANCH   1   2
BRANCH   1  12
ATOM      9  N   UNL     1       3.589   3.995  19.749  0.00  0.00    +0.000 NA
ATOM     10  C   UNL     1       4.052   2.956  18.795  0.00  0.00    +0.000 C 
ATOM     11  C   UNL     1       3.735   3.260  17.307  0.00  0.00    +0.000 C 
ATOM     12  N   UNL     1       4.243   4.570  16.814  0.00  0.00    +0.000 NA
ATOM     13  C   UNL     1       3.792   5.599  17.782  0.00  0.00    +0.000 C 
ATOM     14  C   UNL     1       4.114   5.293  19.263  0.00  0.00    +0.000 C 
BRANCH   9  16
ATOM     15  C   UNL     1       1.678   2.738  20.751  0.00  0.00    +0.000 C 
ATOM     16  C   UNL     1       2.116   3.974  19.944  0.00  0.00    +0.000 C 
ATOM     17  C   UNL     1       1.587   5.204  20.706  0.00  0.00    +0.000 C 
ENDBRANCH   9  16
ENDBRANCH   1  12
BRANCH   1  18
ATOM     18  C   UNL     1       6.073   4.440  15.110  0.00  0.00    +0.000 A 
ATOM     19  C   UNL     1       5.237   3.743  14.219  0.00  0.00    +0.000 A 
ATOM     20  C   UNL     1       5.591   3.585  12.880  0.00  0.00    +0.000 A 
ATOM     21  C   UNL     1       6.787   4.117  12.409  0.00  0.00    +0.000 A 
ATOM     22  C   UNL     1       7.624   4.822  13.273  0.00  0.00    +0.000 A 
ATOM     23  C   UNL     1       7.267   4.988  14.614  0.00  0.00    +0.000 A 
ENDBRANCH   1  18
TORSDOF 4
ENDMDL
MODEL 5
REMARK VINA RESULT:      -8.1      2.890      6.426
REMARK  Name = 
REMARK  6 active torsions:
REMARK  status: ('A' for Active; 'I' for Inactive)
REMARK    1  A    between atoms: C_1  and  C_2
REMARK    2  A    between atoms: C_2  and  C_3
REMARK    3  A    between atoms: C_2  and  N_4
REMARK    4  A    between atoms: N_7  and  C_8
REMARK    5  A    between atoms: C_8  and  C_9
REMARK    6  A    between atoms: C_8  and  C_15
REMARK                            x       y       z     vdW  Elec       q    Type
REMARK                         _______ _______ _______ _____ _____    ______ ____
ROOT
ATOM      1  C   UNL     1       5.794   4.605  16.687  0.00  0.00    +0.000 C 
ENDROOT
BRANCH   1   2
ATOM      2  C   UNL     1       6.647   5.754  17.260  0.00  0.00    +0.000 A 
ATOM      3  C   UNL     1       6.477   7.056  16.759  0.00  0.00    +0.000 A 
ATOM      4  C   UNL     1       7.189   8.135  17.295  0.00  0.00    +0.000 A 
ATOM      5  C   UNL     1       8.083   7.917  18.338  0.00  0.00    +0.000 A 
ATOM      6 CL   UNL     1       8.952   9.243  19.010  0.00  0.00    +0.000 Cl
ATOM      7  C   UNL     1       8.272   6.638  18.849  0.00  0.00    +0.000 A 
ATOM      8  C   UNL     1       7.548   5.562  18.321  0.00  0.00    +0.000 A 
ENDBRANCH   1   2
BRANCH   1  12
ATOM      9  N   UNL     1       3.514   3.928  19.703  0.00  0.00    +0.000 NA
ATOM     10  C   UNL     1       3.899   2.960  18.645  0.00  0.00    +0.000 C 
ATOM     11  C   UNL     1       3.662   3.462  17.196  0.00  0.00    +0.000 C 
ATOM     12  N   UNL     1       4.316   4.760  16.868  0.00  0.00    +0.000 NA
ATOM     13  C   UNL     1       3.942   5.714  17.940  0.00  0.00    +0.000 C 
ATOM     14  C   UNL     1       4.185   5.210  19.382  0.00  0.00    +0.000 C 
BRANCH   9  16
ATOM     15  C   UNL     1       1.463   2.798  20.570  0.00  0.00    +0.000 C 
ATOM     16  C   UNL     1       2.041   4.040  19.866  0.00  0.00    +0.000 C 
ATOM     17  C   UNL     1       1.614   5.259  20.706  0.00  0.00    +0.000 C 
ENDBRANCH   9  16
ENDBRANCH   1  12
BRANCH   1  18
ATOM     18  C   UNL     1       6.153   4.401  15.205  0.00  0.00    +0.000 A 
ATOM     19  C   UNL     1       7.328   4.951  14.662  0.00  0.00    +0.000 A 
ATOM     20  C   UNL     1       7.615   4.827  13.303  0.00  0.00    +0.000 A 
ATOM     21  C   UNL     1       6.732   4.154  12.464  0.00  0.00    +0.000 A 
ATOM     22  C   UNL     1       5.568   3.591  12.986  0.00  0.00    +0.000 A 
ATOM     23  C   UNL     1       5.282   3.708  14.348  0.00  0.00    +0.000 A 
ENDBRANCH   1  18
TORSDOF 4
ENDMDL
MODEL 6
REMARK VINA RESULT:      -8.1      2.889      6.490
REMARK  Name = 
REMARK  6 active torsions:
REMARK  status: ('A' for Active; 'I' for Inactive)
REMARK    1  A    between atoms: C_1  and  C_2
REMARK    2  A    between atoms: C_2  and  C_3
REMARK    3  A    between atoms: C_2  and  N_4
REMARK    4  A    between atoms: N_7  and  C_8
REMARK    5  A    between atoms: C_8  and  C_9
REMARK    6  A    between atoms: C_8  and  C_15
REMARK                            x       y       z     vdW  Elec       q    Type
REMARK                         _______ _______ _______ _____ _____    ______ ____
ROOT
ATOM      1  C   UNL     1       5.760   4.628  16.593  0.00  0.00    +0.000 C 
ENDROOT
BRANCH   1   2
ATOM      2  C   UNL     1       6.617   5.762  17.189  0.00  0.00    +0.000 A 
ATOM      3  C   UNL     1       6.451   7.075  16.715  0.00  0.00    +0.000 A 
ATOM      4  C   UNL     1       7.167   8.140  17.273  0.00  0.00    +0.000 A 
ATOM      5  C   UNL     1       8.061   7.897  18.310  0.00  0.00    +0.000 A 
ATOM      6 CL   UNL     1       8.935   9.206  19.009  0.00  0.00    +0.000 Cl
ATOM      7  C   UNL     1       8.246   6.607  18.794  0.00  0.00    +0.000 A 
ATOM      8  C   UNL     1       7.519   5.545  18.245  0.00  0.00    +0.000 A 
ENDBRANCH   1   2
BRANCH   1  12
ATOM      9  N   UNL     1       3.562   3.984  19.677  0.00  0.00    +0.000 NA
ATOM     10  C   UNL     1       3.934   3.000  18.630  0.00  0.00    +0.000 C 
ATOM     11  C   UNL     1       3.656   3.469  17.177  0.00  0.00    +0.000 C 
ATOM     12  N   UNL     1       4.285   4.767  16.807  0.00  0.00    +0.000 NA
ATOM     13  C   UNL     1       3.924   5.738  17.868  0.00  0.00    +0.000 C 
ATOM     14  C   UNL     1       4.208   5.267  19.314  0.00  0.00    +0.000 C 
BRANCH   9  16
ATOM     15  C   UNL     1       1.533   2.803  20.526  0.00  0.00    +0.000 C 
ATOM     16  C   UNL     1       2.092   4.080  19.873  0.00  0.00    +0.000 C 
ATOM     17  C   UNL     1       1.676   5.254  20.780  0.00  0.00    +0.000 C 
ENDBRANCH   9  16
ENDBRANCH   1  12
BRANCH   1  18
ATOM     18  C   UNL     1       6.092   4.477  15.099  0.00  0.00    +0.000 A 
ATOM     19  C   UNL     1       5.245   3.757  14.237  0.00  0.00    +0.000 A 
ATOM     20  C   UNL     1       5.585   3.560  12.899  0.00  0.00    +0.000 A 
ATOM     21  C   UNL     1       6.778   4.074  12.402  0.00  0.00    +0.000 A 
ATOM     22  C   UNL     1       7.625   4.802  13.236  0.00  0.00    +0.000 A 
ATOM     23  C   UNL     1       7.283   5.007  14.575  0.00  0.00    +0.000 A 
ENDBRANCH   1  18
TORSDOF 4
ENDMDL
MODEL 7
REMARK VINA RESULT:      -8.1      0.078      1.009
REMARK  Name = 
REMARK  6 active torsions:
REMARK  status: ('A' for Active; 'I' for Inactive)
REMARK    1  A    between atoms: C_1  and  C_2
REMARK    2  A    between atoms: C_2  and  C_3
REMARK    3  A    between atoms: C_2  and  N_4
REMARK    4  A    between atoms: N_7  and  C_8
REMARK    5  A    between atoms: C_8  and  C_9
REMARK    6  A    between atoms: C_8  and  C_15
REMARK                            x       y       z     vdW  Elec       q    Type
REMARK                         _______ _______ _______ _____ _____    ______ ____
ROOT
ATOM      1  C   UNL     1       2.774   6.014  18.389  0.00  0.00    +0.000 C 
ENDROOT
BRANCH   1   2
ATOM      2  C   UNL     1       2.120   7.359  18.763  0.00  0.00    +0.000 A 
ATOM      3  C   UNL     1       1.829   7.634  20.110  0.00  0.00    +0.000 A 
ATOM      4  C   UNL     1       1.291   8.867  20.495  0.00  0.00    +0.000 A 
ATOM      5  C   UNL     1       1.035   9.836  19.530  0.00  0.00    +0.000 A 
ATOM      6 CL   UNL     1       0.386  11.360  20.001  0.00  0.00    +0.000 Cl
ATOM      7  C   UNL     1       1.311   9.587  18.191  0.00  0.00    +0.000 A 
ATOM      8  C   UNL     1       1.862   8.358  17.809  0.00  0.00    +0.000 A 
ENDBRANCH   1   2
BRANCH   1  12
ATOM      9  N   UNL     1       5.349   5.360  15.614  0.00  0.00    +0.000 NA
ATOM     10  C   UNL     1       4.728   4.350  16.507  0.00  0.00    +0.000 C 
ATOM     11  C   UNL     1       4.823   4.682  18.020  0.00  0.00    +0.000 C 
ATOM     12  N   UNL     1       4.271   6.010  18.405  0.00  0.00    +0.000 NA
ATOM     13  C   UNL     1       4.881   7.010  17.496  0.00  0.00    +0.000 C 
ATOM     14  C   UNL     1       4.780   6.676  15.989  0.00  0.00    +0.000 C 
BRANCH   9  16
ATOM     15  C   UNL     1       7.338   4.318  16.705  0.00  0.00    +0.000 C 
ATOM     16  C   UNL     1       6.834   5.313  15.644  0.00  0.00    +0.000 C 
ATOM     17  C   UNL     1       7.455   4.876  14.303  0.00  0.00    +0.000 C 
ENDBRANCH   9  16
ENDBRANCH   1  12
BRANCH   1  18
ATOM     18  C   UNL     1       2.206   4.908  19.294  0.00  0.00    +0.000 A 
ATOM     19  C   UNL     1       2.594   4.805  20.642  0.00  0.00    +0.000 A 
ATOM     20  C   UNL     1       2.134   3.759  21.441  0.00  0.00    +0.000 A 
ATOM     21  C   UNL     1       1.282   2.797  20.906  0.00  0.00    +0.000 A 
ATOM     22  C   UNL     1       0.875   2.889  19.576  0.00  0.00    +0.000 A 
ATOM     23  C   UNL     1       1.330   3.941  18.776  0.00  0.00    +0.000 A 
ENDBRANCH   1  18
TORSDOF 4
ENDMDL
MODEL 8
REMARK VINA RESULT:      -8.1      0.119      1.428
REMARK  Name = 
REMARK  6 active torsions:
REMARK  status: ('A' for Active; 'I' for Inactive)
REMARK    1  A    between atoms: C_1  and  C_2
REMARK    2  A    between atoms: C_2  and  C_3
REMARK    3  A    between atoms: C_2  and  N_4
REMARK    4  A    between atoms: N_7  and  C_8
REMARK    5  A    between atoms: C_8  and  C_9
REMARK    6  A    between atoms: C_8  and  C_15
REMARK                            x       y       z     vdW  Elec       q    Type
REMARK                         _______ _______ _______ _____ _____    ______ ____
ROOT
ATOM      1  C   UNL     1       2.831   5.965  18.350  0.00  0.00    +0.000 C 
ENDROOT
BRANCH   1   2
ATOM      2  C   UNL     1       2.166   7.295  18.756  0.00  0.00    +0.000 A 
ATOM      3  C   UNL     1       1.882   7.539  20.111  0.00  0.00    +0.000 A 
ATOM      4  C   UNL     1       1.335   8.758  20.527  0.00  0.00    +0.000 A 
ATOM      5  C   UNL     1       1.061   9.744  19.584  0.00  0.00    +0.000 A 
ATOM      6 CL   UNL     1       0.399  11.250  20.091  0.00  0.00    +0.000 Cl
ATOM      7  C   UNL     1       1.329   9.525  18.237  0.00  0.00    +0.000 A 
ATOM      8  C   UNL     1       1.890   8.311  17.826  0.00  0.00    +0.000 A 
ENDBRANCH   1   2
BRANCH   1  12
ATOM      9  N   UNL     1       5.369   5.343  15.533  0.00  0.00    +0.000 NA
ATOM     10  C   UNL     1       4.776   4.325  16.437  0.00  0.00    +0.000 C 
ATOM     11  C   UNL     1       4.892   4.659  17.948  0.00  0.00    +0.000 C 
ATOM     12  N   UNL     1       4.329   5.981  18.341  0.00  0.00    +0.000 NA
ATOM     13  C   UNL     1       4.910   6.988  17.422  0.00  0.00    +0.000 C 
ATOM     14  C   UNL     1       4.789   6.652  15.917  0.00  0.00    +0.000 C 
BRANCH   9  16
ATOM     15  C   UNL     1       7.389   4.311  16.577  0.00  0.00    +0.000 C 
ATOM     16  C   UNL     1       6.855   5.315  15.539  0.00  0.00    +0.000 C 
ATOM     17  C   UNL     1       7.460   4.906  14.183  0.00  0.00    +0.000 C 
ENDBRANCH   9  16
ENDBRANCH   1  12
BRANCH   1  18
ATOM     18  C   UNL     1       2.293   4.837  19.246  0.00  0.00    +0.000 A 
ATOM     19  C   UNL     1       1.360   3.905  18.756  0.00  0.00    +0.000 A 
ATOM     20  C   UNL     1       0.819   2.928  19.591  0.00  0.00    +0.000 A 
ATOM     21  C   UNL     1       1.197   2.868  20.929  0.00  0.00    +0.000 A 
ATOM     22  C   UNL     1       2.131   3.774  21.430  0.00  0.00    +0.000 A 
ATOM     23  C   UNL     1       2.680   4.750  20.593  0.00  0.00    +0.000 A 
ENDBRANCH   1  18
TORSDOF 4
ENDMDL
MODEL 9
REMARK VINA RESULT:      -7.7      3.607      7.069
REMARK  Name = 
REMARK  6 active torsions:
REMARK  status: ('A' for Active; 'I' for Inactive)
REMARK    1  A    between atoms: C_1  and  C_2
REMARK    2  A    between atoms: C_2  and  C_3
REMARK    3  A    between atoms: C_2  and  N_4
REMARK    4  A    between atoms: N_7  and  C_8
REMARK    5  A    between atoms: C_8  and  C_9
REMARK    6  A    between atoms: C_8  and  C_15
REMARK                            x       y       z     vdW  Elec       q    Type
REMARK                         _______ _______ _______ _____ _____    ______ ____
ROOT
ATOM      1  C   UNL     1       5.359   5.316  17.028  0.00  0.00    +0.000 C 
ENDROOT
BRANCH   1   2
ATOM      2  C   UNL     1       5.829   4.827  15.643  0.00  0.00    +0.000 A 
ATOM      3  C   UNL     1       4.884   4.326  14.731  0.00  0.00    +0.000 A 
ATOM      4  C   UNL     1       5.263   3.930  13.444  0.00  0.00    +0.000 A 
ATOM      5  C   UNL     1       6.596   4.029  13.059  0.00  0.00    +0.000 A 
ATOM      6 CL   UNL     1       7.065   3.556  11.472  0.00  0.00    +0.000 Cl
ATOM      7  C   UNL     1       7.550   4.519  13.944  0.00  0.00    +0.000 A 
ATOM      8  C   UNL     1       7.167   4.928  15.227  0.00  0.00    +0.000 A 
ENDBRANCH   1   2
BRANCH   1  12
ATOM      9  N   UNL     1       1.998   4.206  18.521  0.00  0.00    +0.000 NA
ATOM     10  C   UNL     1       2.913   5.242  19.063  0.00  0.00    +0.000 C 
ATOM     11  C   UNL     1       4.384   4.776  19.235  0.00  0.00    +0.000 C 
ATOM     12  N   UNL     1       5.015   4.231  18.001  0.00  0.00    +0.000 NA
ATOM     13  C   UNL     1       4.087   3.212  17.456  0.00  0.00    +0.000 C 
ATOM     14  C   UNL     1       2.623   3.682  17.283  0.00  0.00    +0.000 C 
BRANCH   9  16
ATOM     15  C   UNL     1       1.100   3.779  20.811  0.00  0.00    +0.000 C 
ATOM     16  C   UNL     1       1.666   3.158  19.520  0.00  0.00    +0.000 C 
ATOM     17  C   UNL     1       0.611   2.153  19.019  0.00  0.00    +0.000 C 
ENDBRANCH   9  16
ENDBRANCH   1  12
BRANCH   1  18
ATOM     18  C   UNL     1       6.416   6.270  17.611  0.00  0.00    +0.000 A 
ATOM     19  C   UNL     1       6.538   7.590  17.142  0.00  0.00    +0.000 A 
ATOM     20  C   UNL     1       7.543   8.430  17.620  0.00  0.00    +0.000 A 
ATOM     21  C   UNL     1       8.445   7.963  18.572  0.00  0.00    +0.000 A 
ATOM     22  C   UNL     1       8.332   6.662  19.060  0.00  0.00    +0.000 A 
ATOM     23  C   UNL     1       7.321   5.822  18.587  0.00  0.00    +0.000 A 
ENDBRANCH   1  18
TORSDOF 4
ENDMDL
