MODEL 1
REMARK VINA RESULT:      -8.8      0.000      0.000
REMARK  Name = 
REMARK  6 active torsions:
REMARK  status: ('A' for Active; 'I' for Inactive)
REMARK    1  A    between atoms: C_1  and  C_2
REMARK    2  A    between atoms: C_2  and  N_3
REMARK    3  A    between atoms: C_8  and  C_9
REMARK    4  A    between atoms: C_11  and  C_12
REMARK    5  A    between atoms: C_23  and  C_24
REMARK    6  A    between atoms: N_27  and  C_28
REMARK                            x       y       z     vdW  Elec       q    Type
REMARK                         _______ _______ _______ _____ _____    ______ ____
ROOT
ATOM      1  N   UNL     1       3.365   4.000  19.072  0.00  0.00    +0.000 N 
ATOM      2  C   UNL     1       2.872   3.623  20.320  0.00  0.00    +0.000 C 
ATOM      3  O   UNL     1       2.990   2.484  20.773  0.00  0.00    +0.000 OA
ATOM      4  C   UNL     1       2.207   4.720  21.160  0.00  0.00    +0.000 C 
ATOM      5  O   UNL     1       1.692   5.825  20.434  0.00  0.00    +0.000 OA
ATOM      6  C   UNL     1       2.739   6.392  19.638  0.00  0.00    +0.000 C 
ATOM      7  C   UNL     1       3.198   5.387  18.549  0.00  0.00    +0.000 C 
ENDROOT
BRANCH   7   8
ATOM      8  C   UNL     1       4.505   5.843  17.959  0.00  0.00    +0.000 A 
ATOM      9  C   UNL     1       4.804   6.081  16.596  0.00  0.00    +0.000 A 
ATOM     10  N   UNL     1       6.044   6.549  16.421  0.00  0.00    +0.000 NA
ATOM     11  N   UNL     1       6.544   6.618  17.663  0.00  0.00    +0.000 N 
ATOM     12  C   UNL     1       7.859   7.160  17.900  0.00  0.00    +0.000 C 
ATOM     13  C   UNL     1       5.670   6.191  18.617  0.00  0.00    +0.000 A 
ENDBRANCH   7   8
BRANCH   6  14
ATOM     14  C   UNL     1       2.218   7.667  19.074  0.00  0.00    +0.000 A 
ATOM     15  N   UNL     1       1.540   8.618  19.675  0.00  0.00    +0.000 NA
ATOM     16  C   UNL     1       1.271   9.496  18.651  0.00  0.00    +0.000 A 
ATOM     17  N   UNL     1       1.782   9.120  17.466  0.00  0.00    +0.000 NA
ATOM     18  O   UNL     1       2.415   7.908  17.745  0.00  0.00    +0.000 OA
BRANCH  16  19
ATOM     19  C   UNL     1       0.472  10.692  18.841  0.00  0.00    +0.000 A 
ATOM     20  C   UNL     1       0.901  11.751  19.648  0.00  0.00    +0.000 A 
ATOM     21  C   UNL     1       0.094  12.873  19.766  0.00  0.00    +0.000 A 
ATOM     22  N   UNL     1      -1.106  13.047  19.170  0.00  0.00    +0.000 NA
ATOM     23  C   UNL     1      -1.476  11.999  18.412  0.00  0.00    +0.000 A 
ATOM     24  N   UNL     1      -2.653  11.935  17.718  0.00  0.00    +0.000 N 
ATOM     25  C   UNL     1      -2.735  10.738  17.054  0.00  0.00    +0.000 A 
ATOM     26  C   UNL     1      -1.586  10.028  17.325  0.00  0.00    +0.000 A 
ATOM     27  C   UNL     1      -0.774  10.819  18.192  0.00  0.00    +0.000 A 
ATOM     28  H   UNL     1      -3.343  12.670  17.719  0.00  0.00    +0.000 HD
ENDBRANCH  16  19
ENDBRANCH   6  14
BRANCH   1  30
ATOM     29  C   UNL     1       2.547   2.383  17.378  0.00  0.00    +0.000 C 
ATOM     30  C   UNL     1       3.743   2.926  18.145  0.00  0.00    +0.000 C 
ENDBRANCH   1  30
TORSDOF 4
ENDMDL
MODEL 2
REMARK VINA RESULT:      -8.4      0.762      1.034
REMARK  Name = 
REMARK  6 active torsions:
REMARK  status: ('A' for Active; 'I' for Inactive)
REMARK    1  A    between atoms: C_1  and  C_2
REMARK    2  A    between atoms: C_2  and  N_3
REMARK    3  A    between atoms: C_8  and  C_9
REMARK    4  A    between atoms: C_11  and  C_12
REMARK    5  A    between atoms: C_23  and  C_24
REMARK    6  A    between atoms: N_27  and  C_28
REMARK                            x       y       z     vdW  Elec       q    Type
REMARK                         _______ _______ _______ _____ _____    ______ ____
ROOT
ATOM      1  N   UNL     1       3.094   3.696  19.435  0.00  0.00    +0.000 N 
ATOM      2  C   UNL     1       2.577   3.480  20.711  0.00  0.00    +0.000 C 
ATOM      3  O   UNL     1       2.588   2.378  21.262  0.00  0.00    +0.000 OA
ATOM      4  C   UNL     1       2.028   4.705  21.451  0.00  0.00    +0.000 C 
ATOM      5  O   UNL     1       1.616   5.786  20.631  0.00  0.00    +0.000 OA
ATOM      6  C   UNL     1       2.707   6.178  19.789  0.00  0.00    +0.000 C 
ATOM      7  C   UNL     1       3.058   5.042  18.792  0.00  0.00    +0.000 C 
ENDROOT
BRANCH   7   8
ATOM      8  C   UNL     1       4.399   5.316  18.166  0.00  0.00    +0.000 A 
ATOM      9  C   UNL     1       5.609   5.651  18.821  0.00  0.00    +0.000 A 
ATOM     10  N   UNL     1       6.634   5.759  17.971  0.00  0.00    +0.000 NA
ATOM     11  N   UNL     1       6.094   5.492  16.773  0.00  0.00    +0.000 N 
ATOM     12  C   UNL     1       6.915   5.434  15.589  0.00  0.00    +0.000 C 
ATOM     13  C   UNL     1       4.757   5.238  16.833  0.00  0.00    +0.000 A 
ENDBRANCH   7   8
BRANCH   6  14
ATOM     14  C   UNL     1       2.308   7.444  19.115  0.00  0.00    +0.000 A 
ATOM     15  N   UNL     1       1.710   8.496  19.625  0.00  0.00    +0.000 NA
ATOM     16  C   UNL     1       1.530   9.308  18.530  0.00  0.00    +0.000 A 
ATOM     17  N   UNL     1       2.018   8.792  17.388  0.00  0.00    +0.000 NA
ATOM     18  O   UNL     1       2.538   7.556  17.775  0.00  0.00    +0.000 OA
BRANCH  16  19
ATOM     19  C   UNL     1       0.839  10.580  18.609  0.00  0.00    +0.000 A 
ATOM     20  C   UNL     1       1.433  11.714  19.173  0.00  0.00    +0.000 A 
ATOM     21  C   UNL     1       0.719  12.903  19.196  0.00  0.00    +0.000 A 
ATOM     22  N   UNL     1      -0.534  13.080  18.720  0.00  0.00    +0.000 NA
ATOM     23  C   UNL     1      -1.062  11.960  18.195  0.00  0.00    +0.000 A 
ATOM     24  N   UNL     1      -2.319  11.885  17.661  0.00  0.00    +0.000 N 
ATOM     25  C   UNL     1      -2.560  10.609  17.219  0.00  0.00    +0.000 A 
ATOM     26  C   UNL     1      -1.432   9.858  17.471  0.00  0.00    +0.000 A 
ATOM     27  C   UNL     1      -0.469  10.706  18.095  0.00  0.00    +0.000 A 
ATOM     28  H   UNL     1      -2.956  12.666  17.620  0.00  0.00    +0.000 HD
ENDBRANCH  16  19
ENDBRANCH   6  14
BRANCH   1  30
ATOM     29  C   UNL     1       2.291   2.306  17.544  0.00  0.00    +0.000 C 
ATOM     30  C   UNL     1       3.360   2.514  18.606  0.00  0.00    +0.000 C 
ENDBRANCH   1  30
TORSDOF 4
ENDMDL
MODEL 3
REMARK VINA RESULT:      -8.4      0.854      1.819
REMARK  Name = 
REMARK  6 active torsions:
REMARK  status: ('A' for Active; 'I' for Inactive)
REMARK    1  A    between atoms: C_1  and  C_2
REMARK    2  A    between atoms: C_2  and  N_3
REMARK    3  A    between atoms: C_8  and  C_9
REMARK    4  A    between atoms: C_11  and  C_12
REMARK    5  A    between atoms: C_23  and  C_24
REMARK    6  A    between atoms: N_27  and  C_28
REMARK                            x       y       z     vdW  Elec       q    Type
REMARK                         _______ _______ _______ _____ _____    ______ ____
ROOT
ATOM      1  N   UNL     1       3.380   3.975  19.029  0.00  0.00    +0.000 N 
ATOM      2  C   UNL     1       2.895   3.598  20.280  0.00  0.00    +0.000 C 
ATOM      3  O   UNL     1       3.013   2.458  20.731  0.00  0.00    +0.000 OA
ATOM      4  C   UNL     1       2.240   4.696  21.126  0.00  0.00    +0.000 C 
ATOM      5  O   UNL     1       1.723   5.803  20.407  0.00  0.00    +0.000 OA
ATOM      6  C   UNL     1       2.766   6.369  19.603  0.00  0.00    +0.000 C 
ATOM      7  C   UNL     1       3.214   5.363  18.510  0.00  0.00    +0.000 C 
ENDROOT
BRANCH   7   8
ATOM      8  C   UNL     1       4.519   5.816  17.911  0.00  0.00    +0.000 A 
ATOM      9  C   UNL     1       4.816   6.031  16.543  0.00  0.00    +0.000 A 
ATOM     10  N   UNL     1       6.052   6.502  16.359  0.00  0.00    +0.000 NA
ATOM     11  N   UNL     1       6.552   6.598  17.600  0.00  0.00    +0.000 N 
ATOM     12  C   UNL     1       7.864   7.152  17.826  0.00  0.00    +0.000 C 
ATOM     13  C   UNL     1       5.681   6.184  18.562  0.00  0.00    +0.000 A 
ENDBRANCH   7   8
BRANCH   6  14
ATOM     14  C   UNL     1       2.246   7.647  19.045  0.00  0.00    +0.000 A 
ATOM     15  N   UNL     1       1.547   8.583  19.645  0.00  0.00    +0.000 NA
ATOM     16  C   UNL     1       1.291   9.472  18.627  0.00  0.00    +0.000 A 
ATOM     17  N   UNL     1       1.829   9.116  17.447  0.00  0.00    +0.000 NA
ATOM     18  O   UNL     1       2.467   7.906  17.724  0.00  0.00    +0.000 OA
BRANCH  16  19
ATOM     19  C   UNL     1       0.478  10.658  18.816  0.00  0.00    +0.000 A 
ATOM     20  C   UNL     1      -0.881  10.584  19.138  0.00  0.00    +0.000 A 
ATOM     21  C   UNL     1      -1.591  11.761  19.325  0.00  0.00    +0.000 A 
ATOM     22  N   UNL     1      -1.088  13.011  19.215  0.00  0.00    +0.000 NA
ATOM     23  C   UNL     1       0.219  13.028  18.898  0.00  0.00    +0.000 A 
ATOM     24  N   UNL     1       0.948  14.172  18.721  0.00  0.00    +0.000 N 
ATOM     25  C   UNL     1       2.241  13.852  18.398  0.00  0.00    +0.000 A 
ATOM     26  C   UNL     1       2.340  12.478  18.374  0.00  0.00    +0.000 A 
ATOM     27  C   UNL     1       1.058  11.938  18.689  0.00  0.00    +0.000 A 
ATOM     28  H   UNL     1       0.563  15.099  18.812  0.00  0.00    +0.000 HD
ENDBRANCH  16  19
ENDBRANCH   6  14
BRANCH   1  30
ATOM     29  C   UNL     1       2.533   2.304  17.403  0.00  0.00    +0.000 C 
ATOM     30  C   UNL     1       3.748   2.901  18.098  0.00  0.00    +0.000 C 
ENDBRANCH   1  30
TORSDOF 4
ENDMDL
MODEL 4
REMARK VINA RESULT:      -8.1      1.641      3.604
REMARK  Name = 
REMARK  6 active torsions:
REMARK  status: ('A' for Active; 'I' for Inactive)
REMARK    1  A    between atoms: C_1  and  C_2
REMARK    2  A    between atoms: C_2  and  N_3
REMARK    3  A    between atoms: C_8  and  C_9
REMARK    4  A    between atoms: C_11  and  C_12
REMARK    5  A    between atoms: C_23  and  C_24
REMARK    6  A    between atoms: N_27  and  C_28
REMARK                            x       y       z     vdW  Elec       q    Type
REMARK                         _______ _______ _______ _____ _____    ______ ____
ROOT
ATOM      1  N   UNL     1       5.091   5.275  17.965  0.00  0.00    +0.000 N 
ATOM      2  C   UNL     1       5.586   5.664  16.721  0.00  0.00    +0.000 C 
ATOM      3  O   UNL     1       6.531   5.102  16.168  0.00  0.00    +0.000 OA
ATOM      4  C   UNL     1       4.857   6.816  16.018  0.00  0.00    +0.000 C 
ATOM      5  O   UNL     1       4.132   7.694  16.863  0.00  0.00    +0.000 OA
ATOM      6  C   UNL     1       3.199   6.933  17.640  0.00  0.00    +0.000 C 
ATOM      7  C   UNL     1       3.949   5.984  18.611  0.00  0.00    +0.000 C 
ENDROOT
BRANCH   7   8
ATOM      8  C   UNL     1       2.990   4.960  19.158  0.00  0.00    +0.000 A 
ATOM      9  C   UNL     1       2.054   4.179  18.438  0.00  0.00    +0.000 A 
ATOM     10  N   UNL     1       1.405   3.312  19.221  0.00  0.00    +0.000 NA
ATOM     11  N   UNL     1       1.921   3.527  20.440  0.00  0.00    +0.000 N 
ATOM     12  C   UNL     1       1.522   2.715  21.563  0.00  0.00    +0.000 C 
ATOM     13  C   UNL     1       2.860   4.514  20.459  0.00  0.00    +0.000 A 
ENDBRANCH   7   8
BRANCH   6  14
ATOM     14  C   UNL     1       2.316   7.906  18.339  0.00  0.00    +0.000 A 
ATOM     15  N   UNL     1       1.728   8.978  17.859  0.00  0.00    +0.000 NA
ATOM     16  C   UNL     1       1.116   9.514  18.968  0.00  0.00    +0.000 A 
ATOM     17  N   UNL     1       1.294   8.791  20.088  0.00  0.00    +0.000 NA
ATOM     18  O   UNL     1       2.087   7.721  19.672  0.00  0.00    +0.000 OA
BRANCH  16  19
ATOM     19  C   UNL     1       0.384  10.765  18.925  0.00  0.00    +0.000 A 
ATOM     20  C   UNL     1       0.857  11.924  19.548  0.00  0.00    +0.000 A 
ATOM     21  C   UNL     1       0.113  13.091  19.447  0.00  0.00    +0.000 A 
ATOM     22  N   UNL     1      -1.063  13.223  18.794  0.00  0.00    +0.000 NA
ATOM     23  C   UNL     1      -1.477  12.079  18.218  0.00  0.00    +0.000 A 
ATOM     24  N   UNL     1      -2.642  11.958  17.512  0.00  0.00    +0.000 N 
ATOM     25  C   UNL     1      -2.779  10.669  17.063  0.00  0.00    +0.000 A 
ATOM     26  C   UNL     1      -1.678   9.957  17.487  0.00  0.00    +0.000 A 
ATOM     27  C   UNL     1      -0.839  10.843  18.227  0.00  0.00    +0.000 A 
ATOM     28  H   UNL     1      -3.288  12.718  17.365  0.00  0.00    +0.000 HD
ENDBRANCH  16  19
ENDBRANCH   6  14
BRANCH   1  30
ATOM     29  C   UNL     1       7.021   5.139  19.518  0.00  0.00    +0.000 C 
ATOM     30  C   UNL     1       5.930   4.382  18.774  0.00  0.00    +0.000 C 
ENDBRANCH   1  30
TORSDOF 4
ENDMDL
MODEL 5
REMARK VINA RESULT:      -8.0      1.947      2.733
REMARK  Name = 
REMARK  6 active torsions:
REMARK  status: ('A' for Active; 'I' for Inactive)
REMARK    1  A    between atoms: C_1  and  C_2
REMARK    2  A    between atoms: C_2  and  N_3
REMARK    3  A    between atoms: C_8  and  C_9
REMARK    4  A    between atoms: C_11  and  C_12
REMARK    5  A    between atoms: C_23  and  C_24
REMARK    6  A    between atoms: N_27  and  C_28
REMARK                            x       y       z     vdW  Elec       q    Type
REMARK                         _______ _______ _______ _____ _____    ______ ____
ROOT
ATOM      1  N   UNL     1       4.426   3.965  17.217  0.00  0.00    +0.000 N 
ATOM      2  C   UNL     1       3.562   3.002  17.734  0.00  0.00    +0.000 C 
ATOM      3  O   UNL     1       3.729   1.793  17.573  0.00  0.00    +0.000 OA
ATOM      4  C   UNL     1       2.390   3.510  18.583  0.00  0.00    +0.000 C 
ATOM      5  O   UNL     1       1.989   4.849  18.342  0.00  0.00    +0.000 OA
ATOM      6  C   UNL     1       3.119   5.714  18.509  0.00  0.00    +0.000 C 
ATOM      7  C   UNL     1       4.190   5.423  17.424  0.00  0.00    +0.000 C 
ENDROOT
BRANCH   7   8
ATOM      8  C   UNL     1       5.490   6.075  17.811  0.00  0.00    +0.000 A 
ATOM      9  C   UNL     1       6.474   5.583  18.702  0.00  0.00    +0.000 A 
ATOM     10  N   UNL     1       7.546   6.379  18.767  0.00  0.00    +0.000 NA
ATOM     11  N   UNL     1       7.260   7.379  17.920  0.00  0.00    +0.000 N 
ATOM     12  C   UNL     1       8.224   8.418  17.654  0.00  0.00    +0.000 C 
ATOM     13  C   UNL     1       6.035   7.253  17.336  0.00  0.00    +0.000 A 
ENDBRANCH   7   8
BRANCH   6  14
ATOM     14  C   UNL     1       2.610   7.112  18.468  0.00  0.00    +0.000 A 
ATOM     15  N   UNL     1       2.077   7.823  19.435  0.00  0.00    +0.000 NA
ATOM     16  C   UNL     1       1.732   8.993  18.800  0.00  0.00    +0.000 A 
ATOM     17  N   UNL     1       2.059   9.019  17.496  0.00  0.00    +0.000 NA
ATOM     18  O   UNL     1       2.646   7.772  17.275  0.00  0.00    +0.000 OA
BRANCH  16  19
ATOM     19  C   UNL     1       1.041  10.073  19.479  0.00  0.00    +0.000 A 
ATOM     20  C   UNL     1       0.827  11.315  18.872  0.00  0.00    +0.000 A 
ATOM     21  C   UNL     1       0.140  12.294  19.575  0.00  0.00    +0.000 A 
ATOM     22  N   UNL     1      -0.351  12.168  20.828  0.00  0.00    +0.000 NA
ATOM     23  C   UNL     1      -0.113  10.959  21.369  0.00  0.00    +0.000 A 
ATOM     24  N   UNL     1      -0.501  10.595  22.629  0.00  0.00    +0.000 N 
ATOM     25  C   UNL     1      -0.103   9.308  22.883  0.00  0.00    +0.000 A 
ATOM     26  C   UNL     1       0.546   8.840  21.761  0.00  0.00    +0.000 A 
ATOM     27  C   UNL     1       0.550   9.883  20.787  0.00  0.00    +0.000 A 
ATOM     28  H   UNL     1      -0.998  11.207  23.258  0.00  0.00    +0.000 HD
ENDBRANCH  16  19
ENDBRANCH   6  14
BRANCH   1  30
ATOM     29  C   UNL     1       5.242   4.351  14.907  0.00  0.00    +0.000 C 
ATOM     30  C   UNL     1       5.374   3.533  16.183  0.00  0.00    +0.000 C 
ENDBRANCH   1  30
TORSDOF 4
ENDMDL
MODEL 6
REMARK VINA RESULT:      -8.0      1.100      2.106
REMARK  Name = 
REMARK  6 active torsions:
REMARK  status: ('A' for Active; 'I' for Inactive)
REMARK    1  A    between atoms: C_1  and  C_2
REMARK    2  A    between atoms: C_2  and  N_3
REMARK    3  A    between atoms: C_8  and  C_9
REMARK    4  A    between atoms: C_11  and  C_12
REMARK    5  A    between atoms: C_23  and  C_24
REMARK    6  A    between atoms: N_27  and  C_28
REMARK                            x       y       z     vdW  Elec       q    Type
REMARK                         _______ _______ _______ _____ _____    ______ ____
ROOT
ATOM      1  N   UNL     1       3.230   3.644  19.385  0.00  0.00    +0.000 N 
ATOM      2  C   UNL     1       2.781   3.425  20.685  0.00  0.00    +0.000 C 
ATOM      3  O   UNL     1       2.829   2.324  21.236  0.00  0.00    +0.000 OA
ATOM      4  C   UNL     1       2.262   4.647  21.452  0.00  0.00    +0.000 C 
ATOM      5  O   UNL     1       1.799   5.724  20.653  0.00  0.00    +0.000 OA
ATOM      6  C   UNL     1       2.842   6.123  19.756  0.00  0.00    +0.000 C 
ATOM      7  C   UNL     1       3.150   4.988  18.744  0.00  0.00    +0.000 C 
ENDROOT
BRANCH   7   8
ATOM      8  C   UNL     1       4.455   5.272  18.048  0.00  0.00    +0.000 A 
ATOM      9  C   UNL     1       5.679   5.674  18.635  0.00  0.00    +0.000 A 
ATOM     10  N   UNL     1       6.665   5.772  17.738  0.00  0.00    +0.000 NA
ATOM     11  N   UNL     1       6.085   5.431  16.578  0.00  0.00    +0.000 N 
ATOM     12  C   UNL     1       6.859   5.340  15.365  0.00  0.00    +0.000 C 
ATOM     13  C   UNL     1       4.760   5.140  16.707  0.00  0.00    +0.000 A 
ENDBRANCH   7   8
BRANCH   6  14
ATOM     14  C   UNL     1       2.399   7.385  19.102  0.00  0.00    +0.000 A 
ATOM     15  N   UNL     1       1.614   8.325  19.575  0.00  0.00    +0.000 NA
ATOM     16  C   UNL     1       1.501   9.192  18.513  0.00  0.00    +0.000 A 
ATOM     17  N   UNL     1       2.207   8.818  17.431  0.00  0.00    +0.000 NA
ATOM     18  O   UNL     1       2.807   7.620  17.822  0.00  0.00    +0.000 OA
BRANCH  16  19
ATOM     19  C   UNL     1       0.661  10.374  18.558  0.00  0.00    +0.000 A 
ATOM     20  C   UNL     1      -0.730  10.292  18.679  0.00  0.00    +0.000 A 
ATOM     21  C   UNL     1      -1.467  11.465  18.737  0.00  0.00    +0.000 A 
ATOM     22  N   UNL     1      -0.963  12.718  18.679  0.00  0.00    +0.000 NA
ATOM     23  C   UNL     1       0.376  12.742  18.557  0.00  0.00    +0.000 A 
ATOM     24  N   UNL     1       1.115  13.889  18.467  0.00  0.00    +0.000 N 
ATOM     25  C   UNL     1       2.444  13.576  18.343  0.00  0.00    +0.000 A 
ATOM     26  C   UNL     1       2.556  12.203  18.360  0.00  0.00    +0.000 A 
ATOM     27  C   UNL     1       1.244  11.657  18.494  0.00  0.00    +0.000 A 
ATOM     28  H   UNL     1       0.714  14.815  18.483  0.00  0.00    +0.000 HD
ENDBRANCH  16  19
ENDBRANCH   6  14
BRANCH   1  30
ATOM     29  C   UNL     1       2.311   2.210  17.581  0.00  0.00    +0.000 C 
ATOM     30  C   UNL     1       3.462   2.462  18.544  0.00  0.00    +0.000 C 
ENDBRANCH   1  30
TORSDOF 4
ENDMDL
MODEL 7
REMARK VINA RESULT:      -7.9      2.403      4.133
REMARK  Name = 
REMARK  6 active torsions:
REMARK  status: ('A' for Active; 'I' for Inactive)
REMARK    1  A    between atoms: C_1  and  C_2
REMARK    2  A    between atoms: C_2  and  N_3
REMARK    3  A    between atoms: C_8  and  C_9
REMARK    4  A    between atoms: C_11  and  C_12
REMARK    5  A    between atoms: C_23  and  C_24
REMARK    6  A    between atoms: N_27  and  C_28
REMARK                            x       y       z     vdW  Elec       q    Type
REMARK                         _______ _______ _______ _____ _____    ______ ____
ROOT
ATOM      1  N   UNL     1       5.053   5.301  17.802  0.00  0.00    +0.000 N 
ATOM      2  C   UNL     1       5.541   5.672  16.551  0.00  0.00    +0.000 C 
ATOM      3  O   UNL     1       6.455   5.075  15.982  0.00  0.00    +0.000 OA
ATOM      4  C   UNL     1       4.845   6.851  15.860  0.00  0.00    +0.000 C 
ATOM      5  O   UNL     1       4.168   7.756  16.718  0.00  0.00    +0.000 OA
ATOM      6  C   UNL     1       3.220   7.030  17.510  0.00  0.00    +0.000 C 
ATOM      7  C   UNL     1       3.950   6.052  18.468  0.00  0.00    +0.000 C 
ENDROOT
BRANCH   7   8
ATOM      8  C   UNL     1       2.962   5.065  19.031  0.00  0.00    +0.000 A 
ATOM      9  C   UNL     1       2.010   4.293  18.322  0.00  0.00    +0.000 A 
ATOM     10  N   UNL     1       1.335   3.459  19.119  0.00  0.00    +0.000 NA
ATOM     11  N   UNL     1       1.850   3.687  20.337  0.00  0.00    +0.000 N 
ATOM     12  C   UNL     1       1.424   2.909  21.474  0.00  0.00    +0.000 C 
ATOM     13  C   UNL     1       2.813   4.650  20.340  0.00  0.00    +0.000 A 
ENDBRANCH   7   8
BRANCH   6  14
ATOM     14  C   UNL     1       2.386   8.034  18.224  0.00  0.00    +0.000 A 
ATOM     15  N   UNL     1       2.117   8.120  19.507  0.00  0.00    +0.000 NA
ATOM     16  C   UNL     1       1.248   9.184  19.568  0.00  0.00    +0.000 A 
ATOM     17  N   UNL     1       1.005   9.754  18.374  0.00  0.00    +0.000 NA
ATOM     18  O   UNL     1       1.762   8.994  17.481  0.00  0.00    +0.000 OA
BRANCH  16  19
ATOM     19  C   UNL     1       0.628   9.613  20.806  0.00  0.00    +0.000 A 
ATOM     20  C   UNL     1       0.920   9.006  22.032  0.00  0.00    +0.000 A 
ATOM     21  C   UNL     1       0.304   9.484  23.180  0.00  0.00    +0.000 A 
ATOM     22  N   UNL     1      -0.583  10.502  23.234  0.00  0.00    +0.000 NA
ATOM     23  C   UNL     1      -0.835  11.047  22.030  0.00  0.00    +0.000 A 
ATOM     24  N   UNL     1      -1.705  12.082  21.825  0.00  0.00    +0.000 N 
ATOM     25  C   UNL     1      -1.744  12.398  20.492  0.00  0.00    +0.000 A 
ATOM     26  C   UNL     1      -0.878  11.553  19.834  0.00  0.00    +0.000 A 
ATOM     27  C   UNL     1      -0.291  10.683  20.801  0.00  0.00    +0.000 A 
ATOM     28  H   UNL     1      -2.233  12.522  22.564  0.00  0.00    +0.000 HD
ENDBRANCH  16  19
ENDBRANCH   6  14
BRANCH   1  30
ATOM     29  C   UNL     1       6.866   5.109  19.485  0.00  0.00    +0.000 C 
ATOM     30  C   UNL     1       5.871   4.376  18.597  0.00  0.00    +0.000 C 
ENDBRANCH   1  30
TORSDOF 4
ENDMDL
MODEL 8
REMARK VINA RESULT:      -7.8      1.892      2.538
REMARK  Name = 
REMARK  6 active torsions:
REMARK  status: ('A' for Active; 'I' for Inactive)
REMARK    1  A    between atoms: C_1  and  C_2
REMARK    2  A    between atoms: C_2  and  N_3
REMARK    3  A    between atoms: C_8  and  C_9
REMARK    4  A    between atoms: C_11  and  C_12
REMARK    5  A    between atoms: C_23  and  C_24
REMARK    6  A    between atoms: N_27  and  C_28
REMARK                            x       y       z     vdW  Elec       q    Type
REMARK                         _______ _______ _______ _____ _____    ______ ____
ROOT
ATOM      1  N   UNL     1       4.417   3.947  17.300  0.00  0.00    +0.000 N 
ATOM      2  C   UNL     1       3.541   3.007  17.839  0.00  0.00    +0.000 C 
ATOM      3  O   UNL     1       3.703   1.792  17.721  0.00  0.00    +0.000 OA
ATOM      4  C   UNL     1       2.364   3.550  18.657  0.00  0.00    +0.000 C 
ATOM      5  O   UNL     1       1.973   4.882  18.366  0.00  0.00    +0.000 OA
ATOM      6  C   UNL     1       3.106   5.746  18.516  0.00  0.00    +0.000 C 
ATOM      7  C   UNL     1       4.187   5.412  17.454  0.00  0.00    +0.000 C 
ENDROOT
BRANCH   7   8
ATOM      8  C   UNL     1       5.487   6.070  17.833  0.00  0.00    +0.000 A 
ATOM      9  C   UNL     1       6.461   5.600  18.747  0.00  0.00    +0.000 A 
ATOM     10  N   UNL     1       7.535   6.394  18.798  0.00  0.00    +0.000 NA
ATOM     11  N   UNL     1       7.261   7.369  17.920  0.00  0.00    +0.000 N 
ATOM     12  C   UNL     1       8.232   8.396  17.631  0.00  0.00    +0.000 C 
ATOM     13  C   UNL     1       6.041   7.231  17.329  0.00  0.00    +0.000 A 
ENDBRANCH   7   8
BRANCH   6  14
ATOM     14  C   UNL     1       2.606   7.145  18.422  0.00  0.00    +0.000 A 
ATOM     15  N   UNL     1       2.026   7.876  19.346  0.00  0.00    +0.000 NA
ATOM     16  C   UNL     1       1.719   9.035  18.671  0.00  0.00    +0.000 A 
ATOM     17  N   UNL     1       2.114   9.034  17.386  0.00  0.00    +0.000 NA
ATOM     18  O   UNL     1       2.707   7.782  17.220  0.00  0.00    +0.000 OA
BRANCH  16  19
ATOM     19  C   UNL     1       0.999  10.130  19.292  0.00  0.00    +0.000 A 
ATOM     20  C   UNL     1      -0.073   9.914  20.164  0.00  0.00    +0.000 A 
ATOM     21  C   UNL     1      -0.701  11.009  20.738  0.00  0.00    +0.000 A 
ATOM     22  N   UNL     1      -0.378  12.305  20.526  0.00  0.00    +0.000 NA
ATOM     23  C   UNL     1       0.653  12.459  19.677  0.00  0.00    +0.000 A 
ATOM     24  N   UNL     1       1.157  13.672  19.297  0.00  0.00    +0.000 N 
ATOM     25  C   UNL     1       2.195  13.490  18.420  0.00  0.00    +0.000 A 
ATOM     26  C   UNL     1       2.360  12.134  18.241  0.00  0.00    +0.000 A 
ATOM     27  C   UNL     1       1.383  11.463  19.035  0.00  0.00    +0.000 A 
ATOM     28  H   UNL     1       0.793  14.555  19.624  0.00  0.00    +0.000 HD
ENDBRANCH  16  19
ENDBRANCH   6  14
BRANCH   1  30
ATOM     29  C   UNL     1       5.309   4.295  15.011  0.00  0.00    +0.000 C 
ATOM     30  C   UNL     1       5.374   3.475  16.291  0.00  0.00    +0.000 C 
ENDBRANCH   1  30
TORSDOF 4
ENDMDL
MODEL 9
REMARK VINA RESULT:      -7.8      2.294      8.020
REMARK  Name = 
REMARK  6 active torsions:
REMARK  status: ('A' for Active; 'I' for Inactive)
REMARK    1  A    between atoms: C_1  and  C_2
REMARK    2  A    between atoms: C_2  and  N_3
REMARK    3  A    between atoms: C_8  and  C_9
REMARK    4  A    between atoms: C_11  and  C_12
REMARK    5  A    between atoms: C_23  and  C_24
REMARK    6  A    between atoms: N_27  and  C_28
REMARK                            x       y       z     vdW  Elec       q    Type
REMARK                         _______ _______ _______ _____ _____    ______ ____
ROOT
ATOM      1  N   UNL     1      -1.038  11.678  20.590  0.00  0.00    +0.000 N 
ATOM      2  C   UNL     1      -0.827  11.405  21.940  0.00  0.00    +0.000 C 
ATOM      3  O   UNL     1      -1.365  12.042  22.847  0.00  0.00    +0.000 OA
ATOM      4  C   UNL     1       0.080  10.214  22.271  0.00  0.00    +0.000 C 
ATOM      5  O   UNL     1       1.006   9.846  21.261  0.00  0.00    +0.000 OA
ATOM      6  C   UNL     1       0.295   9.590  20.044  0.00  0.00    +0.000 C 
ATOM      7  C   UNL     1      -0.364  10.892  19.517  0.00  0.00    +0.000 C 
ENDROOT
BRANCH   7   8
ATOM      8  C   UNL     1      -1.377  10.552  18.456  0.00  0.00    +0.000 A 
ATOM      9  C   UNL     1      -2.488   9.681  18.567  0.00  0.00    +0.000 A 
ATOM     10  N   UNL     1      -3.229   9.658  17.456  0.00  0.00    +0.000 NA
ATOM     11  N   UNL     1      -2.605  10.512  16.631  0.00  0.00    +0.000 N 
ATOM     12  C   UNL     1      -3.157  10.822  15.336  0.00  0.00    +0.000 C 
ATOM     13  C   UNL     1      -1.483  11.060  17.176  0.00  0.00    +0.000 A 
ENDBRANCH   7   8
BRANCH   6  14
ATOM     14  C   UNL     1       1.267   8.997  19.085  0.00  0.00    +0.000 A 
ATOM     15  N   UNL     1       1.874   7.834  19.142  0.00  0.00    +0.000 NA
ATOM     16  C   UNL     1       2.699   7.865  18.041  0.00  0.00    +0.000 A 
ATOM     17  N   UNL     1       2.590   8.991  17.315  0.00  0.00    +0.000 NA
ATOM     18  O   UNL     1       1.637   9.742  18.004  0.00  0.00    +0.000 OA
BRANCH  16  19
ATOM     19  C   UNL     1       3.623   6.792  17.731  0.00  0.00    +0.000 A 
ATOM     20  C   UNL     1       4.971   7.032  17.445  0.00  0.00    +0.000 A 
ATOM     21  C   UNL     1       5.801   5.954  17.177  0.00  0.00    +0.000 A 
ATOM     22  N   UNL     1       5.427   4.655  17.155  0.00  0.00    +0.000 NA
ATOM     23  C   UNL     1       4.122   4.478  17.430  0.00  0.00    +0.000 A 
ATOM     24  N   UNL     1       3.504   3.258  17.456  0.00  0.00    +0.000 N 
ATOM     25  C   UNL     1       2.176   3.417  17.757  0.00  0.00    +0.000 A 
ATOM     26  C   UNL     1       1.943   4.764  17.931  0.00  0.00    +0.000 A 
ATOM     27  C   UNL     1       3.174   5.454  17.724  0.00  0.00    +0.000 A 
ATOM     28  H   UNL     1       3.979   2.388  17.270  0.00  0.00    +0.000 HD
ENDBRANCH  16  19
ENDBRANCH   6  14
BRANCH   1  30
ATOM     29  C   UNL     1      -0.646  13.973  19.734  0.00  0.00    +0.000 C 
ATOM     30  C   UNL     1      -1.660  12.965  20.252  0.00  0.00    +0.000 C 
ENDBRANCH   1  30
TORSDOF 4
ENDMDL
