MODEL 1
REMARK VINA RESULT:      -8.7      0.000      0.000
REMARK  Name = 
REMARK  6 active torsions:
REMARK  status: ('A' for Active; 'I' for Inactive)
REMARK    1  A    between atoms: C_2  and  C_28
REMARK    2  A    between atoms: N_3  and  C_4
REMARK    3  A    between atoms: C_8  and  C_9
REMARK    4  A    between atoms: C_13  and  O_14
REMARK    5  A    between atoms: O_14  and  C_15
REMARK    6  A    between atoms: C_18  and  C_19
REMARK                            x       y       z     vdW  Elec       q    Type
REMARK                         _______ _______ _______ _____ _____    ______ ____
ROOT
ATOM      1  C   UNL     1      -0.373  10.267  20.330  0.00  0.00    +0.000 C 
ATOM      2  C   UNL     1       0.972   9.613  20.687  0.00  0.00    +0.000 C 
ATOM      3  C   UNL     1       2.012   9.631  19.575  0.00  0.00    +0.000 C 
ATOM      4  C   UNL     1       1.398   9.089  18.312  0.00  0.00    +0.000 C 
ATOM      5  C   UNL     1       1.733   7.933  17.707  0.00  0.00    +0.000 C 
ATOM      6  C   UNL     1       0.287   9.968  17.809  0.00  0.00    +0.000 C 
ATOM      7  C   UNL     1      -0.822  10.105  18.856  0.00  0.00    +0.000 C 
ENDROOT
BRANCH   5   8
ATOM      8  C   UNL     1       2.705   6.973  18.237  0.00  0.00    +0.000 A 
ATOM      9  C   UNL     1       2.403   6.159  19.332  0.00  0.00    +0.000 A 
ATOM     10  C   UNL     1       3.347   5.241  19.802  0.00  0.00    +0.000 A 
ATOM     11  C   UNL     1       4.599   5.144  19.190  0.00  0.00    +0.000 A 
ATOM     12  C   UNL     1       4.916   5.976  18.114  0.00  0.00    +0.000 A 
ATOM     13  C   UNL     1       3.957   6.865  17.620  0.00  0.00    +0.000 A 
BRANCH  12  14
ATOM     14  O   UNL     1       6.158   5.801  17.542  0.00  0.00    +0.000 OA
BRANCH  14  15
ATOM     15  C   UNL     1       6.220   5.251  16.268  0.00  0.00    +0.000 A 
ATOM     16  C   UNL     1       5.242   4.326  15.937  0.00  0.00    +0.000 A 
ATOM     17  C   UNL     1       5.263   3.770  14.657  0.00  0.00    +0.000 A 
ATOM     18  C   UNL     1       6.263   4.146  13.755  0.00  0.00    +0.000 A 
ATOM     19  C   UNL     1       7.211   5.058  14.193  0.00  0.00    +0.000 A 
ATOM     20  N   UNL     1       7.222   5.604  15.428  0.00  0.00    +0.000 NA
BRANCH  18  21
ATOM     21  C   UNL     1       6.349   3.618  12.357  0.00  0.00    +0.000 C 
ATOM     22  F   UNL     1       7.253   4.280  11.581  0.00  0.00    +0.000 F 
ATOM     23  F   UNL     1       6.711   2.306  12.316  0.00  0.00    +0.000 F 
ATOM     24  F   UNL     1       5.161   3.699  11.697  0.00  0.00    +0.000 F 
ENDBRANCH  18  21
ENDBRANCH  14  15
ENDBRANCH  12  14
ENDBRANCH   5   8
BRANCH   1  27
ATOM     25  O   UNL     1      -1.428  10.996  22.773  0.00  0.00    +0.000 OA
ATOM     26  C   UNL     1      -0.962  11.896  22.077  0.00  0.00    +0.000 C 
ATOM     27  N   UNL     1      -0.467  11.657  20.800  0.00  0.00    +0.000 N 
ATOM     28  H   UNL     1       0.039  12.370  20.293  0.00  0.00    +0.000 HD
BRANCH  26  29
ATOM     29  C   UNL     1      -0.925  13.269  22.647  0.00  0.00    +0.000 A 
ATOM     30  C   UNL     1      -0.058  14.204  22.060  0.00  0.00    +0.000 A 
ATOM     31  C   UNL     1       0.066  15.487  22.590  0.00  0.00    +0.000 A 
ATOM     32  C   UNL     1      -0.702  15.794  23.699  0.00  0.00    +0.000 A 
ATOM     33 CL   UNL     1      -0.583  17.331  24.448  0.00  0.00    +0.000 Cl
ATOM     34  N   UNL     1      -1.566  14.938  24.287  0.00  0.00    +0.000 NA
ATOM     35  C   UNL     1      -1.656  13.692  23.748  0.00  0.00    +0.000 A 
ENDBRANCH  26  29
ENDBRANCH   1  27
TORSDOF 6
ENDMDL
MODEL 2
REMARK VINA RESULT:      -8.2      0.735      1.382
REMARK  Name = 
REMARK  6 active torsions:
REMARK  status: ('A' for Active; 'I' for Inactive)
REMARK    1  A    between atoms: C_2  and  C_28
REMARK    2  A    between atoms: N_3  and  C_4
REMARK    3  A    between atoms: C_8  and  C_9
REMARK    4  A    between atoms: C_13  and  O_14
REMARK    5  A    between atoms: O_14  and  C_15
REMARK    6  A    between atoms: C_18  and  C_19
REMARK                            x       y       z     vdW  Elec       q    Type
REMARK                         _______ _______ _______ _____ _____    ______ ____
ROOT
ATOM      1  C   UNL     1      -0.606  10.206  20.166  0.00  0.00    +0.000 C 
ATOM      2  C   UNL     1       0.624   9.452  20.698  0.00  0.00    +0.000 C 
ATOM      3  C   UNL     1       1.850   9.501  19.796  0.00  0.00    +0.000 C 
ATOM      4  C   UNL     1       1.456   9.098  18.401  0.00  0.00    +0.000 C 
ATOM      5  C   UNL     1       1.850   7.978  17.765  0.00  0.00    +0.000 C 
ATOM      6  C   UNL     1       0.492  10.075  17.787  0.00  0.00    +0.000 C 
ATOM      7  C   UNL     1      -0.783  10.189  18.627  0.00  0.00    +0.000 C 
ENDROOT
BRANCH   5   8
ATOM      8  C   UNL     1       2.669   6.926  18.372  0.00  0.00    +0.000 A 
ATOM      9  C   UNL     1       2.233   6.219  19.496  0.00  0.00    +0.000 A 
ATOM     10  C   UNL     1       3.031   5.209  20.041  0.00  0.00    +0.000 A 
ATOM     11  C   UNL     1       4.273   4.913  19.475  0.00  0.00    +0.000 A 
ATOM     12  C   UNL     1       4.727   5.635  18.370  0.00  0.00    +0.000 A 
ATOM     13  C   UNL     1       3.910   6.617  17.802  0.00  0.00    +0.000 A 
BRANCH  12  14
ATOM     14  O   UNL     1       5.948   5.265  17.847  0.00  0.00    +0.000 OA
BRANCH  14  15
ATOM     15  C   UNL     1       5.997   4.873  16.515  0.00  0.00    +0.000 A 
ATOM     16  C   UNL     1       7.113   5.262  15.789  0.00  0.00    +0.000 A 
ATOM     17  C   UNL     1       7.204   4.867  14.454  0.00  0.00    +0.000 A 
ATOM     18  C   UNL     1       6.177   4.107  13.885  0.00  0.00    +0.000 A 
ATOM     19  C   UNL     1       5.091   3.793  14.688  0.00  0.00    +0.000 A 
ATOM     20  N   UNL     1       4.972   4.172  15.979  0.00  0.00    +0.000 NA
BRANCH  18  21
ATOM     21  C   UNL     1       6.203   3.621  12.469  0.00  0.00    +0.000 C 
ATOM     22  F   UNL     1       4.968   3.554  11.896  0.00  0.00    +0.000 F 
ATOM     23  F   UNL     1       6.949   4.419  11.657  0.00  0.00    +0.000 F 
ATOM     24  F   UNL     1       6.734   2.373  12.357  0.00  0.00    +0.000 F 
ENDBRANCH  18  21
ENDBRANCH  14  15
ENDBRANCH  12  14
ENDBRANCH   5   8
BRANCH   1  27
ATOM     25  O   UNL     1      -1.268  10.713  22.796  0.00  0.00    +0.000 OA
ATOM     26  C   UNL     1      -1.007  11.687  22.090  0.00  0.00    +0.000 C 
ATOM     27  N   UNL     1      -0.728  11.557  20.734  0.00  0.00    +0.000 N 
ATOM     28  H   UNL     1      -0.379  12.337  20.195  0.00  0.00    +0.000 HD
BRANCH  26  29
ATOM     29  C   UNL     1      -0.982  13.027  22.733  0.00  0.00    +0.000 A 
ATOM     30  C   UNL     1      -1.982  13.328  23.670  0.00  0.00    +0.000 A 
ATOM     31  C   UNL     1      -2.046  14.590  24.258  0.00  0.00    +0.000 A 
ATOM     32  C   UNL     1      -1.087  15.515  23.887  0.00  0.00    +0.000 A 
ATOM     33 CL   UNL     1      -1.112  17.107  24.522  0.00  0.00    +0.000 Cl
ATOM     34  N   UNL     1      -0.092  15.267  23.007  0.00  0.00    +0.000 NA
ATOM     35  C   UNL     1      -0.064  14.027  22.447  0.00  0.00    +0.000 A 
ENDBRANCH  26  29
ENDBRANCH   1  27
TORSDOF 6
ENDMDL
MODEL 3
REMARK VINA RESULT:      -8.1      1.389      1.641
REMARK  Name = 
REMARK  6 active torsions:
REMARK  status: ('A' for Active; 'I' for Inactive)
REMARK    1  A    between atoms: C_2  and  C_28
REMARK    2  A    between atoms: N_3  and  C_4
REMARK    3  A    between atoms: C_8  and  C_9
REMARK    4  A    between atoms: C_13  and  O_14
REMARK    5  A    between atoms: O_14  and  C_15
REMARK    6  A    between atoms: C_18  and  C_19
REMARK                            x       y       z     vdW  Elec       q    Type
REMARK                         _______ _______ _______ _____ _____    ______ ____
ROOT
ATOM      1  C   UNL     1      -0.525   9.976  19.967  0.00  0.00    +0.000 C 
ATOM      2  C   UNL     1       0.304   8.804  20.519  0.00  0.00    +0.000 C 
ATOM      3  C   UNL     1       1.793   8.865  20.205  0.00  0.00    +0.000 C 
ATOM      4  C   UNL     1       1.981   9.092  18.730  0.00  0.00    +0.000 C 
ATOM      5  C   UNL     1       2.506   8.209  17.858  0.00  0.00    +0.000 C 
ATOM      6  C   UNL     1       1.445  10.428  18.296  0.00  0.00    +0.000 C 
ATOM      7  C   UNL     1      -0.049  10.548  18.609  0.00  0.00    +0.000 C 
ENDROOT
BRANCH   5   8
ATOM      8  C   UNL     1       2.907   6.843  18.205  0.00  0.00    +0.000 A 
ATOM      9  C   UNL     1       2.058   5.992  18.918  0.00  0.00    +0.000 A 
ATOM     10  C   UNL     1       2.464   4.689  19.218  0.00  0.00    +0.000 A 
ATOM     11  C   UNL     1       3.724   4.236  18.820  0.00  0.00    +0.000 A 
ATOM     12  C   UNL     1       4.589   5.092  18.133  0.00  0.00    +0.000 A 
ATOM     13  C   UNL     1       4.165   6.381  17.799  0.00  0.00    +0.000 A 
BRANCH  12  14
ATOM     14  O   UNL     1       5.802   4.565  17.746  0.00  0.00    +0.000 OA
BRANCH  14  15
ATOM     15  C   UNL     1       6.045   4.409  16.387  0.00  0.00    +0.000 A 
ATOM     16  C   UNL     1       5.022   3.860  15.628  0.00  0.00    +0.000 A 
ATOM     17  C   UNL     1       5.225   3.709  14.256  0.00  0.00    +0.000 A 
ATOM     18  C   UNL     1       6.443   4.099  13.689  0.00  0.00    +0.000 A 
ATOM     19  C   UNL     1       7.411   4.612  14.539  0.00  0.00    +0.000 A 
ATOM     20  N   UNL     1       7.246   4.759  15.871  0.00  0.00    +0.000 NA
BRANCH  18  21
ATOM     21  C   UNL     1       6.737   3.994  12.225  0.00  0.00    +0.000 C 
ATOM     22  F   UNL     1       7.490   5.025  11.747  0.00  0.00    +0.000 F 
ATOM     23  F   UNL     1       7.418   2.858  11.910  0.00  0.00    +0.000 F 
ATOM     24  F   UNL     1       5.607   3.975  11.467  0.00  0.00    +0.000 F 
ENDBRANCH  18  21
ENDBRANCH  14  15
ENDBRANCH  12  14
ENDBRANCH   5   8
BRANCH   1  27
ATOM     25  O   UNL     1      -2.673  11.708  19.913  0.00  0.00    +0.000 OA
ATOM     26  C   UNL     1      -1.910  11.797  20.874  0.00  0.00    +0.000 C 
ATOM     27  N   UNL     1      -0.758  11.024  20.972  0.00  0.00    +0.000 N 
ATOM     28  H   UNL     1      -0.214  11.001  21.824  0.00  0.00    +0.000 HD
BRANCH  26  29
ATOM     29  C   UNL     1      -2.259  12.756  21.955  0.00  0.00    +0.000 A 
ATOM     30  C   UNL     1      -3.018  12.284  23.036  0.00  0.00    +0.000 A 
ATOM     31  C   UNL     1      -3.429  13.151  24.047  0.00  0.00    +0.000 A 
ATOM     32  C   UNL     1      -3.049  14.477  23.942  0.00  0.00    +0.000 A 
ATOM     33 CL   UNL     1      -3.545  15.627  25.113  0.00  0.00    +0.000 Cl
ATOM     34  N   UNL     1      -2.301  14.976  22.934  0.00  0.00    +0.000 NA
ATOM     35  C   UNL     1      -1.924  14.103  21.961  0.00  0.00    +0.000 A 
ENDBRANCH  26  29
ENDBRANCH   1  27
TORSDOF 6
ENDMDL
MODEL 4
REMARK VINA RESULT:      -7.9      1.316      1.504
REMARK  Name = 
REMARK  6 active torsions:
REMARK  status: ('A' for Active; 'I' for Inactive)
REMARK    1  A    between atoms: C_2  and  C_28
REMARK    2  A    between atoms: N_3  and  C_4
REMARK    3  A    between atoms: C_8  and  C_9
REMARK    4  A    between atoms: C_13  and  O_14
REMARK    5  A    between atoms: O_14  and  C_15
REMARK    6  A    between atoms: C_18  and  C_19
REMARK                            x       y       z     vdW  Elec       q    Type
REMARK                         _______ _______ _______ _____ _____    ______ ____
ROOT
ATOM      1  C   UNL     1      -0.637  10.051  20.138  0.00  0.00    +0.000 C 
ATOM      2  C   UNL     1       0.272   8.921  20.651  0.00  0.00    +0.000 C 
ATOM      3  C   UNL     1       1.732   9.030  20.234  0.00  0.00    +0.000 C 
ATOM      4  C   UNL     1       1.809   9.232  18.744  0.00  0.00    +0.000 C 
ATOM      5  C   UNL     1       2.306   8.351  17.855  0.00  0.00    +0.000 C 
ATOM      6  C   UNL     1       1.196  10.539  18.325  0.00  0.00    +0.000 C 
ATOM      7  C   UNL     1      -0.277  10.612  18.739  0.00  0.00    +0.000 C 
ENDROOT
BRANCH   5   8
ATOM      8  C   UNL     1       2.780   7.008  18.197  0.00  0.00    +0.000 A 
ATOM      9  C   UNL     1       1.993   6.123  18.940  0.00  0.00    +0.000 A 
ATOM     10  C   UNL     1       2.468   4.842  19.235  0.00  0.00    +0.000 A 
ATOM     11  C   UNL     1       3.736   4.446  18.803  0.00  0.00    +0.000 A 
ATOM     12  C   UNL     1       4.539   5.336  18.086  0.00  0.00    +0.000 A 
ATOM     13  C   UNL     1       4.045   6.602  17.757  0.00  0.00    +0.000 A 
BRANCH  12  14
ATOM     14  O   UNL     1       5.764   4.863  17.666  0.00  0.00    +0.000 OA
BRANCH  14  15
ATOM     15  C   UNL     1       5.933   4.593  16.313  0.00  0.00    +0.000 A 
ATOM     16  C   UNL     1       7.090   5.071  15.719  0.00  0.00    +0.000 A 
ATOM     17  C   UNL     1       7.301   4.798  14.367  0.00  0.00    +0.000 A 
ATOM     18  C   UNL     1       6.347   4.068  13.651  0.00  0.00    +0.000 A 
ATOM     19  C   UNL     1       5.210   3.658  14.331  0.00  0.00    +0.000 A 
ATOM     20  N   UNL     1       4.975   3.917  15.636  0.00  0.00    +0.000 NA
BRANCH  18  21
ATOM     21  C   UNL     1       6.501   3.711  12.206  0.00  0.00    +0.000 C 
ATOM     22  F   UNL     1       7.252   4.606  11.503  0.00  0.00    +0.000 F 
ATOM     23  F   UNL     1       7.099   2.501  12.027  0.00  0.00    +0.000 F 
ATOM     24  F   UNL     1       5.307   3.637  11.557  0.00  0.00    +0.000 F 
ENDBRANCH  18  21
ENDBRANCH  14  15
ENDBRANCH  12  14
ENDBRANCH   5   8
BRANCH   1  27
ATOM     25  O   UNL     1      -2.578  12.002  19.940  0.00  0.00    +0.000 OA
ATOM     26  C   UNL     1      -1.890  12.003  20.960  0.00  0.00    +0.000 C 
ATOM     27  N   UNL     1      -0.837  11.111  21.137  0.00  0.00    +0.000 N 
ATOM     28  H   UNL     1      -0.370  11.024  22.028  0.00  0.00    +0.000 HD
BRANCH  26  29
ATOM     29  C   UNL     1      -2.223  12.986  22.024  0.00  0.00    +0.000 A 
ATOM     30  C   UNL     1      -1.656  14.267  21.940  0.00  0.00    +0.000 A 
ATOM     31  C   UNL     1      -1.880  15.210  22.941  0.00  0.00    +0.000 A 
ATOM     32  C   UNL     1      -2.685  14.833  24.001  0.00  0.00    +0.000 A 
ATOM     33 CL   UNL     1      -2.982  15.909  25.302  0.00  0.00    +0.000 Cl
ATOM     34  N   UNL     1      -3.272  13.621  24.117  0.00  0.00    +0.000 NA
ATOM     35  C   UNL     1      -3.024  12.723  23.126  0.00  0.00    +0.000 A 
ENDBRANCH  26  29
ENDBRANCH   1  27
TORSDOF 6
ENDMDL
MODEL 5
REMARK VINA RESULT:      -7.8      5.213     10.416
REMARK  Name = 
REMARK  6 active torsions:
REMARK  status: ('A' for Active; 'I' for Inactive)
REMARK    1  A    between atoms: C_2  and  C_28
REMARK    2  A    between atoms: N_3  and  C_4
REMARK    3  A    between atoms: C_8  and  C_9
REMARK    4  A    between atoms: C_13  and  O_14
REMARK    5  A    between atoms: O_14  and  C_15
REMARK    6  A    between atoms: C_18  and  C_19
REMARK                            x       y       z     vdW  Elec       q    Type
REMARK                         _______ _______ _______ _____ _____    ______ ____
ROOT
ATOM      1  C   UNL     1       0.821   8.466  20.100  0.00  0.00    +0.000 C 
ATOM      2  C   UNL     1       0.425   9.925  19.815  0.00  0.00    +0.000 C 
ATOM      3  C   UNL     1       0.798  10.917  20.908  0.00  0.00    +0.000 C 
ATOM      4  C   UNL     1       0.299  10.408  22.233  0.00  0.00    +0.000 C 
ATOM      5  C   UNL     1      -0.677  10.967  22.974  0.00  0.00    +0.000 C 
ATOM      6  C   UNL     1       0.980   9.129  22.633  0.00  0.00    +0.000 C 
ATOM      7  C   UNL     1       0.751   8.034  21.586  0.00  0.00    +0.000 C 
ENDROOT
BRANCH   5   8
ATOM      8  C   UNL     1      -1.469  12.127  22.560  0.00  0.00    +0.000 A 
ATOM      9  C   UNL     1      -1.184  13.412  23.032  0.00  0.00    +0.000 A 
ATOM     10  C   UNL     1      -1.948  14.501  22.604  0.00  0.00    +0.000 A 
ATOM     11  C   UNL     1      -3.008  14.309  21.715  0.00  0.00    +0.000 A 
ATOM     12  C   UNL     1      -3.317  13.024  21.262  0.00  0.00    +0.000 A 
ATOM     13  C   UNL     1      -2.526  11.942  21.660  0.00  0.00    +0.000 A 
BRANCH  12  14
ATOM     14  O   UNL     1      -4.356  12.918  20.363  0.00  0.00    +0.000 OA
BRANCH  14  15
ATOM     15  C   UNL     1      -4.117  12.260  19.162  0.00  0.00    +0.000 A 
ATOM     16  C   UNL     1      -2.791  12.081  18.799  0.00  0.00    +0.000 A 
ATOM     17  C   UNL     1      -2.517  11.406  17.609  0.00  0.00    +0.000 A 
ATOM     18  C   UNL     1      -3.572  10.942  16.817  0.00  0.00    +0.000 A 
ATOM     19  C   UNL     1      -4.863  11.195  17.256  0.00  0.00    +0.000 A 
ATOM     20  N   UNL     1      -5.157  11.855  18.396  0.00  0.00    +0.000 NA
BRANCH  18  21
ATOM     21  C   UNL     1      -3.369  10.189  15.539  0.00  0.00    +0.000 C 
ATOM     22  F   UNL     1      -4.448  10.231  14.707  0.00  0.00    +0.000 F 
ATOM     23  F   UNL     1      -2.320  10.665  14.814  0.00  0.00    +0.000 F 
ATOM     24  F   UNL     1      -3.110   8.869  15.748  0.00  0.00    +0.000 F 
ENDBRANCH  18  21
ENDBRANCH  14  15
ENDBRANCH  12  14
ENDBRANCH   5   8
BRANCH   1  27
ATOM     25  O   UNL     1       1.812   5.891  20.043  0.00  0.00    +0.000 OA
ATOM     26  C   UNL     1       2.457   6.749  19.443  0.00  0.00    +0.000 C 
ATOM     27  N   UNL     1       2.092   8.091  19.462  0.00  0.00    +0.000 N 
ATOM     28  H   UNL     1       2.541   8.764  18.857  0.00  0.00    +0.000 HD
BRANCH  26  29
ATOM     29  C   UNL     1       3.651   6.312  18.673  0.00  0.00    +0.000 A 
ATOM     30  C   UNL     1       3.928   6.961  17.459  0.00  0.00    +0.000 A 
ATOM     31  C   UNL     1       4.996   6.552  16.663  0.00  0.00    +0.000 A 
ATOM     32  C   UNL     1       5.766   5.499  17.123  0.00  0.00    +0.000 A 
ATOM     33 CL   UNL     1       7.073   4.897  16.192  0.00  0.00    +0.000 Cl
ATOM     34  N   UNL     1       5.555   4.857  18.293  0.00  0.00    +0.000 NA
ATOM     35  C   UNL     1       4.499   5.278  19.041  0.00  0.00    +0.000 A 
ENDBRANCH  26  29
ENDBRANCH   1  27
TORSDOF 6
ENDMDL
MODEL 6
REMARK VINA RESULT:      -7.8      5.774     10.820
REMARK  Name = 
REMARK  6 active torsions:
REMARK  status: ('A' for Active; 'I' for Inactive)
REMARK    1  A    between atoms: C_2  and  C_28
REMARK    2  A    between atoms: N_3  and  C_4
REMARK    3  A    between atoms: C_8  and  C_9
REMARK    4  A    between atoms: C_13  and  O_14
REMARK    5  A    between atoms: O_14  and  C_15
REMARK    6  A    between atoms: C_18  and  C_19
REMARK                            x       y       z     vdW  Elec       q    Type
REMARK                         _______ _______ _______ _____ _____    ______ ____
ROOT
ATOM      1  C   UNL     1       1.539   9.128  19.232  0.00  0.00    +0.000 C 
ATOM      2  C   UNL     1       1.113   9.592  20.635  0.00  0.00    +0.000 C 
ATOM      3  C   UNL     1      -0.381   9.829  20.808  0.00  0.00    +0.000 C 
ATOM      4  C   UNL     1      -0.872  10.727  19.705  0.00  0.00    +0.000 C 
ATOM      5  C   UNL     1      -1.324  11.987  19.857  0.00  0.00    +0.000 C 
ATOM      6  C   UNL     1      -0.743  10.077  18.355  0.00  0.00    +0.000 C 
ATOM      7  C   UNL     1       0.714   9.712  18.058  0.00  0.00    +0.000 C 
ENDROOT
BRANCH   5   8
ATOM      8  C   UNL     1      -1.332  12.715  21.128  0.00  0.00    +0.000 A 
ATOM      9  C   UNL     1      -2.338  12.514  22.077  0.00  0.00    +0.000 A 
ATOM     10  C   UNL     1      -2.307  13.212  23.288  0.00  0.00    +0.000 A 
ATOM     11  C   UNL     1      -1.281  14.123  23.548  0.00  0.00    +0.000 A 
ATOM     12  C   UNL     1      -0.289  14.349  22.592  0.00  0.00    +0.000 A 
ATOM     13  C   UNL     1      -0.299  13.620  21.399  0.00  0.00    +0.000 A 
BRANCH  12  14
ATOM     14  O   UNL     1       0.708  15.238  22.932  0.00  0.00    +0.000 OA
BRANCH  14  15
ATOM     15  C   UNL     1       1.781  15.383  22.061  0.00  0.00    +0.000 A 
ATOM     16  C   UNL     1       1.694  16.403  21.126  0.00  0.00    +0.000 A 
ATOM     17  C   UNL     1       2.764  16.589  20.249  0.00  0.00    +0.000 A 
ATOM     18  C   UNL     1       3.879  15.748  20.328  0.00  0.00    +0.000 A 
ATOM     19  C   UNL     1       3.856  14.742  21.282  0.00  0.00    +0.000 A 
ATOM     20  N   UNL     1       2.830  14.532  22.135  0.00  0.00    +0.000 NA
BRANCH  18  21
ATOM     21  C   UNL     1       5.078  15.891  19.445  0.00  0.00    +0.000 C 
ATOM     22  F   UNL     1       4.976  16.915  18.551  0.00  0.00    +0.000 F 
ATOM     23  F   UNL     1       6.220  16.122  20.148  0.00  0.00    +0.000 F 
ATOM     24  F   UNL     1       5.316  14.773  18.705  0.00  0.00    +0.000 F 
ENDBRANCH  18  21
ENDBRANCH  14  15
ENDBRANCH  12  14
ENDBRANCH   5   8
BRANCH   1  27
ATOM     25  O   UNL     1       3.415   7.877  17.642  0.00  0.00    +0.000 OA
ATOM     26  C   UNL     1       2.719   7.156  18.353  0.00  0.00    +0.000 C 
ATOM     27  N   UNL     1       1.696   7.669  19.143  0.00  0.00    +0.000 N 
ATOM     28  H   UNL     1       1.224   7.094  19.827  0.00  0.00    +0.000 HD
BRANCH  26  29
ATOM     29  C   UNL     1       3.009   5.698  18.363  0.00  0.00    +0.000 A 
ATOM     30  C   UNL     1       2.061   4.833  17.794  0.00  0.00    +0.000 A 
ATOM     31  C   UNL     1       2.248   3.452  17.830  0.00  0.00    +0.000 A 
ATOM     32  C   UNL     1       3.400   2.982  18.434  0.00  0.00    +0.000 A 
ATOM     33 CL   UNL     1       3.696   1.299  18.565  0.00  0.00    +0.000 Cl
ATOM     34  N   UNL     1       4.353   3.773  18.974  0.00  0.00    +0.000 NA
ATOM     35  C   UNL     1       4.133   5.115  18.929  0.00  0.00    +0.000 A 
ENDBRANCH  26  29
ENDBRANCH   1  27
TORSDOF 6
ENDMDL
MODEL 7
REMARK VINA RESULT:      -7.7      5.130     10.390
REMARK  Name = 
REMARK  6 active torsions:
REMARK  status: ('A' for Active; 'I' for Inactive)
REMARK    1  A    between atoms: C_2  and  C_28
REMARK    2  A    between atoms: N_3  and  C_4
REMARK    3  A    between atoms: C_8  and  C_9
REMARK    4  A    between atoms: C_13  and  O_14
REMARK    5  A    between atoms: O_14  and  C_15
REMARK    6  A    between atoms: C_18  and  C_19
REMARK                            x       y       z     vdW  Elec       q    Type
REMARK                         _______ _______ _______ _____ _____    ______ ____
ROOT
ATOM      1  C   UNL     1       0.857   8.465  20.121  0.00  0.00    +0.000 C 
ATOM      2  C   UNL     1       0.497   9.934  19.844  0.00  0.00    +0.000 C 
ATOM      3  C   UNL     1       0.848  10.905  20.963  0.00  0.00    +0.000 C 
ATOM      4  C   UNL     1       0.294  10.386  22.262  0.00  0.00    +0.000 C 
ATOM      5  C   UNL     1      -0.698  10.952  22.977  0.00  0.00    +0.000 C 
ATOM      6  C   UNL     1       0.939   9.090  22.667  0.00  0.00    +0.000 C 
ATOM      7  C   UNL     1       0.728   8.014  21.597  0.00  0.00    +0.000 C 
ENDROOT
BRANCH   5   8
ATOM      8  C   UNL     1      -1.455  12.132  22.552  0.00  0.00    +0.000 A 
ATOM      9  C   UNL     1      -1.151  13.407  23.037  0.00  0.00    +0.000 A 
ATOM     10  C   UNL     1      -1.881  14.515  22.598  0.00  0.00    +0.000 A 
ATOM     11  C   UNL     1      -2.927  14.351  21.687  0.00  0.00    +0.000 A 
ATOM     12  C   UNL     1      -3.254  13.076  21.222  0.00  0.00    +0.000 A 
ATOM     13  C   UNL     1      -2.496  11.974  21.630  0.00  0.00    +0.000 A 
BRANCH  12  14
ATOM     14  O   UNL     1      -4.277  12.997  20.300  0.00  0.00    +0.000 OA
BRANCH  14  15
ATOM     15  C   UNL     1      -4.046  12.291  19.126  0.00  0.00    +0.000 A 
ATOM     16  C   UNL     1      -5.154  11.742  18.498  0.00  0.00    +0.000 A 
ATOM     17  C   UNL     1      -4.960  11.045  17.305  0.00  0.00    +0.000 A 
ATOM     18  C   UNL     1      -3.668  10.910  16.784  0.00  0.00    +0.000 A 
ATOM     19  C   UNL     1      -2.625  11.473  17.502  0.00  0.00    +0.000 A 
ATOM     20  N   UNL     1      -2.783  12.143  18.664  0.00  0.00    +0.000 NA
BRANCH  18  21
ATOM     21  C   UNL     1      -3.372  10.199  15.500  0.00  0.00    +0.000 C 
ATOM     22  F   UNL     1      -2.952   8.914  15.676  0.00  0.00    +0.000 F 
ATOM     23  F   UNL     1      -4.456  10.129  14.679  0.00  0.00    +0.000 F 
ATOM     24  F   UNL     1      -2.396  10.814  14.778  0.00  0.00    +0.000 F 
ENDBRANCH  18  21
ENDBRANCH  14  15
ENDBRANCH  12  14
ENDBRANCH   5   8
BRANCH   1  27
ATOM     25  O   UNL     1       1.783   5.868  20.017  0.00  0.00    +0.000 OA
ATOM     26  C   UNL     1       2.474   6.727  19.473  0.00  0.00    +0.000 C 
ATOM     27  N   UNL     1       2.143   8.077  19.522  0.00  0.00    +0.000 N 
ATOM     28  H   UNL     1       2.634   8.757  18.958  0.00  0.00    +0.000 HD
BRANCH  26  29
ATOM     29  C   UNL     1       3.687   6.283  18.736  0.00  0.00    +0.000 A 
ATOM     30  C   UNL     1       3.956   6.872  17.491  0.00  0.00    +0.000 A 
ATOM     31  C   UNL     1       5.042   6.451  16.727  0.00  0.00    +0.000 A 
ATOM     32  C   UNL     1       5.838   5.448  17.250  0.00  0.00    +0.000 A 
ATOM     33 CL   UNL     1       7.170   4.834  16.363  0.00  0.00    +0.000 Cl
ATOM     34  N   UNL     1       5.635   4.865  18.451  0.00  0.00    +0.000 NA
ATOM     35  C   UNL     1       4.560   5.295  19.167  0.00  0.00    +0.000 A 
ENDBRANCH  26  29
ENDBRANCH   1  27
TORSDOF 6
ENDMDL
MODEL 8
REMARK VINA RESULT:      -7.6      6.022     10.051
REMARK  Name = 
REMARK  6 active torsions:
REMARK  status: ('A' for Active; 'I' for Inactive)
REMARK    1  A    between atoms: C_2  and  C_28
REMARK    2  A    between atoms: N_3  and  C_4
REMARK    3  A    between atoms: C_8  and  C_9
REMARK    4  A    between atoms: C_13  and  O_14
REMARK    5  A    between atoms: O_14  and  C_15
REMARK    6  A    between atoms: C_18  and  C_19
REMARK                            x       y       z     vdW  Elec       q    Type
REMARK                         _______ _______ _______ _____ _____    ______ ____
ROOT
ATOM      1  C   UNL     1       0.620  10.798  18.686  0.00  0.00    +0.000 C 
ATOM      2  C   UNL     1       1.524  11.916  19.231  0.00  0.00    +0.000 C 
ATOM      3  C   UNL     1       1.044  12.558  20.526  0.00  0.00    +0.000 C 
ATOM      4  C   UNL     1      -0.395  12.970  20.372  0.00  0.00    +0.000 C 
ATOM      5  C   UNL     1      -0.853  14.237  20.348  0.00  0.00    +0.000 C 
ATOM      6  C   UNL     1      -1.299  11.785  20.177  0.00  0.00    +0.000 C 
ATOM      7  C   UNL     1      -0.898  10.987  18.933  0.00  0.00    +0.000 C 
ENDROOT
BRANCH   5   8
ATOM      8  C   UNL     1       0.002  15.426  20.388  0.00  0.00    +0.000 A 
ATOM      9  C   UNL     1      -0.014  16.300  21.479  0.00  0.00    +0.000 A 
ATOM     10  C   UNL     1       0.827  17.417  21.493  0.00  0.00    +0.000 A 
ATOM     11  C   UNL     1       1.674  17.673  20.413  0.00  0.00    +0.000 A 
ATOM     12  C   UNL     1       1.673  16.820  19.307  0.00  0.00    +0.000 A 
ATOM     13  C   UNL     1       0.861  15.681  19.312  0.00  0.00    +0.000 A 
BRANCH  12  14
ATOM     14  O   UNL     1       2.557  17.119  18.293  0.00  0.00    +0.000 OA
BRANCH  14  15
ATOM     15  C   UNL     1       3.792  16.481  18.292  0.00  0.00    +0.000 A 
ATOM     16  C   UNL     1       3.816  15.165  17.858  0.00  0.00    +0.000 A 
ATOM     17  C   UNL     1       5.043  14.502  17.825  0.00  0.00    +0.000 A 
ATOM     18  C   UNL     1       6.202  15.169  18.235  0.00  0.00    +0.000 A 
ATOM     19  C   UNL     1       6.067  16.476  18.677  0.00  0.00    +0.000 A 
ATOM     20  N   UNL     1       4.891  17.138  18.730  0.00  0.00    +0.000 NA
BRANCH  18  21
ATOM     21  C   UNL     1       7.562  14.543  18.210  0.00  0.00    +0.000 C 
ATOM     22  F   UNL     1       7.980  14.105  19.432  0.00  0.00    +0.000 F 
ATOM     23  F   UNL     1       7.624  13.461  17.385  0.00  0.00    +0.000 F 
ATOM     24  F   UNL     1       8.523  15.402  17.773  0.00  0.00    +0.000 F 
ENDBRANCH  18  21
ENDBRANCH  14  15
ENDBRANCH  12  14
ENDBRANCH   5   8
BRANCH   1  27
ATOM     25  O   UNL     1       2.206   9.215  17.076  0.00  0.00    +0.000 OA
ATOM     26  C   UNL     1       1.938   8.778  18.195  0.00  0.00    +0.000 C 
ATOM     27  N   UNL     1       1.091   9.457  19.065  0.00  0.00    +0.000 N 
ATOM     28  H   UNL     1       0.987   9.167  20.027  0.00  0.00    +0.000 HD
BRANCH  26  29
ATOM     29  C   UNL     1       2.560   7.494  18.610  0.00  0.00    +0.000 A 
ATOM     30  C   UNL     1       3.551   6.943  17.783  0.00  0.00    +0.000 A 
ATOM     31  C   UNL     1       4.125   5.710  18.088  0.00  0.00    +0.000 A 
ATOM     32  C   UNL     1       3.687   5.070  19.233  0.00  0.00    +0.000 A 
ATOM     33 CL   UNL     1       4.302   3.530  19.665  0.00  0.00    +0.000 Cl
ATOM     34  N   UNL     1       2.754   5.568  20.073  0.00  0.00    +0.000 NA
ATOM     35  C   UNL     1       2.209   6.770  19.740  0.00  0.00    +0.000 A 
ENDBRANCH  26  29
ENDBRANCH   1  27
TORSDOF 6
ENDMDL
MODEL 9
REMARK VINA RESULT:      -7.6      6.138      9.977
REMARK  Name = 
REMARK  6 active torsions:
REMARK  status: ('A' for Active; 'I' for Inactive)
REMARK    1  A    between atoms: C_2  and  C_28
REMARK    2  A    between atoms: N_3  and  C_4
REMARK    3  A    between atoms: C_8  and  C_9
REMARK    4  A    between atoms: C_13  and  O_14
REMARK    5  A    between atoms: O_14  and  C_15
REMARK    6  A    between atoms: C_18  and  C_19
REMARK                            x       y       z     vdW  Elec       q    Type
REMARK                         _______ _______ _______ _____ _____    ______ ____
ROOT
ATOM      1  C   UNL     1       0.421  10.632  19.281  0.00  0.00    +0.000 C 
ATOM      2  C   UNL     1       1.271  11.785  18.720  0.00  0.00    +0.000 C 
ATOM      3  C   UNL     1       1.766  12.783  19.758  0.00  0.00    +0.000 C 
ATOM      4  C   UNL     1       0.605  13.246  20.596  0.00  0.00    +0.000 C 
ATOM      5  C   UNL     1       0.091  14.490  20.610  0.00  0.00    +0.000 C 
ATOM      6  C   UNL     1       0.013  12.122  21.401  0.00  0.00    +0.000 C 
ATOM      7  C   UNL     1      -0.479  10.994  20.489  0.00  0.00    +0.000 C 
ENDROOT
BRANCH   5   8
ATOM      8  C   UNL     1       0.539  15.580  19.738  0.00  0.00    +0.000 A 
ATOM      9  C   UNL     1      -0.330  16.190  18.828  0.00  0.00    +0.000 A 
ATOM     10  C   UNL     1       0.125  17.239  18.024  0.00  0.00    +0.000 A 
ATOM     11  C   UNL     1       1.450  17.671  18.114  0.00  0.00    +0.000 A 
ATOM     12  C   UNL     1       2.329  17.046  19.000  0.00  0.00    +0.000 A 
ATOM     13  C   UNL     1       1.862  16.024  19.833  0.00  0.00    +0.000 A 
BRANCH  12  14
ATOM     14  O   UNL     1       3.612  17.548  19.057  0.00  0.00    +0.000 OA
BRANCH  14  15
ATOM     15  C   UNL     1       4.668  16.674  18.826  0.00  0.00    +0.000 A 
ATOM     16  C   UNL     1       4.389  15.538  18.081  0.00  0.00    +0.000 A 
ATOM     17  C   UNL     1       5.431  14.651  17.813  0.00  0.00    +0.000 A 
ATOM     18  C   UNL     1       6.713  14.918  18.306  0.00  0.00    +0.000 A 
ATOM     19  C   UNL     1       6.881  16.067  19.064  0.00  0.00    +0.000 A 
ATOM     20  N   UNL     1       5.888  16.938  19.347  0.00  0.00    +0.000 NA
BRANCH  18  21
ATOM     21  C   UNL     1       7.892  14.034  18.049  0.00  0.00    +0.000 C 
ATOM     22  F   UNL     1       8.977  14.702  17.564  0.00  0.00    +0.000 F 
ATOM     23  F   UNL     1       8.320  13.394  19.172  0.00  0.00    +0.000 F 
ATOM     24  F   UNL     1       7.621  13.055  17.142  0.00  0.00    +0.000 F 
ENDBRANCH  18  21
ENDBRANCH  14  15
ENDBRANCH  12  14
ENDBRANCH   5   8
BRANCH   1  27
ATOM     25  O   UNL     1       1.363   9.015  17.253  0.00  0.00    +0.000 OA
ATOM     26  C   UNL     1       1.680   8.709  18.402  0.00  0.00    +0.000 C 
ATOM     27  N   UNL     1       1.207   9.410  19.506  0.00  0.00    +0.000 N 
ATOM     28  H   UNL     1       1.579   9.244  20.430  0.00  0.00    +0.000 HD
BRANCH  26  29
ATOM     29  C   UNL     1       2.607   7.563  18.588  0.00  0.00    +0.000 A 
ATOM     30  C   UNL     1       3.605   7.357  17.622  0.00  0.00    +0.000 A 
ATOM     31  C   UNL     1       4.462   6.263  17.709  0.00  0.00    +0.000 A 
ATOM     32  C   UNL     1       4.295   5.407  18.783  0.00  0.00    +0.000 A 
ATOM     33 CL   UNL     1       5.273   4.009  18.950  0.00  0.00    +0.000 Cl
ATOM     34  N   UNL     1       3.366   5.573  19.750  0.00  0.00    +0.000 NA
ATOM     35  C   UNL     1       2.541   6.647  19.628  0.00  0.00    +0.000 A 
ENDBRANCH  26  29
ENDBRANCH   1  27
TORSDOF 6
ENDMDL
