MODEL 1
REMARK VINA RESULT:      -6.7      0.000      0.000
REMARK  Name = 
REMARK  6 active torsions:
REMARK  status: ('A' for Active; 'I' for Inactive)
REMARK    1  A    between atoms: C_1  and  C_2
REMARK    2  A    between atoms: C_3  and  C_4
REMARK    3  A    between atoms: C_17  and  C_18
REMARK    4  A    between atoms: C_17  and  C_19
REMARK    5  A    between atoms: C_19  and  C_20
REMARK    6  A    between atoms: C_20  and  O_21
REMARK                            x       y       z     vdW  Elec       q    Type
REMARK                         _______ _______ _______ _____ _____    ______ ____
ROOT
ATOM      1  C   UNL     1       4.576   2.708  19.764  0.00  0.00    +0.000 C 
ATOM      2  C   UNL     1       3.943   4.052  19.397  0.00  0.00    +0.000 C 
ATOM      3  C   UNL     1       2.923   4.582  20.124  0.00  0.00    +0.000 C 
ATOM      4  C   UNL     1       2.434   5.880  19.838  0.00  0.00    +0.000 A 
ATOM      5  N   UNL     1       1.530   6.600  20.470  0.00  0.00    +0.000 NA
ATOM      6  C   UNL     1       1.507   7.818  19.842  0.00  0.00    +0.000 A 
ATOM      7  C   UNL     1       0.755   8.968  20.135  0.00  0.00    +0.000 A 
ATOM      8  C   UNL     1       0.913  10.107  19.334  0.00  0.00    +0.000 A 
ATOM      9  C   UNL     1       1.795  10.106  18.258  0.00  0.00    +0.000 A 
ATOM     10  C   UNL     1       2.554   8.973  17.956  0.00  0.00    +0.000 A 
ATOM     11  C   UNL     1       2.396   7.845  18.776  0.00  0.00    +0.000 A 
ATOM     12  N   UNL     1       3.005   6.597  18.797  0.00  0.00    +0.000 N 
ATOM     13  C   UNL     1       4.033   6.175  17.955  0.00  0.00    +0.000 C 
ATOM     14  O   UNL     1       4.488   6.949  17.121  0.00  0.00    +0.000 OA
ATOM     15  C   UNL     1       4.545   4.750  18.165  0.00  0.00    +0.000 C 
ATOM     16  C   UNL     1       6.073   4.896  18.341  0.00  0.00    +0.000 C 
ENDROOT
BRANCH   3  17
ATOM     17  C   UNL     1       2.404   3.736  21.275  0.00  0.00    +0.000 C 
ATOM     18  N   UNL     1       1.973   3.034  22.230  0.00  0.00    +0.000 NA
ENDBRANCH   3  17
BRANCH  15  19
ATOM     19  C   UNL     1       4.185   3.922  16.896  0.00  0.00    +0.000 C 
BRANCH  19  20
ATOM     20  C   UNL     1       5.292   3.720  15.860  0.00  0.00    +0.000 C 
BRANCH  20  21
ATOM     21  O   UNL     1       5.299   4.837  14.976  0.00  0.00    +0.000 OA
ATOM     22  H   UNL     1       4.412   4.918  14.589  0.00  0.00    +0.000 HD
ENDBRANCH  20  21
ENDBRANCH  19  20
ENDBRANCH  15  19
TORSDOF 4
ENDMDL
MODEL 2
REMARK VINA RESULT:      -6.6      3.412      5.214
REMARK  Name = 
REMARK  6 active torsions:
REMARK  status: ('A' for Active; 'I' for Inactive)
REMARK    1  A    between atoms: C_1  and  C_2
REMARK    2  A    between atoms: C_3  and  C_4
REMARK    3  A    between atoms: C_17  and  C_18
REMARK    4  A    between atoms: C_17  and  C_19
REMARK    5  A    between atoms: C_19  and  C_20
REMARK    6  A    between atoms: C_20  and  O_21
REMARK                            x       y       z     vdW  Elec       q    Type
REMARK                         _______ _______ _______ _____ _____    ______ ____
ROOT
ATOM      1  C   UNL     1       7.516   5.167  15.210  0.00  0.00    +0.000 C 
ATOM      2  C   UNL     1       6.348   5.019  16.188  0.00  0.00    +0.000 C 
ATOM      3  C   UNL     1       5.188   4.411  15.825  0.00  0.00    +0.000 C 
ATOM      4  C   UNL     1       4.167   4.180  16.780  0.00  0.00    +0.000 A 
ATOM      5  N   UNL     1       3.024   3.536  16.656  0.00  0.00    +0.000 NA
ATOM      6  C   UNL     1       2.461   3.517  17.905  0.00  0.00    +0.000 A 
ATOM      7  C   UNL     1       1.264   2.926  18.344  0.00  0.00    +0.000 A 
ATOM      8  C   UNL     1       0.901   3.046  19.692  0.00  0.00    +0.000 A 
ATOM      9  C   UNL     1       1.704   3.744  20.588  0.00  0.00    +0.000 A 
ATOM     10  C   UNL     1       2.899   4.333  20.170  0.00  0.00    +0.000 A 
ATOM     11  C   UNL     1       3.258   4.192  18.820  0.00  0.00    +0.000 A 
ATOM     12  N   UNL     1       4.367   4.595  18.088  0.00  0.00    +0.000 N 
ATOM     13  C   UNL     1       5.487   5.251  18.596  0.00  0.00    +0.000 C 
ATOM     14  O   UNL     1       5.554   5.494  19.795  0.00  0.00    +0.000 OA
ATOM     15  C   UNL     1       6.586   5.599  17.593  0.00  0.00    +0.000 C 
ATOM     16  C   UNL     1       7.879   5.002  18.193  0.00  0.00    +0.000 C 
ENDROOT
BRANCH   3  17
ATOM     17  C   UNL     1       5.091   3.948  14.381  0.00  0.00    +0.000 C 
ATOM     18  N   UNL     1       5.011   3.564  13.182  0.00  0.00    +0.000 NA
ENDBRANCH   3  17
BRANCH  15  19
ATOM     19  C   UNL     1       6.662   7.151  17.487  0.00  0.00    +0.000 C 
BRANCH  19  20
ATOM     20  C   UNL     1       7.966   7.817  17.933  0.00  0.00    +0.000 C 
BRANCH  20  21
ATOM     21  O   UNL     1       7.805   9.231  17.856  0.00  0.00    +0.000 OA
ATOM     22  H   UNL     1       7.488   9.543  18.719  0.00  0.00    +0.000 HD
ENDBRANCH  20  21
ENDBRANCH  19  20
ENDBRANCH  15  19
TORSDOF 4
ENDMDL
MODEL 3
REMARK VINA RESULT:      -6.6      1.060      1.219
REMARK  Name = 
REMARK  6 active torsions:
REMARK  status: ('A' for Active; 'I' for Inactive)
REMARK    1  A    between atoms: C_1  and  C_2
REMARK    2  A    between atoms: C_3  and  C_4
REMARK    3  A    between atoms: C_17  and  C_18
REMARK    4  A    between atoms: C_17  and  C_19
REMARK    5  A    between atoms: C_19  and  C_20
REMARK    6  A    between atoms: C_20  and  O_21
REMARK                            x       y       z     vdW  Elec       q    Type
REMARK                         _______ _______ _______ _____ _____    ______ ____
ROOT
ATOM      1  C   UNL     1       4.446   2.648  19.709  0.00  0.00    +0.000 C 
ATOM      2  C   UNL     1       3.818   4.002  19.370  0.00  0.00    +0.000 C 
ATOM      3  C   UNL     1       2.896   4.582  20.182  0.00  0.00    +0.000 C 
ATOM      4  C   UNL     1       2.417   5.888  19.910  0.00  0.00    +0.000 A 
ATOM      5  N   UNL     1       1.605   6.653  20.610  0.00  0.00    +0.000 NA
ATOM      6  C   UNL     1       1.552   7.854  19.951  0.00  0.00    +0.000 A 
ATOM      7  C   UNL     1       0.868   9.035  20.287  0.00  0.00    +0.000 A 
ATOM      8  C   UNL     1       0.975  10.146  19.439  0.00  0.00    +0.000 A 
ATOM      9  C   UNL     1       1.739  10.088  18.279  0.00  0.00    +0.000 A 
ATOM     10  C   UNL     1       2.430   8.924  17.933  0.00  0.00    +0.000 A 
ATOM     11  C   UNL     1       2.325   7.824  18.799  0.00  0.00    +0.000 A 
ATOM     12  N   UNL     1       2.897   6.558  18.794  0.00  0.00    +0.000 N 
ATOM     13  C   UNL     1       3.819   6.081  17.863  0.00  0.00    +0.000 C 
ATOM     14  O   UNL     1       4.206   6.817  16.963  0.00  0.00    +0.000 OA
ATOM     15  C   UNL     1       4.308   4.647  18.062  0.00  0.00    +0.000 C 
ATOM     16  C   UNL     1       5.849   4.748  18.074  0.00  0.00    +0.000 C 
ENDROOT
BRANCH   3  17
ATOM     17  C   UNL     1       2.475   3.785  21.405  0.00  0.00    +0.000 C 
ATOM     18  N   UNL     1       2.126   3.123  22.420  0.00  0.00    +0.000 NA
ENDBRANCH   3  17
BRANCH  15  19
ATOM     19  C   UNL     1       3.793   3.796  16.862  0.00  0.00    +0.000 C 
BRANCH  19  20
ATOM     20  C   UNL     1       2.521   2.976  17.086  0.00  0.00    +0.000 C 
BRANCH  20  21
ATOM     21  O   UNL     1       1.405   3.862  17.099  0.00  0.00    +0.000 OA
ATOM     22  H   UNL     1       0.818   3.593  17.825  0.00  0.00    +0.000 HD
ENDBRANCH  20  21
ENDBRANCH  19  20
ENDBRANCH  15  19
TORSDOF 4
ENDMDL
MODEL 4
REMARK VINA RESULT:      -6.4      2.248      3.830
REMARK  Name = 
REMARK  6 active torsions:
REMARK  status: ('A' for Active; 'I' for Inactive)
REMARK    1  A    between atoms: C_1  and  C_2
REMARK    2  A    between atoms: C_3  and  C_4
REMARK    3  A    between atoms: C_17  and  C_18
REMARK    4  A    between atoms: C_17  and  C_19
REMARK    5  A    between atoms: C_19  and  C_20
REMARK    6  A    between atoms: C_20  and  O_21
REMARK                            x       y       z     vdW  Elec       q    Type
REMARK                         _______ _______ _______ _____ _____    ______ ____
ROOT
ATOM      1  C   UNL     1       4.501   3.764  16.899  0.00  0.00    +0.000 C 
ATOM      2  C   UNL     1       3.807   4.814  17.769  0.00  0.00    +0.000 C 
ATOM      3  C   UNL     1       3.833   6.135  17.449  0.00  0.00    +0.000 C 
ATOM      4  C   UNL     1       3.085   7.074  18.202  0.00  0.00    +0.000 A 
ATOM      5  N   UNL     1       2.905   8.363  18.006  0.00  0.00    +0.000 NA
ATOM      6  C   UNL     1       2.014   8.773  18.964  0.00  0.00    +0.000 A 
ATOM      7  C   UNL     1       1.448  10.041  19.182  0.00  0.00    +0.000 A 
ATOM      8  C   UNL     1       0.547  10.208  20.243  0.00  0.00    +0.000 A 
ATOM      9  C   UNL     1       0.217   9.144  21.075  0.00  0.00    +0.000 A 
ATOM     10  C   UNL     1       0.767   7.877  20.868  0.00  0.00    +0.000 A 
ATOM     11  C   UNL     1       1.656   7.720  19.793  0.00  0.00    +0.000 A 
ATOM     12  N   UNL     1       2.335   6.623  19.279  0.00  0.00    +0.000 N 
ATOM     13  C   UNL     1       2.235   5.310  19.738  0.00  0.00    +0.000 C 
ATOM     14  O   UNL     1       1.473   5.049  20.661  0.00  0.00    +0.000 OA
ATOM     15  C   UNL     1       3.085   4.267  19.013  0.00  0.00    +0.000 C 
ATOM     16  C   UNL     1       2.090   3.161  18.595  0.00  0.00    +0.000 C 
ENDROOT
BRANCH   3  17
ATOM     17  C   UNL     1       4.642   6.517  16.221  0.00  0.00    +0.000 C 
ATOM     18  N   UNL     1       5.315   6.833  15.202  0.00  0.00    +0.000 NA
ENDBRANCH   3  17
BRANCH  15  19
ATOM     19  C   UNL     1       4.151   3.738  20.018  0.00  0.00    +0.000 C 
BRANCH  19  20
ATOM     20  C   UNL     1       4.058   2.264  20.418  0.00  0.00    +0.000 C 
BRANCH  20  21
ATOM     21  O   UNL     1       5.244   1.600  19.988  0.00  0.00    +0.000 OA
ATOM     22  H   UNL     1       5.028   1.087  19.192  0.00  0.00    +0.000 HD
ENDBRANCH  20  21
ENDBRANCH  19  20
ENDBRANCH  15  19
TORSDOF 4
ENDMDL
MODEL 5
REMARK VINA RESULT:      -6.2      3.446      4.591
REMARK  Name = 
REMARK  6 active torsions:
REMARK  status: ('A' for Active; 'I' for Inactive)
REMARK    1  A    between atoms: C_1  and  C_2
REMARK    2  A    between atoms: C_3  and  C_4
REMARK    3  A    between atoms: C_17  and  C_18
REMARK    4  A    between atoms: C_17  and  C_19
REMARK    5  A    between atoms: C_19  and  C_20
REMARK    6  A    between atoms: C_20  and  O_21
REMARK                            x       y       z     vdW  Elec       q    Type
REMARK                         _______ _______ _______ _____ _____    ______ ____
ROOT
ATOM      1  C   UNL     1       7.605   5.969  16.913  0.00  0.00    +0.000 C 
ATOM      2  C   UNL     1       6.366   5.210  17.393  0.00  0.00    +0.000 C 
ATOM      3  C   UNL     1       6.182   4.904  18.705  0.00  0.00    +0.000 C 
ATOM      4  C   UNL     1       4.973   4.308  19.143  0.00  0.00    +0.000 A 
ATOM      5  N   UNL     1       4.566   4.021  20.362  0.00  0.00    +0.000 NA
ATOM      6  C   UNL     1       3.284   3.553  20.234  0.00  0.00    +0.000 A 
ATOM      7  C   UNL     1       2.373   3.144  21.223  0.00  0.00    +0.000 A 
ATOM      8  C   UNL     1       1.102   2.701  20.833  0.00  0.00    +0.000 A 
ATOM      9  C   UNL     1       0.741   2.656  19.491  0.00  0.00    +0.000 A 
ATOM     10  C   UNL     1       1.633   3.064  18.496  0.00  0.00    +0.000 A 
ATOM     11  C   UNL     1       2.897   3.519  18.902  0.00  0.00    +0.000 A 
ATOM     12  N   UNL     1       3.987   4.030  18.208  0.00  0.00    +0.000 N 
ATOM     13  C   UNL     1       4.046   4.263  16.834  0.00  0.00    +0.000 C 
ATOM     14  O   UNL     1       3.063   4.032  16.139  0.00  0.00    +0.000 OA
ATOM     15  C   UNL     1       5.358   4.830  16.295  0.00  0.00    +0.000 C 
ATOM     16  C   UNL     1       4.952   6.091  15.500  0.00  0.00    +0.000 C 
ENDROOT
BRANCH   3  17
ATOM     17  C   UNL     1       7.302   5.297  19.654  0.00  0.00    +0.000 C 
ATOM     18  N   UNL     1       8.232   5.623  20.441  0.00  0.00    +0.000 NA
ENDBRANCH   3  17
BRANCH  15  19
ATOM     19  C   UNL     1       6.003   3.750  15.377  0.00  0.00    +0.000 C 
BRANCH  19  20
ATOM     20  C   UNL     1       6.293   4.151  13.929  0.00  0.00    +0.000 C 
BRANCH  20  21
ATOM     21  O   UNL     1       6.369   2.969  13.135  0.00  0.00    +0.000 OA
ATOM     22  H   UNL     1       7.090   3.085  12.494  0.00  0.00    +0.000 HD
ENDBRANCH  20  21
ENDBRANCH  19  20
ENDBRANCH  15  19
TORSDOF 4
ENDMDL
MODEL 6
REMARK VINA RESULT:      -6.2      2.248      4.857
REMARK  Name = 
REMARK  6 active torsions:
REMARK  status: ('A' for Active; 'I' for Inactive)
REMARK    1  A    between atoms: C_1  and  C_2
REMARK    2  A    between atoms: C_3  and  C_4
REMARK    3  A    between atoms: C_17  and  C_18
REMARK    4  A    between atoms: C_17  and  C_19
REMARK    5  A    between atoms: C_19  and  C_20
REMARK    6  A    between atoms: C_20  and  O_21
REMARK                            x       y       z     vdW  Elec       q    Type
REMARK                         _______ _______ _______ _____ _____    ______ ____
ROOT
ATOM      1  C   UNL     1       5.164   7.282  16.011  0.00  0.00    +0.000 C 
ATOM      2  C   UNL     1       4.735   6.355  17.151  0.00  0.00    +0.000 C 
ATOM      3  C   UNL     1       3.635   6.616  17.906  0.00  0.00    +0.000 C 
ATOM      4  C   UNL     1       3.190   5.684  18.875  0.00  0.00    +0.000 A 
ATOM      5  N   UNL     1       2.114   5.705  19.635  0.00  0.00    +0.000 NA
ATOM      6  C   UNL     1       2.108   4.516  20.318  0.00  0.00    +0.000 A 
ATOM      7  C   UNL     1       1.167   4.007  21.229  0.00  0.00    +0.000 A 
ATOM      8  C   UNL     1       1.389   2.746  21.800  0.00  0.00    +0.000 A 
ATOM      9  C   UNL     1       2.522   2.007  21.481  0.00  0.00    +0.000 A 
ATOM     10  C   UNL     1       3.465   2.496  20.573  0.00  0.00    +0.000 A 
ATOM     11  C   UNL     1       3.222   3.753  19.998  0.00  0.00    +0.000 A 
ATOM     12  N   UNL     1       3.902   4.507  19.049  0.00  0.00    +0.000 N 
ATOM     13  C   UNL     1       5.056   4.118  18.369  0.00  0.00    +0.000 C 
ATOM     14  O   UNL     1       5.536   3.011  18.578  0.00  0.00    +0.000 OA
ATOM     15  C   UNL     1       5.628   5.121  17.369  0.00  0.00    +0.000 C 
ATOM     16  C   UNL     1       5.763   4.334  16.046  0.00  0.00    +0.000 C 
ENDROOT
BRANCH   3  17
ATOM     17  C   UNL     1       2.898   7.910  17.600  0.00  0.00    +0.000 C 
ATOM     18  N   UNL     1       2.286   8.983  17.347  0.00  0.00    +0.000 NA
ENDBRANCH   3  17
BRANCH  15  19
ATOM     19  C   UNL     1       7.012   5.594  17.905  0.00  0.00    +0.000 C 
BRANCH  19  20
ATOM     20  C   UNL     1       7.143   5.786  19.417  0.00  0.00    +0.000 C 
BRANCH  20  21
ATOM     21  O   UNL     1       8.419   5.302  19.829  0.00  0.00    +0.000 OA
ATOM     22  H   UNL     1       8.316   4.895  20.704  0.00  0.00    +0.000 HD
ENDBRANCH  20  21
ENDBRANCH  19  20
ENDBRANCH  15  19
TORSDOF 4
ENDMDL
MODEL 7
REMARK VINA RESULT:      -6.2      2.829      4.537
REMARK  Name = 
REMARK  6 active torsions:
REMARK  status: ('A' for Active; 'I' for Inactive)
REMARK    1  A    between atoms: C_1  and  C_2
REMARK    2  A    between atoms: C_3  and  C_4
REMARK    3  A    between atoms: C_17  and  C_18
REMARK    4  A    between atoms: C_17  and  C_19
REMARK    5  A    between atoms: C_19  and  C_20
REMARK    6  A    between atoms: C_20  and  O_21
REMARK                            x       y       z     vdW  Elec       q    Type
REMARK                         _______ _______ _______ _____ _____    ______ ____
ROOT
ATOM      1  C   UNL     1       2.071   1.841  19.768  0.00  0.00    +0.000 C 
ATOM      2  C   UNL     1       2.908   3.070  19.409  0.00  0.00    +0.000 C 
ATOM      3  C   UNL     1       4.250   3.106  19.624  0.00  0.00    +0.000 C 
ATOM      4  C   UNL     1       5.022   4.206  19.175  0.00  0.00    +0.000 A 
ATOM      5  N   UNL     1       6.326   4.390  19.202  0.00  0.00    +0.000 NA
ATOM      6  C   UNL     1       6.557   5.573  18.549  0.00  0.00    +0.000 A 
ATOM      7  C   UNL     1       7.770   6.218  18.257  0.00  0.00    +0.000 A 
ATOM      8  C   UNL     1       7.743   7.437  17.567  0.00  0.00    +0.000 A 
ATOM      9  C   UNL     1       6.537   8.011  17.178  0.00  0.00    +0.000 A 
ATOM     10  C   UNL     1       5.322   7.380  17.455  0.00  0.00    +0.000 A 
ATOM     11  C   UNL     1       5.366   6.152  18.134  0.00  0.00    +0.000 A 
ATOM     12  N   UNL     1       4.383   5.251  18.523  0.00  0.00    +0.000 N 
ATOM     13  C   UNL     1       3.019   5.363  18.257  0.00  0.00    +0.000 C 
ATOM     14  O   UNL     1       2.606   6.314  17.605  0.00  0.00    +0.000 OA
ATOM     15  C   UNL     1       2.127   4.243  18.791  0.00  0.00    +0.000 C 
ATOM     16  C   UNL     1       1.328   3.749  17.564  0.00  0.00    +0.000 C 
ENDROOT
BRANCH   3  17
ATOM     17  C   UNL     1       4.859   1.888  20.300  0.00  0.00    +0.000 C 
ATOM     18  N   UNL     1       5.364   0.878  20.861  0.00  0.00    +0.000 NA
ENDBRANCH   3  17
BRANCH  15  19
ATOM     19  C   UNL     1       1.196   4.853  19.881  0.00  0.00    +0.000 C 
BRANCH  19  20
ATOM     20  C   UNL     1       1.871   5.586  21.042  0.00  0.00    +0.000 C 
BRANCH  20  21
ATOM     21  O   UNL     1       1.880   6.982  20.756  0.00  0.00    +0.000 OA
ATOM     22  H   UNL     1       2.532   7.139  20.053  0.00  0.00    +0.000 HD
ENDBRANCH  20  21
ENDBRANCH  19  20
ENDBRANCH  15  19
TORSDOF 4
ENDMDL
MODEL 8
REMARK VINA RESULT:      -6.2      2.655      4.982
REMARK  Name = 
REMARK  6 active torsions:
REMARK  status: ('A' for Active; 'I' for Inactive)
REMARK    1  A    between atoms: C_1  and  C_2
REMARK    2  A    between atoms: C_3  and  C_4
REMARK    3  A    between atoms: C_17  and  C_18
REMARK    4  A    between atoms: C_17  and  C_19
REMARK    5  A    between atoms: C_19  and  C_20
REMARK    6  A    between atoms: C_20  and  O_21
REMARK                            x       y       z     vdW  Elec       q    Type
REMARK                         _______ _______ _______ _____ _____    ______ ____
ROOT
ATOM      1  C   UNL     1       2.044   2.138  21.462  0.00  0.00    +0.000 C 
ATOM      2  C   UNL     1       2.759   2.991  20.413  0.00  0.00    +0.000 C 
ATOM      3  C   UNL     1       4.094   2.871  20.186  0.00  0.00    +0.000 C 
ATOM      4  C   UNL     1       4.712   3.584  19.129  0.00  0.00    +0.000 A 
ATOM      5  N   UNL     1       5.954   3.539  18.692  0.00  0.00    +0.000 NA
ATOM      6  C   UNL     1       5.997   4.348  17.586  0.00  0.00    +0.000 A 
ATOM      7  C   UNL     1       7.065   4.625  16.716  0.00  0.00    +0.000 A 
ATOM      8  C   UNL     1       6.854   5.498  15.640  0.00  0.00    +0.000 A 
ATOM      9  C   UNL     1       5.613   6.090  15.432  0.00  0.00    +0.000 A 
ATOM     10  C   UNL     1       4.540   5.821  16.284  0.00  0.00    +0.000 A 
ATOM     11  C   UNL     1       4.761   4.933  17.350  0.00  0.00    +0.000 A 
ATOM     12  N   UNL     1       3.934   4.416  18.338  0.00  0.00    +0.000 N 
ATOM     13  C   UNL     1       2.566   4.657  18.468  0.00  0.00    +0.000 C 
ATOM     14  O   UNL     1       1.996   5.364  17.646  0.00  0.00    +0.000 OA
ATOM     15  C   UNL     1       1.863   3.977  19.642  0.00  0.00    +0.000 C 
ATOM     16  C   UNL     1       0.674   3.218  19.011  0.00  0.00    +0.000 C 
ENDROOT
BRANCH   3  17
ATOM     17  C   UNL     1       4.845   1.895  21.076  0.00  0.00    +0.000 C 
ATOM     18  N   UNL     1       5.469   1.085  21.815  0.00  0.00    +0.000 NA
ENDBRANCH   3  17
BRANCH  15  19
ATOM     19  C   UNL     1       1.386   5.089  20.622  0.00  0.00    +0.000 C 
BRANCH  19  20
ATOM     20  C   UNL     1       2.191   6.390  20.644  0.00  0.00    +0.000 C 
BRANCH  20  21
ATOM     21  O   UNL     1       1.392   7.411  21.235  0.00  0.00    +0.000 OA
ATOM     22  H   UNL     1       0.460   7.201  21.060  0.00  0.00    +0.000 HD
ENDBRANCH  20  21
ENDBRANCH  19  20
ENDBRANCH  15  19
TORSDOF 4
ENDMDL
MODEL 9
REMARK VINA RESULT:      -6.2      3.702      6.471
REMARK  Name = 
REMARK  6 active torsions:
REMARK  status: ('A' for Active; 'I' for Inactive)
REMARK    1  A    between atoms: C_1  and  C_2
REMARK    2  A    between atoms: C_3  and  C_4
REMARK    3  A    between atoms: C_17  and  C_18
REMARK    4  A    between atoms: C_17  and  C_19
REMARK    5  A    between atoms: C_19  and  C_20
REMARK    6  A    between atoms: C_20  and  O_21
REMARK                            x       y       z     vdW  Elec       q    Type
REMARK                         _______ _______ _______ _____ _____    ______ ____
ROOT
ATOM      1  C   UNL     1       5.489   5.573  19.752  0.00  0.00    +0.000 C 
ATOM      2  C   UNL     1       5.504   5.283  18.250  0.00  0.00    +0.000 C 
ATOM      3  C   UNL     1       6.492   5.754  17.444  0.00  0.00    +0.000 C 
ATOM      4  C   UNL     1       6.551   5.374  16.080  0.00  0.00    +0.000 A 
ATOM      5  N   UNL     1       7.462   5.641  15.167  0.00  0.00    +0.000 NA
ATOM      6  C   UNL     1       7.089   4.949  14.044  0.00  0.00    +0.000 A 
ATOM      7  C   UNL     1       7.727   4.848  12.796  0.00  0.00    +0.000 A 
ATOM      8  C   UNL     1       7.139   4.065  11.794  0.00  0.00    +0.000 A 
ATOM      9  C   UNL     1       5.939   3.400  12.019  0.00  0.00    +0.000 A 
ATOM     10  C   UNL     1       5.294   3.484  13.255  0.00  0.00    +0.000 A 
ATOM     11  C   UNL     1       5.903   4.260  14.255  0.00  0.00    +0.000 A 
ATOM     12  N   UNL     1       5.576   4.523  15.579  0.00  0.00    +0.000 N 
ATOM     13  C   UNL     1       4.495   3.986  16.277  0.00  0.00    +0.000 C 
ATOM     14  O   UNL     1       3.752   3.187  15.719  0.00  0.00    +0.000 OA
ATOM     15  C   UNL     1       4.336   4.426  17.732  0.00  0.00    +0.000 C 
ATOM     16  C   UNL     1       4.252   3.113  18.540  0.00  0.00    +0.000 C 
ENDROOT
BRANCH   3  17
ATOM     17  C   UNL     1       7.539   6.636  18.103  0.00  0.00    +0.000 C 
ATOM     18  N   UNL     1       8.407   7.369  18.650  0.00  0.00    +0.000 NA
ENDBRANCH   3  17
BRANCH  15  19
ATOM     19  C   UNL     1       3.022   5.256  17.838  0.00  0.00    +0.000 C 
BRANCH  19  20
ATOM     20  C   UNL     1       1.780   4.529  18.357  0.00  0.00    +0.000 C 
BRANCH  20  21
ATOM     21  O   UNL     1       1.100   3.941  17.251  0.00  0.00    +0.000 OA
ATOM     22  H   UNL     1       0.205   4.317  17.217  0.00  0.00    +0.000 HD
ENDBRANCH  20  21
ENDBRANCH  19  20
ENDBRANCH  15  19
TORSDOF 4
ENDMDL
