MODEL 1
REMARK VINA RESULT:      -8.5      0.000      0.000
REMARK  Name = 
REMARK  5 active torsions:
REMARK  status: ('A' for Active; 'I' for Inactive)
REMARK    1  A    between atoms: C_1  and  C_2
REMARK    2  A    between atoms: C_2  and  C_3
REMARK    3  A    between atoms: C_2  and  C_4
REMARK    4  A    between atoms: C_10  and  C_11
REMARK    5  A    between atoms: C_14  and  C_15
REMARK                            x       y       z     vdW  Elec       q    Type
REMARK                         _______ _______ _______ _____ _____    ______ ____
ROOT
ATOM      1  C   UNL     1       1.973   7.962  19.254  0.00  0.00    +0.000 A 
ATOM      2  N   UNL     1       1.337   9.020  18.782  0.00  0.00    +0.000 NA
ATOM      3  C   UNL     1       0.707   9.605  19.874  0.00  0.00    +0.000 A 
ATOM      4  C   UNL     1      -0.122  10.742  19.978  0.00  0.00    +0.000 A 
ATOM      5  C   UNL     1      -0.648  11.081  21.239  0.00  0.00    +0.000 A 
ATOM      6  C   UNL     1      -0.352  10.310  22.358  0.00  0.00    +0.000 A 
ATOM      7  F   UNL     1      -0.875  10.651  23.543  0.00  0.00    +0.000 F 
ATOM      8  C   UNL     1       0.472   9.190  22.287  0.00  0.00    +0.000 A 
ATOM      9  C   UNL     1       0.979   8.870  21.028  0.00  0.00    +0.000 A 
ATOM     10  N   UNL     1       1.795   7.854  20.608  0.00  0.00    +0.000 N 
ATOM     11  H   UNL     1       2.196   7.127  21.183  0.00  0.00    +0.000 HD
ENDROOT
BRANCH   1  18
ATOM     12  C   UNL     1       4.051   3.594  16.989  0.00  0.00    +0.000 C 
ATOM     13  N   UNL     1       5.359   3.564  16.286  0.00  0.00    +0.000 NA
ATOM     14  C   UNL     1       5.595   4.743  15.440  0.00  0.00    +0.000 C 
ATOM     15  C   UNL     1       5.647   6.044  16.266  0.00  0.00    +0.000 C 
ATOM     16  C   UNL     1       4.444   6.137  17.148  0.00  0.00    +0.000 A 
ATOM     17  C   UNL     1       3.921   7.301  17.789  0.00  0.00    +0.000 A 
ATOM     18  C   UNL     1       2.758   7.038  18.490  0.00  0.00    +0.000 A 
ATOM     19  S   UNL     1       2.302   5.389  18.326  0.00  0.00    +0.000 S 
ATOM     20  C   UNL     1       3.711   5.004  17.451  0.00  0.00    +0.000 A 
ATOM     21  H   UNL     1       5.396   2.726  15.708  0.00  0.00    +0.000 HD
BRANCH  12  23
ATOM     22  C   UNL     1       4.571   3.175  19.471  0.00  0.00    +0.000 C 
ATOM     23  C   UNL     1       4.061   2.561  18.159  0.00  0.00    +0.000 C 
ATOM     24  C   UNL     1       2.696   1.906  18.413  0.00  0.00    +0.000 C 
ENDBRANCH  12  23
ENDBRANCH   1  18
BRANCH   4  25
ATOM     25  C   UNL     1      -0.458  11.591  18.813  0.00  0.00    +0.000 C 
ATOM     26  N   UNL     1      -0.896  10.969  17.682  0.00  0.00    +0.000 N 
ATOM     27  O   UNL     1      -0.342  12.810  18.858  0.00  0.00    +0.000 OA
ATOM     28  H   UNL     1      -0.995   9.958  17.638  0.00  0.00    +0.000 HD
ATOM     29  H   UNL     1      -1.126  11.528  16.873  0.00  0.00    +0.000 HD
ENDBRANCH   4  25
TORSDOF 3
ENDMDL
MODEL 2
REMARK VINA RESULT:      -8.4      3.980      8.504
REMARK  Name = 
REMARK  5 active torsions:
REMARK  status: ('A' for Active; 'I' for Inactive)
REMARK    1  A    between atoms: C_1  and  C_2
REMARK    2  A    between atoms: C_2  and  C_3
REMARK    3  A    between atoms: C_2  and  C_4
REMARK    4  A    between atoms: C_10  and  C_11
REMARK    5  A    between atoms: C_14  and  C_15
REMARK                            x       y       z     vdW  Elec       q    Type
REMARK                         _______ _______ _______ _____ _____    ______ ____
ROOT
ATOM      1  C   UNL     1       2.550   7.122  18.873  0.00  0.00    +0.000 A 
ATOM      2  N   UNL     1       2.349   5.816  18.854  0.00  0.00    +0.000 NA
ATOM      3  C   UNL     1       3.244   5.306  17.920  0.00  0.00    +0.000 A 
ATOM      4  C   UNL     1       3.475   3.990  17.467  0.00  0.00    +0.000 A 
ATOM      5  C   UNL     1       4.448   3.780  16.471  0.00  0.00    +0.000 A 
ATOM      6  C   UNL     1       5.167   4.850  15.950  0.00  0.00    +0.000 A 
ATOM      7  F   UNL     1       6.080   4.621  14.996  0.00  0.00    +0.000 F 
ATOM      8  C   UNL     1       4.969   6.157  16.387  0.00  0.00    +0.000 A 
ATOM      9  C   UNL     1       3.998   6.343  17.370  0.00  0.00    +0.000 A 
ATOM     10  N   UNL     1       3.552   7.471  18.005  0.00  0.00    +0.000 N 
ATOM     11  H   UNL     1       3.882   8.414  17.861  0.00  0.00    +0.000 HD
ENDROOT
BRANCH   1  18
ATOM     12  C   UNL     1       0.058  11.454  20.757  0.00  0.00    +0.000 C 
ATOM     13  N   UNL     1      -0.263  11.671  22.192  0.00  0.00    +0.000 NA
ATOM     14  C   UNL     1      -0.750  10.461  22.871  0.00  0.00    +0.000 C 
ATOM     15  C   UNL     1       0.313   9.345  22.892  0.00  0.00    +0.000 C 
ATOM     16  C   UNL     1       0.844   9.117  21.514  0.00  0.00    +0.000 A 
ATOM     17  C   UNL     1       1.551   7.976  21.029  0.00  0.00    +0.000 A 
ATOM     18  C   UNL     1       1.847   8.073  19.682  0.00  0.00    +0.000 A 
ATOM     19  S   UNL     1       1.227   9.534  19.021  0.00  0.00    +0.000 S 
ATOM     20  C   UNL     1       0.697  10.090  20.541  0.00  0.00    +0.000 A 
ATOM     21  H   UNL     1      -0.971  12.399  22.258  0.00  0.00    +0.000 HD
BRANCH  12  23
ATOM     22  C   UNL     1       0.427  13.204  18.912  0.00  0.00    +0.000 C 
ATOM     23  C   UNL     1       0.947  12.627  20.236  0.00  0.00    +0.000 C 
ATOM     24  C   UNL     1       1.113  13.769  21.248  0.00  0.00    +0.000 C 
ENDBRANCH  12  23
ENDBRANCH   1  18
BRANCH   4  25
ATOM     25  C   UNL     1       2.734   2.824  17.997  0.00  0.00    +0.000 C 
ATOM     26  N   UNL     1       1.415   2.996  18.298  0.00  0.00    +0.000 N 
ATOM     27  O   UNL     1       3.285   1.742  18.168  0.00  0.00    +0.000 OA
ATOM     28  H   UNL     1       0.952   3.890  18.159  0.00  0.00    +0.000 HD
ATOM     29  H   UNL     1       0.892   2.215  18.667  0.00  0.00    +0.000 HD
ENDBRANCH   4  25
TORSDOF 3
ENDMDL
MODEL 3
REMARK VINA RESULT:      -8.3      3.625      8.272
REMARK  Name = 
REMARK  5 active torsions:
REMARK  status: ('A' for Active; 'I' for Inactive)
REMARK    1  A    between atoms: C_1  and  C_2
REMARK    2  A    between atoms: C_2  and  C_3
REMARK    3  A    between atoms: C_2  and  C_4
REMARK    4  A    between atoms: C_10  and  C_11
REMARK    5  A    between atoms: C_14  and  C_15
REMARK                            x       y       z     vdW  Elec       q    Type
REMARK                         _______ _______ _______ _____ _____    ______ ____
ROOT
ATOM      1  C   UNL     1       2.265   7.086  19.337  0.00  0.00    +0.000 A 
ATOM      2  N   UNL     1       3.209   7.243  18.425  0.00  0.00    +0.000 NA
ATOM      3  C   UNL     1       3.561   5.963  18.016  0.00  0.00    +0.000 A 
ATOM      4  C   UNL     1       4.516   5.508  17.083  0.00  0.00    +0.000 A 
ATOM      5  C   UNL     1       4.671   4.121  16.896  0.00  0.00    +0.000 A 
ATOM      6  C   UNL     1       3.894   3.221  17.616  0.00  0.00    +0.000 A 
ATOM      7  F   UNL     1       4.071   1.907  17.426  0.00  0.00    +0.000 F 
ATOM      8  C   UNL     1       2.936   3.641  18.535  0.00  0.00    +0.000 A 
ATOM      9  C   UNL     1       2.802   5.018  18.708  0.00  0.00    +0.000 A 
ATOM     10  N   UNL     1       1.981   5.757  19.516  0.00  0.00    +0.000 N 
ATOM     11  H   UNL     1       1.287   5.401  20.157  0.00  0.00    +0.000 HD
ENDROOT
BRANCH   1  18
ATOM     12  C   UNL     1       0.066  11.709  20.859  0.00  0.00    +0.000 C 
ATOM     13  N   UNL     1      -0.332  12.022  22.256  0.00  0.00    +0.000 NA
ATOM     14  C   UNL     1      -0.975  10.894  22.946  0.00  0.00    +0.000 C 
ATOM     15  C   UNL     1      -0.025   9.688  23.090  0.00  0.00    +0.000 C 
ATOM     16  C   UNL     1       0.575   9.349  21.764  0.00  0.00    +0.000 A 
ATOM     17  C   UNL     1       1.205   8.127  21.379  0.00  0.00    +0.000 A 
ATOM     18  C   UNL     1       1.600   8.134  20.054  0.00  0.00    +0.000 A 
ATOM     19  S   UNL     1       1.167   9.612  19.291  0.00  0.00    +0.000 S 
ATOM     20  C   UNL     1       0.588  10.284  20.745  0.00  0.00    +0.000 A 
ATOM     21  H   UNL     1      -0.972  12.813  22.241  0.00  0.00    +0.000 HD
BRANCH  12  23
ATOM     22  C   UNL     1       0.719  13.336  18.979  0.00  0.00    +0.000 C 
ATOM     23  C   UNL     1       1.094  12.771  20.357  0.00  0.00    +0.000 C 
ATOM     24  C   UNL     1       1.301  13.937  21.335  0.00  0.00    +0.000 C 
ENDBRANCH  12  23
ENDBRANCH   1  18
BRANCH   4  25
ATOM     25  C   UNL     1       5.361   6.432  16.294  0.00  0.00    +0.000 C 
ATOM     26  N   UNL     1       6.321   7.136  16.959  0.00  0.00    +0.000 N 
ATOM     27  O   UNL     1       5.201   6.569  15.086  0.00  0.00    +0.000 OA
ATOM     28  H   UNL     1       6.459   7.029  17.960  0.00  0.00    +0.000 HD
ATOM     29  H   UNL     1       6.904   7.777  16.441  0.00  0.00    +0.000 HD
ENDBRANCH   4  25
TORSDOF 3
ENDMDL
MODEL 4
REMARK VINA RESULT:      -8.3      1.785      2.594
REMARK  Name = 
REMARK  5 active torsions:
REMARK  status: ('A' for Active; 'I' for Inactive)
REMARK    1  A    between atoms: C_1  and  C_2
REMARK    2  A    between atoms: C_2  and  C_3
REMARK    3  A    between atoms: C_2  and  C_4
REMARK    4  A    between atoms: C_10  and  C_11
REMARK    5  A    between atoms: C_14  and  C_15
REMARK                            x       y       z     vdW  Elec       q    Type
REMARK                         _______ _______ _______ _____ _____    ______ ____
ROOT
ATOM      1  C   UNL     1       1.849   8.286  18.818  0.00  0.00    +0.000 A 
ATOM      2  N   UNL     1       1.541   8.420  20.096  0.00  0.00    +0.000 NA
ATOM      3  C   UNL     1       0.785   9.583  20.187  0.00  0.00    +0.000 A 
ATOM      4  C   UNL     1       0.197  10.233  21.292  0.00  0.00    +0.000 A 
ATOM      5  C   UNL     1      -0.501  11.437  21.075  0.00  0.00    +0.000 A 
ATOM      6  C   UNL     1      -0.609  11.969  19.795  0.00  0.00    +0.000 A 
ATOM      7  F   UNL     1      -1.269  13.121  19.620  0.00  0.00    +0.000 F 
ATOM      8  C   UNL     1      -0.049  11.343  18.685  0.00  0.00    +0.000 A 
ATOM      9  C   UNL     1       0.641  10.155  18.922  0.00  0.00    +0.000 A 
ATOM     10  N   UNL     1       1.304   9.304  18.080  0.00  0.00    +0.000 N 
ATOM     11  H   UNL     1       1.401   9.402  17.079  0.00  0.00    +0.000 HD
ENDROOT
BRANCH   1  18
ATOM     12  C   UNL     1       3.818   3.561  17.293  0.00  0.00    +0.000 C 
ATOM     13  N   UNL     1       5.173   3.373  16.713  0.00  0.00    +0.000 NA
ATOM     14  C   UNL     1       5.548   4.421  15.753  0.00  0.00    +0.000 C 
ATOM     15  C   UNL     1       5.617   5.811  16.415  0.00  0.00    +0.000 C 
ATOM     16  C   UNL     1       4.357   6.080  17.172  0.00  0.00    +0.000 A 
ATOM     17  C   UNL     1       3.860   7.342  17.619  0.00  0.00    +0.000 A 
ATOM     18  C   UNL     1       2.631   7.233  18.244  0.00  0.00    +0.000 A 
ATOM     19  S   UNL     1       2.086   5.602  18.245  0.00  0.00    +0.000 S 
ATOM     20  C   UNL     1       3.532   5.035  17.548  0.00  0.00    +0.000 A 
ATOM     21  H   UNL     1       5.202   2.467  16.248  0.00  0.00    +0.000 HD
BRANCH  12  23
ATOM     22  C   UNL     1       3.770   1.185  18.272  0.00  0.00    +0.000 C 
ATOM     23  C   UNL     1       3.671   2.687  18.577  0.00  0.00    +0.000 C 
ATOM     24  C   UNL     1       4.680   3.040  19.680  0.00  0.00    +0.000 C 
ENDBRANCH  12  23
ENDBRANCH   1  18
BRANCH   4  25
ATOM     25  C   UNL     1       0.285   9.699  22.670  0.00  0.00    +0.000 C 
ATOM     26  N   UNL     1      -0.872   9.301  23.270  0.00  0.00    +0.000 N 
ATOM     27  O   UNL     1       1.359   9.622  23.256  0.00  0.00    +0.000 OA
ATOM     28  H   UNL     1      -1.766   9.362  22.790  0.00  0.00    +0.000 HD
ATOM     29  H   UNL     1      -0.835   8.939  24.212  0.00  0.00    +0.000 HD
ENDBRANCH   4  25
TORSDOF 3
ENDMDL
MODEL 5
REMARK VINA RESULT:      -8.3      3.962      8.621
REMARK  Name = 
REMARK  5 active torsions:
REMARK  status: ('A' for Active; 'I' for Inactive)
REMARK    1  A    between atoms: C_1  and  C_2
REMARK    2  A    between atoms: C_2  and  C_3
REMARK    3  A    between atoms: C_2  and  C_4
REMARK    4  A    between atoms: C_10  and  C_11
REMARK    5  A    between atoms: C_14  and  C_15
REMARK                            x       y       z     vdW  Elec       q    Type
REMARK                         _______ _______ _______ _____ _____    ______ ____
ROOT
ATOM      1  C   UNL     1       1.780   7.276  20.199  0.00  0.00    +0.000 A 
ATOM      2  N   UNL     1       1.710   6.074  20.744  0.00  0.00    +0.000 NA
ATOM      3  C   UNL     1       2.497   5.249  19.950  0.00  0.00    +0.000 A 
ATOM      4  C   UNL     1       2.786   3.870  20.032  0.00  0.00    +0.000 A 
ATOM      5  C   UNL     1       3.610   3.293  19.047  0.00  0.00    +0.000 A 
ATOM      6  C   UNL     1       4.131   4.070  18.018  0.00  0.00    +0.000 A 
ATOM      7  F   UNL     1       4.903   3.493  17.089  0.00  0.00    +0.000 F 
ATOM      8  C   UNL     1       3.872   5.435  17.919  0.00  0.00    +0.000 A 
ATOM      9  C   UNL     1       3.050   5.985  18.902  0.00  0.00    +0.000 A 
ATOM     10  N   UNL     1       2.597   7.262  19.099  0.00  0.00    +0.000 N 
ATOM     11  H   UNL     1       2.805   8.069  18.529  0.00  0.00    +0.000 HD
ENDROOT
BRANCH   1  18
ATOM     12  C   UNL     1      -0.122  12.229  20.815  0.00  0.00    +0.000 C 
ATOM     13  N   UNL     1      -0.730  12.736  22.072  0.00  0.00    +0.000 NA
ATOM     14  C   UNL     1      -1.613  11.761  22.728  0.00  0.00    +0.000 C 
ATOM     15  C   UNL     1      -0.849  10.496  23.169  0.00  0.00    +0.000 C 
ATOM     16  C   UNL     1      -0.058   9.952  22.023  0.00  0.00    +0.000 A 
ATOM     17  C   UNL     1       0.488   8.640  21.887  0.00  0.00    +0.000 A 
ATOM     18  C   UNL     1       1.118   8.457  20.669  0.00  0.00    +0.000 A 
ATOM     19  S   UNL     1       1.003   9.871  19.699  0.00  0.00    +0.000 S 
ATOM     20  C   UNL     1       0.247  10.758  20.941  0.00  0.00    +0.000 A 
ATOM     21  H   UNL     1      -1.263  13.577  21.857  0.00  0.00    +0.000 HD
BRANCH  12  23
ATOM     22  C   UNL     1       0.970  13.681  18.997  0.00  0.00    +0.000 C 
ATOM     23  C   UNL     1       1.095  13.125  20.423  0.00  0.00    +0.000 C 
ATOM     24  C   UNL     1       1.338  14.290  21.393  0.00  0.00    +0.000 C 
ENDBRANCH  12  23
ENDBRANCH   1  18
BRANCH   4  25
ATOM     25  C   UNL     1       2.255   3.008  21.111  0.00  0.00    +0.000 C 
ATOM     26  N   UNL     1       0.901   2.888  21.217  0.00  0.00    +0.000 N 
ATOM     27  O   UNL     1       3.003   2.428  21.890  0.00  0.00    +0.000 OA
ATOM     28  H   UNL     1       0.274   3.366  20.575  0.00  0.00    +0.000 HD
ATOM     29  H   UNL     1       0.517   2.309  21.951  0.00  0.00    +0.000 HD
ENDBRANCH   4  25
TORSDOF 3
ENDMDL
MODEL 6
REMARK VINA RESULT:      -8.2      1.375      2.389
REMARK  Name = 
REMARK  5 active torsions:
REMARK  status: ('A' for Active; 'I' for Inactive)
REMARK    1  A    between atoms: C_1  and  C_2
REMARK    2  A    between atoms: C_2  and  C_3
REMARK    3  A    between atoms: C_2  and  C_4
REMARK    4  A    between atoms: C_10  and  C_11
REMARK    5  A    between atoms: C_14  and  C_15
REMARK                            x       y       z     vdW  Elec       q    Type
REMARK                         _______ _______ _______ _____ _____    ______ ____
ROOT
ATOM      1  C   UNL     1       1.752   7.407  20.024  0.00  0.00    +0.000 A 
ATOM      2  N   UNL     1       1.621   8.552  19.377  0.00  0.00    +0.000 NA
ATOM      3  C   UNL     1       1.013   9.427  20.269  0.00  0.00    +0.000 A 
ATOM      4  C   UNL     1       0.612  10.773  20.133  0.00  0.00    +0.000 A 
ATOM      5  C   UNL     1      -0.019  11.403  21.223  0.00  0.00    +0.000 A 
ATOM      6  C   UNL     1      -0.238  10.711  22.408  0.00  0.00    +0.000 A 
ATOM      7  F   UNL     1      -0.850  11.332  23.425  0.00  0.00    +0.000 F 
ATOM      8  C   UNL     1       0.157   9.386  22.574  0.00  0.00    +0.000 A 
ATOM      9  C   UNL     1       0.776   8.779  21.482  0.00  0.00    +0.000 A 
ATOM     10  N   UNL     1       1.271   7.517  21.303  0.00  0.00    +0.000 N 
ATOM     11  H   UNL     1       1.277   6.770  21.982  0.00  0.00    +0.000 HD
ENDROOT
BRANCH   1  18
ATOM     12  C   UNL     1       5.010   3.696  17.990  0.00  0.00    +0.000 C 
ATOM     13  N   UNL     1       4.546   2.406  17.416  0.00  0.00    +0.000 NA
ATOM     14  C   UNL     1       3.469   1.775  18.193  0.00  0.00    +0.000 C 
ATOM     15  C   UNL     1       2.197   2.646  18.227  0.00  0.00    +0.000 C 
ATOM     16  C   UNL     1       2.541   4.037  18.651  0.00  0.00    +0.000 A 
ATOM     17  C   UNL     1       1.656   5.040  19.150  0.00  0.00    +0.000 A 
ATOM     18  C   UNL     1       2.321   6.201  19.500  0.00  0.00    +0.000 A 
ATOM     19  S   UNL     1       4.014   6.038  19.251  0.00  0.00    +0.000 S 
ATOM     20  C   UNL     1       3.843   4.494  18.555  0.00  0.00    +0.000 A 
ATOM     21  H   UNL     1       5.340   1.770  17.368  0.00  0.00    +0.000 HD
BRANCH  12  23
ATOM     22  C   UNL     1       7.296   4.646  17.300  0.00  0.00    +0.000 C 
ATOM     23  C   UNL     1       5.818   4.487  16.914  0.00  0.00    +0.000 C 
ATOM     24  C   UNL     1       5.732   3.877  15.508  0.00  0.00    +0.000 C 
ENDBRANCH  12  23
ENDBRANCH   1  18
BRANCH   4  25
ATOM     25  C   UNL     1       0.829  11.547  18.890  0.00  0.00    +0.000 C 
ATOM     26  N   UNL     1       1.906  11.220  18.121  0.00  0.00    +0.000 N 
ATOM     27  O   UNL     1       0.074  12.456  18.565  0.00  0.00    +0.000 OA
ATOM     28  H   UNL     1       2.537  10.467  18.385  0.00  0.00    +0.000 HD
ATOM     29  H   UNL     1       2.077  11.739  17.272  0.00  0.00    +0.000 HD
ENDBRANCH   4  25
TORSDOF 3
ENDMDL
MODEL 7
REMARK VINA RESULT:      -8.2      2.240      3.569
REMARK  Name = 
REMARK  5 active torsions:
REMARK  status: ('A' for Active; 'I' for Inactive)
REMARK    1  A    between atoms: C_1  and  C_2
REMARK    2  A    between atoms: C_2  and  C_3
REMARK    3  A    between atoms: C_2  and  C_4
REMARK    4  A    between atoms: C_10  and  C_11
REMARK    5  A    between atoms: C_14  and  C_15
REMARK                            x       y       z     vdW  Elec       q    Type
REMARK                         _______ _______ _______ _____ _____    ______ ____
ROOT
ATOM      1  C   UNL     1       1.661   7.801  20.038  0.00  0.00    +0.000 A 
ATOM      2  N   UNL     1       1.035   8.354  21.062  0.00  0.00    +0.000 NA
ATOM      3  C   UNL     1       0.652   9.620  20.636  0.00  0.00    +0.000 A 
ATOM      4  C   UNL     1      -0.030  10.663  21.297  0.00  0.00    +0.000 A 
ATOM      5  C   UNL     1      -0.256  11.868  20.605  0.00  0.00    +0.000 A 
ATOM      6  C   UNL     1       0.182  12.021  19.294  0.00  0.00    +0.000 A 
ATOM      7  F   UNL     1      -0.038  13.182  18.663  0.00  0.00    +0.000 F 
ATOM      8  C   UNL     1       0.847  11.005  18.613  0.00  0.00    +0.000 A 
ATOM      9  C   UNL     1       1.064   9.822  19.319  0.00  0.00    +0.000 A 
ATOM     10  N   UNL     1       1.678   8.651  18.964  0.00  0.00    +0.000 N 
ATOM     11  H   UNL     1       2.094   8.436  18.070  0.00  0.00    +0.000 HD
ENDROOT
BRANCH   1  18
ATOM     12  C   UNL     1       4.432   3.409  18.788  0.00  0.00    +0.000 C 
ATOM     13  N   UNL     1       4.203   2.077  19.405  0.00  0.00    +0.000 NA
ATOM     14  C   UNL     1       3.962   2.138  20.854  0.00  0.00    +0.000 C 
ATOM     15  C   UNL     1       2.684   2.930  21.193  0.00  0.00    +0.000 C 
ATOM     16  C   UNL     1       2.708   4.258  20.507  0.00  0.00    +0.000 A 
ATOM     17  C   UNL     1       1.929   5.413  20.817  0.00  0.00    +0.000 A 
ATOM     18  C   UNL     1       2.245   6.493  20.012  0.00  0.00    +0.000 A 
ATOM     19  S   UNL     1       3.509   6.092  18.918  0.00  0.00    +0.000 S 
ATOM     20  C   UNL     1       3.534   4.465  19.417  0.00  0.00    +0.000 A 
ATOM     21  H   UNL     1       5.018   1.493  19.226  0.00  0.00    +0.000 HD
BRANCH  12  23
ATOM     22  C   UNL     1       2.780   3.416  16.819  0.00  0.00    +0.000 C 
ATOM     23  C   UNL     1       4.253   3.307  17.241  0.00  0.00    +0.000 C 
ATOM     24  C   UNL     1       5.074   4.342  16.458  0.00  0.00    +0.000 C 
ENDBRANCH  12  23
ENDBRANCH   1  18
BRANCH   4  25
ATOM     25  C   UNL     1      -0.516  10.540  22.690  0.00  0.00    +0.000 C 
ATOM     26  N   UNL     1      -0.708   9.284  23.184  0.00  0.00    +0.000 N 
ATOM     27  O   UNL     1      -0.745  11.530  23.375  0.00  0.00    +0.000 OA
ATOM     28  H   UNL     1      -0.520   8.458  22.622  0.00  0.00    +0.000 HD
ATOM     29  H   UNL     1      -1.044   9.177  24.130  0.00  0.00    +0.000 HD
ENDBRANCH   4  25
TORSDOF 3
ENDMDL
MODEL 8
REMARK VINA RESULT:      -8.1      3.750      8.460
REMARK  Name = 
REMARK  5 active torsions:
REMARK  status: ('A' for Active; 'I' for Inactive)
REMARK    1  A    between atoms: C_1  and  C_2
REMARK    2  A    between atoms: C_2  and  C_3
REMARK    3  A    between atoms: C_2  and  C_4
REMARK    4  A    between atoms: C_10  and  C_11
REMARK    5  A    between atoms: C_14  and  C_15
REMARK                            x       y       z     vdW  Elec       q    Type
REMARK                         _______ _______ _______ _____ _____    ______ ____
ROOT
ATOM      1  C   UNL     1       2.560   7.419  19.103  0.00  0.00    +0.000 A 
ATOM      2  N   UNL     1       2.760   6.130  19.319  0.00  0.00    +0.000 NA
ATOM      3  C   UNL     1       3.599   5.698  18.299  0.00  0.00    +0.000 A 
ATOM      4  C   UNL     1       4.136   4.427  18.005  0.00  0.00    +0.000 A 
ATOM      5  C   UNL     1       4.949   4.285  16.864  0.00  0.00    +0.000 A 
ATOM      6  C   UNL     1       5.219   5.379  16.049  0.00  0.00    +0.000 A 
ATOM      7  F   UNL     1       5.987   5.212  14.965  0.00  0.00    +0.000 F 
ATOM      8  C   UNL     1       4.712   6.647  16.322  0.00  0.00    +0.000 A 
ATOM      9  C   UNL     1       3.906   6.764  17.453  0.00  0.00    +0.000 A 
ATOM     10  N   UNL     1       3.254   7.837  17.997  0.00  0.00    +0.000 N 
ATOM     11  H   UNL     1       3.257   8.785  17.649  0.00  0.00    +0.000 HD
ENDROOT
BRANCH   1  18
ATOM     12  C   UNL     1      -0.495  11.418  20.892  0.00  0.00    +0.000 C 
ATOM     13  N   UNL     1      -0.800  11.654  22.327  0.00  0.00    +0.000 NA
ATOM     14  C   UNL     1      -1.077  10.419  23.076  0.00  0.00    +0.000 C 
ATOM     15  C   UNL     1       0.142   9.476  23.105  0.00  0.00    +0.000 C 
ATOM     16  C   UNL     1       0.656   9.263  21.718  0.00  0.00    +0.000 A 
ATOM     17  C   UNL     1       1.512   8.218  21.257  0.00  0.00    +0.000 A 
ATOM     18  C   UNL     1       1.747   8.292  19.896  0.00  0.00    +0.000 A 
ATOM     19  S   UNL     1       0.894   9.611  19.197  0.00  0.00    +0.000 S 
ATOM     20  C   UNL     1       0.335  10.155  20.710  0.00  0.00    +0.000 A 
ATOM     21  H   UNL     1      -1.608  12.271  22.389  0.00  0.00    +0.000 HD
BRANCH  12  23
ATOM     22  C   UNL     1       1.704  12.700  20.541  0.00  0.00    +0.000 C 
ATOM     23  C   UNL     1       0.190  12.683  20.287  0.00  0.00    +0.000 C 
ATOM     24  C   UNL     1      -0.066  12.860  18.783  0.00  0.00    +0.000 C 
ENDBRANCH  12  23
ENDBRANCH   1  18
BRANCH   4  25
ATOM     25  C   UNL     1       3.877   3.238  18.848  0.00  0.00    +0.000 C 
ATOM     26  N   UNL     1       4.926   2.715  19.543  0.00  0.00    +0.000 N 
ATOM     27  O   UNL     1       2.761   2.735  18.914  0.00  0.00    +0.000 OA
ATOM     28  H   UNL     1       5.854   3.126  19.493  0.00  0.00    +0.000 HD
ATOM     29  H   UNL     1       4.772   1.900  20.120  0.00  0.00    +0.000 HD
ENDBRANCH   4  25
TORSDOF 3
ENDMDL
MODEL 9
REMARK VINA RESULT:      -7.9      0.977      1.220
REMARK  Name = 
REMARK  5 active torsions:
REMARK  status: ('A' for Active; 'I' for Inactive)
REMARK    1  A    between atoms: C_1  and  C_2
REMARK    2  A    between atoms: C_2  and  C_3
REMARK    3  A    between atoms: C_2  and  C_4
REMARK    4  A    between atoms: C_10  and  C_11
REMARK    5  A    between atoms: C_14  and  C_15
REMARK                            x       y       z     vdW  Elec       q    Type
REMARK                         _______ _______ _______ _____ _____    ______ ____
ROOT
ATOM      1  C   UNL     1       1.624   8.406  19.027  0.00  0.00    +0.000 A 
ATOM      2  N   UNL     1       0.836   9.268  18.407  0.00  0.00    +0.000 NA
ATOM      3  C   UNL     1       0.259  10.042  19.406  0.00  0.00    +0.000 A 
ATOM      4  C   UNL     1      -0.671  11.102  19.349  0.00  0.00    +0.000 A 
ATOM      5  C   UNL     1      -1.103  11.687  20.554  0.00  0.00    +0.000 A 
ATOM      6  C   UNL     1      -0.619  11.230  21.774  0.00  0.00    +0.000 A 
ATOM      7  F   UNL     1      -1.056  11.799  22.905  0.00  0.00    +0.000 F 
ATOM      8  C   UNL     1       0.308  10.194  21.861  0.00  0.00    +0.000 A 
ATOM      9  C   UNL     1       0.719   9.626  20.655  0.00  0.00    +0.000 A 
ATOM     10  N   UNL     1       1.592   8.608  20.382  0.00  0.00    +0.000 N 
ATOM     11  H   UNL     1       2.123   8.073  21.053  0.00  0.00    +0.000 HD
ENDROOT
BRANCH   1  18
ATOM     12  C   UNL     1       3.700   3.787  17.327  0.00  0.00    +0.000 C 
ATOM     13  N   UNL     1       5.042   3.658  16.703  0.00  0.00    +0.000 NA
ATOM     14  C   UNL     1       5.354   4.741  15.759  0.00  0.00    +0.000 C 
ATOM     15  C   UNL     1       5.398   6.117  16.454  0.00  0.00    +0.000 C 
ATOM     16  C   UNL     1       4.153   6.325  17.254  0.00  0.00    +0.000 A 
ATOM     17  C   UNL     1       3.629   7.558  17.746  0.00  0.00    +0.000 A 
ATOM     18  C   UNL     1       2.423   7.393  18.403  0.00  0.00    +0.000 A 
ATOM     19  S   UNL     1       1.932   5.746  18.379  0.00  0.00    +0.000 S 
ATOM     20  C   UNL     1       3.374   5.244  17.627  0.00  0.00    +0.000 A 
ATOM     21  H   UNL     1       5.087   2.766  16.215  0.00  0.00    +0.000 HD
BRANCH  12  23
ATOM     22  C   UNL     1       3.642   1.384  18.236  0.00  0.00    +0.000 C 
ATOM     23  C   UNL     1       3.620   2.878  18.592  0.00  0.00    +0.000 C 
ATOM     24  C   UNL     1       4.722   3.161  19.624  0.00  0.00    +0.000 C 
ENDBRANCH  12  23
ENDBRANCH   1  18
BRANCH   4  25
ATOM     25  C   UNL     1      -1.209  11.621  18.071  0.00  0.00    +0.000 C 
ATOM     26  N   UNL     1      -0.905  12.906  17.732  0.00  0.00    +0.000 N 
ATOM     27  O   UNL     1      -1.909  10.925  17.345  0.00  0.00    +0.000 OA
ATOM     28  H   UNL     1      -0.325  13.489  18.330  0.00  0.00    +0.000 HD
ATOM     29  H   UNL     1      -1.267  13.282  16.867  0.00  0.00    +0.000 HD
ENDBRANCH   4  25
TORSDOF 3
ENDMDL
