MODEL 1
REMARK VINA RESULT:      -7.0      0.000      0.000
REMARK  Name = 
REMARK  4 active torsions:
REMARK  status: ('A' for Active; 'I' for Inactive)
REMARK    1  A    between atoms: C_1  and  C_2
REMARK    2  A    between atoms: C_3  and  C_4
REMARK    3  A    between atoms: C_7  and  C_8
REMARK    4  A    between atoms: C_15  and  C_16
REMARK                            x       y       z     vdW  Elec       q    Type
REMARK                         _______ _______ _______ _____ _____    ______ ____
ROOT
ATOM      1  C   UNL     1       4.548   1.842  19.955  0.00  0.00    +0.000 C 
ATOM      2  C   UNL     1       3.913   3.196  19.858  0.00  0.00    +0.000 A 
ATOM      3  C   UNL     1       2.657   3.540  20.384  0.00  0.00    +0.000 A 
ATOM      4  C   UNL     1       1.790   2.612  21.184  0.00  0.00    +0.000 C 
ATOM      5  N   UNL     1       2.132   4.826  20.183  0.00  0.00    +0.000 N 
ATOM      6  O   UNL     1       0.951   5.062  20.618  0.00  0.00    +0.000 OA
ATOM      7  C   UNL     1       2.887   5.813  19.512  0.00  0.00    +0.000 A 
ATOM      8  C   UNL     1       4.179   5.465  19.040  0.00  0.00    +0.000 A 
ATOM      9  C   UNL     1       5.129   6.401  18.348  0.00  0.00    +0.000 C 
ATOM     10  N   UNL     1       4.659   4.156  19.178  0.00  0.00    +0.000 N 
ATOM     11  O   UNL     1       5.792   3.836  18.680  0.00  0.00    +0.000 OA
ENDROOT
BRANCH   7  12
ATOM     12  C   UNL     1       2.274   7.169  19.341  0.00  0.00    +0.000 A 
ATOM     13  C   UNL     1       1.755   7.895  20.433  0.00  0.00    +0.000 A 
ATOM     14  C   UNL     1       1.147   9.148  20.276  0.00  0.00    +0.000 A 
ATOM     15  C   UNL     1       1.092   9.731  19.020  0.00  0.00    +0.000 A 
ATOM     16 BR   UNL     1       0.294  11.432  18.801  0.00  0.00    +0.000 Br
ATOM     17  C   UNL     1       1.613   9.064  17.919  0.00  0.00    +0.000 A 
ATOM     18  C   UNL     1       2.167   7.784  18.076  0.00  0.00    +0.000 A 
ENDBRANCH   7  12
TORSDOF 1
ENDMDL
MODEL 2
REMARK VINA RESULT:      -7.0      0.032      1.132
REMARK  Name = 
REMARK  4 active torsions:
REMARK  status: ('A' for Active; 'I' for Inactive)
REMARK    1  A    between atoms: C_1  and  C_2
REMARK    2  A    between atoms: C_3  and  C_4
REMARK    3  A    between atoms: C_7  and  C_8
REMARK    4  A    between atoms: C_15  and  C_16
REMARK                            x       y       z     vdW  Elec       q    Type
REMARK                         _______ _______ _______ _____ _____    ______ ____
ROOT
ATOM      1  C   UNL     1       4.562   1.842  19.999  0.00  0.00    +0.000 C 
ATOM      2  C   UNL     1       3.920   3.193  19.896  0.00  0.00    +0.000 A 
ATOM      3  C   UNL     1       2.663   3.534  20.422  0.00  0.00    +0.000 A 
ATOM      4  C   UNL     1       1.802   2.605  21.229  0.00  0.00    +0.000 C 
ATOM      5  N   UNL     1       2.131   4.816  20.216  0.00  0.00    +0.000 N 
ATOM      6  O   UNL     1       0.950   5.048  20.652  0.00  0.00    +0.000 OA
ATOM      7  C   UNL     1       2.881   5.803  19.538  0.00  0.00    +0.000 A 
ATOM      8  C   UNL     1       4.173   5.459  19.066  0.00  0.00    +0.000 A 
ATOM      9  C   UNL     1       5.118   6.397  18.368  0.00  0.00    +0.000 C 
ATOM     10  N   UNL     1       4.660   4.154  19.210  0.00  0.00    +0.000 N 
ATOM     11  O   UNL     1       5.794   3.837  18.712  0.00  0.00    +0.000 OA
ENDROOT
BRANCH   7  12
ATOM     12  C   UNL     1       2.260   7.155  19.361  0.00  0.00    +0.000 A 
ATOM     13  C   UNL     1       2.167   7.772  18.095  0.00  0.00    +0.000 A 
ATOM     14  C   UNL     1       1.621   9.051  17.927  0.00  0.00    +0.000 A 
ATOM     15  C   UNL     1       1.103   9.725  19.020  0.00  0.00    +0.000 A 
ATOM     16 BR   UNL     1       0.343  11.443  18.800  0.00  0.00    +0.000 Br
ATOM     17  C   UNL     1       1.149   9.147  20.282  0.00  0.00    +0.000 A 
ATOM     18  C   UNL     1       1.751   7.890  20.451  0.00  0.00    +0.000 A 
ENDBRANCH   7  12
TORSDOF 1
ENDMDL
MODEL 3
REMARK VINA RESULT:      -6.7      3.863      5.592
REMARK  Name = 
REMARK  4 active torsions:
REMARK  status: ('A' for Active; 'I' for Inactive)
REMARK    1  A    between atoms: C_1  and  C_2
REMARK    2  A    between atoms: C_3  and  C_4
REMARK    3  A    between atoms: C_7  and  C_8
REMARK    4  A    between atoms: C_15  and  C_16
REMARK                            x       y       z     vdW  Elec       q    Type
REMARK                         _______ _______ _______ _____ _____    ______ ____
ROOT
ATOM      1  C   UNL     1       1.094   4.069  20.830  0.00  0.00    +0.000 C 
ATOM      2  C   UNL     1       2.115   4.265  19.750  0.00  0.00    +0.000 A 
ATOM      3  C   UNL     1       2.604   5.507  19.314  0.00  0.00    +0.000 A 
ATOM      4  C   UNL     1       2.222   6.828  19.919  0.00  0.00    +0.000 C 
ATOM      5  N   UNL     1       3.518   5.577  18.252  0.00  0.00    +0.000 N 
ATOM      6  O   UNL     1       3.873   6.739  17.846  0.00  0.00    +0.000 OA
ATOM      7  C   UNL     1       4.014   4.398  17.652  0.00  0.00    +0.000 A 
ATOM      8  C   UNL     1       3.554   3.150  18.145  0.00  0.00    +0.000 A 
ATOM      9  C   UNL     1       4.009   1.804  17.654  0.00  0.00    +0.000 C 
ATOM     10  N   UNL     1       2.583   3.096  19.153  0.00  0.00    +0.000 N 
ATOM     11  O   UNL     1       2.120   1.967  19.534  0.00  0.00    +0.000 OA
ENDROOT
BRANCH   7  12
ATOM     12  C   UNL     1       4.996   4.542  16.530  0.00  0.00    +0.000 A 
ATOM     13  C   UNL     1       6.346   4.877  16.761  0.00  0.00    +0.000 A 
ATOM     14  C   UNL     1       7.262   5.048  15.714  0.00  0.00    +0.000 A 
ATOM     15  C   UNL     1       6.858   4.834  14.407  0.00  0.00    +0.000 A 
ATOM     16 BR   UNL     1       8.092   5.041  12.988  0.00  0.00    +0.000 Br
ATOM     17  C   UNL     1       5.543   4.478  14.133  0.00  0.00    +0.000 A 
ATOM     18  C   UNL     1       4.618   4.366  15.183  0.00  0.00    +0.000 A 
ENDBRANCH   7  12
TORSDOF 1
ENDMDL
MODEL 4
REMARK VINA RESULT:      -6.6      3.858      5.625
REMARK  Name = 
REMARK  4 active torsions:
REMARK  status: ('A' for Active; 'I' for Inactive)
REMARK    1  A    between atoms: C_1  and  C_2
REMARK    2  A    between atoms: C_3  and  C_4
REMARK    3  A    between atoms: C_7  and  C_8
REMARK    4  A    between atoms: C_15  and  C_16
REMARK                            x       y       z     vdW  Elec       q    Type
REMARK                         _______ _______ _______ _____ _____    ______ ____
ROOT
ATOM      1  C   UNL     1       1.084   3.818  20.844  0.00  0.00    +0.000 C 
ATOM      2  C   UNL     1       2.102   4.063  19.772  0.00  0.00    +0.000 A 
ATOM      3  C   UNL     1       2.572   5.326  19.377  0.00  0.00    +0.000 A 
ATOM      4  C   UNL     1       2.170   6.621  20.022  0.00  0.00    +0.000 C 
ATOM      5  N   UNL     1       3.485   5.444  18.317  0.00  0.00    +0.000 N 
ATOM      6  O   UNL     1       3.823   6.623  17.949  0.00  0.00    +0.000 OA
ATOM      7  C   UNL     1       3.999   4.292  17.681  0.00  0.00    +0.000 A 
ATOM      8  C   UNL     1       3.558   3.022  18.133  0.00  0.00    +0.000 A 
ATOM      9  C   UNL     1       4.033   1.699  17.600  0.00  0.00    +0.000 C 
ATOM     10  N   UNL     1       2.587   2.921  19.139  0.00  0.00    +0.000 N 
ATOM     11  O   UNL     1       2.141   1.774  19.483  0.00  0.00    +0.000 OA
ENDROOT
BRANCH   7  12
ATOM     12  C   UNL     1       4.979   4.485  16.565  0.00  0.00    +0.000 A 
ATOM     13  C   UNL     1       4.605   4.340  15.212  0.00  0.00    +0.000 A 
ATOM     14  C   UNL     1       5.524   4.484  14.164  0.00  0.00    +0.000 A 
ATOM     15  C   UNL     1       6.836   4.832  14.445  0.00  0.00    +0.000 A 
ATOM     16 BR   UNL     1       8.079   5.051  13.036  0.00  0.00    +0.000 Br
ATOM     17  C   UNL     1       7.243   5.011  15.761  0.00  0.00    +0.000 A 
ATOM     18  C   UNL     1       6.330   4.807  16.807  0.00  0.00    +0.000 A 
ENDBRANCH   7  12
TORSDOF 1
ENDMDL
MODEL 5
REMARK VINA RESULT:      -6.6      3.774      5.480
REMARK  Name = 
REMARK  4 active torsions:
REMARK  status: ('A' for Active; 'I' for Inactive)
REMARK    1  A    between atoms: C_1  and  C_2
REMARK    2  A    between atoms: C_3  and  C_4
REMARK    3  A    between atoms: C_7  and  C_8
REMARK    4  A    between atoms: C_15  and  C_16
REMARK                            x       y       z     vdW  Elec       q    Type
REMARK                         _______ _______ _______ _____ _____    ______ ____
ROOT
ATOM      1  C   UNL     1       1.192   4.285  20.816  0.00  0.00    +0.000 C 
ATOM      2  C   UNL     1       2.148   4.317  19.663  0.00  0.00    +0.000 A 
ATOM      3  C   UNL     1       2.664   3.187  19.007  0.00  0.00    +0.000 A 
ATOM      4  C   UNL     1       2.278   1.772  19.327  0.00  0.00    +0.000 C 
ATOM      5  N   UNL     1       3.602   3.332  17.974  0.00  0.00    +0.000 N 
ATOM      6  O   UNL     1       4.096   2.267  17.463  0.00  0.00    +0.000 OA
ATOM      7  C   UNL     1       3.987   4.617  17.529  0.00  0.00    +0.000 A 
ATOM      8  C   UNL     1       3.410   5.747  18.162  0.00  0.00    +0.000 A 
ATOM      9  C   UNL     1       3.673   7.179  17.787  0.00  0.00    +0.000 C 
ATOM     10  N   UNL     1       2.535   5.589  19.245  0.00  0.00    +0.000 N 
ATOM     11  O   UNL     1       2.083   6.616  19.856  0.00  0.00    +0.000 OA
ENDROOT
BRANCH   7  12
ATOM     12  C   UNL     1       4.984   4.703  16.414  0.00  0.00    +0.000 A 
ATOM     13  C   UNL     1       6.319   5.101  16.638  0.00  0.00    +0.000 A 
ATOM     14  C   UNL     1       7.247   5.219  15.594  0.00  0.00    +0.000 A 
ATOM     15  C   UNL     1       6.872   4.888  14.302  0.00  0.00    +0.000 A 
ATOM     16 BR   UNL     1       8.124   5.022  12.890  0.00  0.00    +0.000 Br
ATOM     17  C   UNL     1       5.575   4.468  14.038  0.00  0.00    +0.000 A 
ATOM     18  C   UNL     1       4.636   4.409  15.080  0.00  0.00    +0.000 A 
ENDBRANCH   7  12
TORSDOF 1
ENDMDL
MODEL 6
REMARK VINA RESULT:      -6.5      3.762      5.531
REMARK  Name = 
REMARK  4 active torsions:
REMARK  status: ('A' for Active; 'I' for Inactive)
REMARK    1  A    between atoms: C_1  and  C_2
REMARK    2  A    between atoms: C_3  and  C_4
REMARK    3  A    between atoms: C_7  and  C_8
REMARK    4  A    between atoms: C_15  and  C_16
REMARK                            x       y       z     vdW  Elec       q    Type
REMARK                         _______ _______ _______ _____ _____    ______ ____
ROOT
ATOM      1  C   UNL     1       1.126   4.266  20.796  0.00  0.00    +0.000 C 
ATOM      2  C   UNL     1       2.093   4.312  19.651  0.00  0.00    +0.000 A 
ATOM      3  C   UNL     1       2.622   3.189  18.994  0.00  0.00    +0.000 A 
ATOM      4  C   UNL     1       2.243   1.770  19.302  0.00  0.00    +0.000 C 
ATOM      5  N   UNL     1       3.568   3.347  17.969  0.00  0.00    +0.000 N 
ATOM      6  O   UNL     1       4.074   2.289  17.457  0.00  0.00    +0.000 OA
ATOM      7  C   UNL     1       3.948   4.637  17.535  0.00  0.00    +0.000 A 
ATOM      8  C   UNL     1       3.358   5.760  18.170  0.00  0.00    +0.000 A 
ATOM      9  C   UNL     1       3.614   7.195  17.805  0.00  0.00    +0.000 C 
ATOM     10  N   UNL     1       2.474   5.589  19.244  0.00  0.00    +0.000 N 
ATOM     11  O   UNL     1       2.010   6.609  19.857  0.00  0.00    +0.000 OA
ENDROOT
BRANCH   7  12
ATOM     12  C   UNL     1       4.954   4.737  16.430  0.00  0.00    +0.000 A 
ATOM     13  C   UNL     1       4.631   4.403  15.098  0.00  0.00    +0.000 A 
ATOM     14  C   UNL     1       5.576   4.459  14.064  0.00  0.00    +0.000 A 
ATOM     15  C   UNL     1       6.860   4.905  14.332  0.00  0.00    +0.000 A 
ATOM     16 BR   UNL     1       8.137   5.005  12.940  0.00  0.00    +0.000 Br
ATOM     17  C   UNL     1       7.216   5.268  15.625  0.00  0.00    +0.000 A 
ATOM     18  C   UNL     1       6.280   5.153  16.664  0.00  0.00    +0.000 A 
ENDBRANCH   7  12
TORSDOF 1
ENDMDL
MODEL 7
REMARK VINA RESULT:      -6.4      1.032      1.521
REMARK  Name = 
REMARK  4 active torsions:
REMARK  status: ('A' for Active; 'I' for Inactive)
REMARK    1  A    between atoms: C_1  and  C_2
REMARK    2  A    between atoms: C_3  and  C_4
REMARK    3  A    between atoms: C_7  and  C_8
REMARK    4  A    between atoms: C_15  and  C_16
REMARK                            x       y       z     vdW  Elec       q    Type
REMARK                         _______ _______ _______ _____ _____    ______ ____
ROOT
ATOM      1  C   UNL     1       3.904   1.774  18.245  0.00  0.00    +0.000 C 
ATOM      2  C   UNL     1       3.406   3.165  18.499  0.00  0.00    +0.000 A 
ATOM      3  C   UNL     1       2.354   3.502  19.366  0.00  0.00    +0.000 A 
ATOM      4  C   UNL     1       1.612   2.517  20.222  0.00  0.00    +0.000 C 
ATOM      5  N   UNL     1       1.930   4.835  19.483  0.00  0.00    +0.000 N 
ATOM      6  O   UNL     1       0.918   5.075  20.229  0.00  0.00    +0.000 OA
ATOM      7  C   UNL     1       2.600   5.865  18.787  0.00  0.00    +0.000 A 
ATOM      8  C   UNL     1       3.700   5.513  17.962  0.00  0.00    +0.000 A 
ATOM      9  C   UNL     1       4.548   6.484  17.190  0.00  0.00    +0.000 C 
ATOM     10  N   UNL     1       4.063   4.171  17.793  0.00  0.00    +0.000 N 
ATOM     11  O   UNL     1       5.005   3.862  16.987  0.00  0.00    +0.000 OA
ENDROOT
BRANCH   7  12
ATOM     12  C   UNL     1       2.106   7.268  18.964  0.00  0.00    +0.000 A 
ATOM     13  C   UNL     1       1.931   8.140  17.869  0.00  0.00    +0.000 A 
ATOM     14  C   UNL     1       1.503   9.465  18.031  0.00  0.00    +0.000 A 
ATOM     15  C   UNL     1       1.187   9.934  19.295  0.00  0.00    +0.000 A 
ATOM     16 BR   UNL     1       0.587  11.714  19.521  0.00  0.00    +0.000 Br
ATOM     17  C   UNL     1       1.320   9.103  20.401  0.00  0.00    +0.000 A 
ATOM     18  C   UNL     1       1.804   7.796  20.236  0.00  0.00    +0.000 A 
ENDBRANCH   7  12
TORSDOF 1
ENDMDL
MODEL 8
REMARK VINA RESULT:      -6.4      1.165      1.165
REMARK  Name = 
REMARK  4 active torsions:
REMARK  status: ('A' for Active; 'I' for Inactive)
REMARK    1  A    between atoms: C_1  and  C_2
REMARK    2  A    between atoms: C_3  and  C_4
REMARK    3  A    between atoms: C_7  and  C_8
REMARK    4  A    between atoms: C_15  and  C_16
REMARK                            x       y       z     vdW  Elec       q    Type
REMARK                         _______ _______ _______ _____ _____    ______ ____
ROOT
ATOM      1  C   UNL     1       3.851   1.789  17.978  0.00  0.00    +0.000 C 
ATOM      2  C   UNL     1       3.365   3.169  18.305  0.00  0.00    +0.000 A 
ATOM      3  C   UNL     1       2.337   3.470  19.214  0.00  0.00    +0.000 A 
ATOM      4  C   UNL     1       1.614   2.450  20.046  0.00  0.00    +0.000 C 
ATOM      5  N   UNL     1       1.921   4.797  19.401  0.00  0.00    +0.000 N 
ATOM      6  O   UNL     1       0.930   5.007  20.183  0.00  0.00    +0.000 OA
ATOM      7  C   UNL     1       2.577   5.856  18.733  0.00  0.00    +0.000 A 
ATOM      8  C   UNL     1       3.653   5.538  17.865  0.00  0.00    +0.000 A 
ATOM      9  C   UNL     1       4.484   6.539  17.113  0.00  0.00    +0.000 C 
ATOM     10  N   UNL     1       4.006   4.203  17.627  0.00  0.00    +0.000 N 
ATOM     11  O   UNL     1       4.926   3.927  16.784  0.00  0.00    +0.000 OA
ENDROOT
BRANCH   7  12
ATOM     12  C   UNL     1       2.092   7.251  18.984  0.00  0.00    +0.000 A 
ATOM     13  C   UNL     1       1.806   7.716  20.285  0.00  0.00    +0.000 A 
ATOM     14  C   UNL     1       1.317   9.007  20.525  0.00  0.00    +0.000 A 
ATOM     15  C   UNL     1       1.155   9.887  19.467  0.00  0.00    +0.000 A 
ATOM     16 BR   UNL     1       0.518  11.640  19.783  0.00  0.00    +0.000 Br
ATOM     17  C   UNL     1       1.449   9.481  18.171  0.00  0.00    +0.000 A 
ATOM     18  C   UNL     1       1.881   8.167  17.934  0.00  0.00    +0.000 A 
ENDBRANCH   7  12
TORSDOF 1
ENDMDL
MODEL 9
REMARK VINA RESULT:      -6.4      1.833      3.033
REMARK  Name = 
REMARK  4 active torsions:
REMARK  status: ('A' for Active; 'I' for Inactive)
REMARK    1  A    between atoms: C_1  and  C_2
REMARK    2  A    between atoms: C_3  and  C_4
REMARK    3  A    between atoms: C_7  and  C_8
REMARK    4  A    between atoms: C_15  and  C_16
REMARK                            x       y       z     vdW  Elec       q    Type
REMARK                         _______ _______ _______ _____ _____    ______ ____
ROOT
ATOM      1  C   UNL     1       3.977   1.502  18.061  0.00  0.00    +0.000 C 
ATOM      2  C   UNL     1       3.535   2.927  18.206  0.00  0.00    +0.000 A 
ATOM      3  C   UNL     1       4.066   4.015  17.495  0.00  0.00    +0.000 A 
ATOM      4  C   UNL     1       5.117   3.900  16.429  0.00  0.00    +0.000 C 
ATOM      5  N   UNL     1       3.617   5.319  17.753  0.00  0.00    +0.000 N 
ATOM      6  O   UNL     1       4.189   6.281  17.131  0.00  0.00    +0.000 OA
ATOM      7  C   UNL     1       2.575   5.549  18.679  0.00  0.00    +0.000 A 
ATOM      8  C   UNL     1       2.009   4.432  19.344  0.00  0.00    +0.000 A 
ATOM      9  C   UNL     1       0.869   4.492  20.322  0.00  0.00    +0.000 C 
ATOM     10  N   UNL     1       2.520   3.144  19.135  0.00  0.00    +0.000 N 
ATOM     11  O   UNL     1       2.053   2.157  19.798  0.00  0.00    +0.000 OA
ENDROOT
BRANCH   7  12
ATOM     12  C   UNL     1       2.134   6.964  18.901  0.00  0.00    +0.000 A 
ATOM     13  C   UNL     1       1.913   7.852  17.827  0.00  0.00    +0.000 A 
ATOM     14  C   UNL     1       1.535   9.186  18.027  0.00  0.00    +0.000 A 
ATOM     15  C   UNL     1       1.316   9.651  19.314  0.00  0.00    +0.000 A 
ATOM     16 BR   UNL     1       0.784  11.444  19.594  0.00  0.00    +0.000 Br
ATOM     17  C   UNL     1       1.496   8.805  20.401  0.00  0.00    +0.000 A 
ATOM     18  C   UNL     1       1.931   7.487  20.194  0.00  0.00    +0.000 A 
ENDBRANCH   7  12
TORSDOF 1
ENDMDL
