MODEL 1
REMARK VINA RESULT:      -6.9      0.000      0.000
REMARK  Name = 
REMARK  8 active torsions:
REMARK  status: ('A' for Active; 'I' for Inactive)
REMARK    1  A    between atoms: C_1  and  C_2
REMARK    2  A    between atoms: C_2  and  C_3
REMARK    3  A    between atoms: C_2  and  N_4
REMARK    4  A    between atoms: C_8  and  C_9
REMARK    5  A    between atoms: C_19  and  C_20
REMARK    6  A    between atoms: N_22  and  C_23
REMARK    7  A    between atoms: C_23  and  C_24
REMARK    8  A    between atoms: C_24  and  O_25
REMARK                            x       y       z     vdW  Elec       q    Type
REMARK                         _______ _______ _______ _____ _____    ______ ____
ROOT
ATOM      1  C   UNL     1       1.713  13.066  20.472  0.00  0.00    +0.000 A 
ATOM      2  N   UNL     1       1.610  12.082  19.611  0.00  0.00    +0.000 NA
ATOM      3  C   UNL     1       0.648  11.158  20.038  0.00  0.00    +0.000 A 
ATOM      4  C   UNL     1       0.025  11.511  21.221  0.00  0.00    +0.000 A 
ATOM      5  S   UNL     1       0.476  13.098  21.676  0.00  0.00    +0.000 S 
ATOM      6  C   UNL     1      -0.703  10.619  22.159  0.00  0.00    +0.000 C 
ATOM      7  C   UNL     1       0.253   9.477  22.505  0.00  0.00    +0.000 C 
ATOM      8  O   UNL     1       0.203   8.446  21.523  0.00  0.00    +0.000 OA
ATOM      9  C   UNL     1       0.837   8.694  20.341  0.00  0.00    +0.000 A 
ATOM     10  C   UNL     1       1.723   7.695  19.956  0.00  0.00    +0.000 A 
ATOM     11  C   UNL     1       2.410   7.760  18.736  0.00  0.00    +0.000 A 
ATOM     12  C   UNL     1       1.864   8.612  17.767  0.00  0.00    +0.000 A 
ATOM     13  C   UNL     1       1.008   9.646  18.153  0.00  0.00    +0.000 A 
ATOM     14  C   UNL     1       0.674   9.798  19.500  0.00  0.00    +0.000 A 
ENDROOT
BRANCH   1  19
ATOM     15  N   UNL     1       3.141  14.940  19.608  0.00  0.00    +0.000 N 
ATOM     16  N   UNL     1       4.291  15.580  19.953  0.00  0.00    +0.000 NA
ATOM     17  C   UNL     1       4.625  14.941  21.072  0.00  0.00    +0.000 A 
ATOM     18  N   UNL     1       3.761  13.967  21.469  0.00  0.00    +0.000 NA
ATOM     19  C   UNL     1       2.817  13.991  20.541  0.00  0.00    +0.000 A 
BRANCH  15  21
ATOM     20  C   UNL     1       1.293  16.183  18.612  0.00  0.00    +0.000 C 
ATOM     21  C   UNL     1       2.492  15.282  18.346  0.00  0.00    +0.000 C 
ATOM     22  C   UNL     1       3.437  15.926  17.322  0.00  0.00    +0.000 C 
ENDBRANCH  15  21
ENDBRANCH   1  19
BRANCH  11  23
ATOM     23  C   UNL     1       3.815   7.062  18.624  0.00  0.00    +0.000 C 
ATOM     24  C   UNL     1       4.008   5.600  19.033  0.00  0.00    +0.000 C 
ATOM     25  N   UNL     1       4.963   5.418  17.912  0.00  0.00    +0.000 NA
ATOM     26  C   UNL     1       4.434   6.650  17.276  0.00  0.00    +0.000 C 
BRANCH  25  27
ATOM     27  C   UNL     1       6.344   5.608  18.383  0.00  0.00    +0.000 C 
BRANCH  27  28
ATOM     28  C   UNL     1       7.319   4.638  17.703  0.00  0.00    +0.000 C 
BRANCH  28  29
ATOM     29  O   UNL     1       6.661   3.923  16.659  0.00  0.00    +0.000 OA
ATOM     30  H   UNL     1       7.107   3.065  16.561  0.00  0.00    +0.000 HD
ENDBRANCH  28  29
ENDBRANCH  27  28
ENDBRANCH  25  27
ENDBRANCH  11  23
TORSDOF 6
ENDMDL
MODEL 2
REMARK VINA RESULT:      -6.6      0.989      1.886
REMARK  Name = 
REMARK  8 active torsions:
REMARK  status: ('A' for Active; 'I' for Inactive)
REMARK    1  A    between atoms: C_1  and  C_2
REMARK    2  A    between atoms: C_2  and  C_3
REMARK    3  A    between atoms: C_2  and  N_4
REMARK    4  A    between atoms: C_8  and  C_9
REMARK    5  A    between atoms: C_19  and  C_20
REMARK    6  A    between atoms: N_22  and  C_23
REMARK    7  A    between atoms: C_23  and  C_24
REMARK    8  A    between atoms: C_24  and  O_25
REMARK                            x       y       z     vdW  Elec       q    Type
REMARK                         _______ _______ _______ _____ _____    ______ ____
ROOT
ATOM      1  C   UNL     1       1.925  13.026  19.486  0.00  0.00    +0.000 A 
ATOM      2  N   UNL     1       1.761  11.909  18.819  0.00  0.00    +0.000 NA
ATOM      3  C   UNL     1       0.877  11.061  19.497  0.00  0.00    +0.000 A 
ATOM      4  C   UNL     1       0.371  11.602  20.663  0.00  0.00    +0.000 A 
ATOM      5  S   UNL     1       0.820  13.249  20.793  0.00  0.00    +0.000 S 
ATOM      6  C   UNL     1      -0.228  10.875  21.811  0.00  0.00    +0.000 C 
ATOM      7  C   UNL     1       0.792   9.820  22.239  0.00  0.00    +0.000 C 
ATOM      8  O   UNL     1       0.669   8.636  21.456  0.00  0.00    +0.000 OA
ATOM      9  C   UNL     1       1.169   8.687  20.187  0.00  0.00    +0.000 A 
ATOM     10  C   UNL     1       2.039   7.646  19.882  0.00  0.00    +0.000 A 
ATOM     11  C   UNL     1       2.593   7.511  18.601  0.00  0.00    +0.000 A 
ATOM     12  C   UNL     1       1.923   8.179  17.567  0.00  0.00    +0.000 A 
ATOM     13  C   UNL     1       1.082   9.254  17.864  0.00  0.00    +0.000 A 
ATOM     14  C   UNL     1       0.886   9.629  19.195  0.00  0.00    +0.000 A 
ENDROOT
BRANCH   1  19
ATOM     15  N   UNL     1       3.771  14.543  20.253  0.00  0.00    +0.000 N 
ATOM     16  N   UNL     1       4.640  15.438  19.708  0.00  0.00    +0.000 NA
ATOM     17  C   UNL     1       4.312  15.377  18.420  0.00  0.00    +0.000 A 
ATOM     18  N   UNL     1       3.322  14.495  18.110  0.00  0.00    +0.000 NA
ATOM     19  C   UNL     1       3.002  13.962  19.279  0.00  0.00    +0.000 A 
BRANCH  15  21
ATOM     20  C   UNL     1       5.106  13.956  22.208  0.00  0.00    +0.000 C 
ATOM     21  C   UNL     1       3.735  14.385  21.703  0.00  0.00    +0.000 C 
ATOM     22  C   UNL     1       3.252  15.638  22.448  0.00  0.00    +0.000 C 
ENDBRANCH  15  21
ENDBRANCH   1  19
BRANCH  11  23
ATOM     23  C   UNL     1       3.998   6.819  18.457  0.00  0.00    +0.000 C 
ATOM     24  C   UNL     1       4.140   5.297  18.502  0.00  0.00    +0.000 C 
ATOM     25  N   UNL     1       5.206   5.371  17.472  0.00  0.00    +0.000 NA
ATOM     26  C   UNL     1       4.752   6.739  17.118  0.00  0.00    +0.000 C 
BRANCH  25  27
ATOM     27  C   UNL     1       6.531   5.394  18.111  0.00  0.00    +0.000 C 
BRANCH  27  28
ATOM     28  C   UNL     1       7.535   4.495  17.377  0.00  0.00    +0.000 C 
BRANCH  28  29
ATOM     29  O   UNL     1       7.549   4.799  15.984  0.00  0.00    +0.000 OA
ATOM     30  H   UNL     1       7.932   4.036  15.519  0.00  0.00    +0.000 HD
ENDBRANCH  28  29
ENDBRANCH  27  28
ENDBRANCH  25  27
ENDBRANCH  11  23
TORSDOF 6
ENDMDL
MODEL 3
REMARK VINA RESULT:      -6.5      0.912      1.107
REMARK  Name = 
REMARK  8 active torsions:
REMARK  status: ('A' for Active; 'I' for Inactive)
REMARK    1  A    between atoms: C_1  and  C_2
REMARK    2  A    between atoms: C_2  and  C_3
REMARK    3  A    between atoms: C_2  and  N_4
REMARK    4  A    between atoms: C_8  and  C_9
REMARK    5  A    between atoms: C_19  and  C_20
REMARK    6  A    between atoms: N_22  and  C_23
REMARK    7  A    between atoms: C_23  and  C_24
REMARK    8  A    between atoms: C_24  and  O_25
REMARK                            x       y       z     vdW  Elec       q    Type
REMARK                         _______ _______ _______ _____ _____    ______ ____
ROOT
ATOM      1  C   UNL     1       1.431  13.115  20.156  0.00  0.00    +0.000 A 
ATOM      2  N   UNL     1       1.328  12.079  19.358  0.00  0.00    +0.000 NA
ATOM      3  C   UNL     1       0.538  11.084  19.949  0.00  0.00    +0.000 A 
ATOM      4  C   UNL     1       0.039  11.434  21.189  0.00  0.00    +0.000 A 
ATOM      5  S   UNL     1       0.365  13.084  21.513  0.00  0.00    +0.000 S 
ATOM      6  C   UNL     1      -0.456  10.525  22.254  0.00  0.00    +0.000 C 
ATOM      7  C   UNL     1       0.658   9.511  22.515  0.00  0.00    +0.000 C 
ATOM      8  O   UNL     1       0.596   8.428  21.592  0.00  0.00    +0.000 OA
ATOM      9  C   UNL     1       1.040   8.674  20.326  0.00  0.00    +0.000 A 
ATOM     10  C   UNL     1       1.974   7.754  19.865  0.00  0.00    +0.000 A 
ATOM     11  C   UNL     1       2.486   7.823  18.562  0.00  0.00    +0.000 A 
ATOM     12  C   UNL     1       1.726   8.557  17.641  0.00  0.00    +0.000 A 
ATOM     13  C   UNL     1       0.817   9.515  18.096  0.00  0.00    +0.000 A 
ATOM     14  C   UNL     1       0.646   9.706  19.469  0.00  0.00    +0.000 A 
ENDROOT
BRANCH   1  19
ATOM     15  N   UNL     1       2.185  15.498  19.941  0.00  0.00    +0.000 N 
ATOM     16  N   UNL     1       3.349  16.181  19.758  0.00  0.00    +0.000 NA
ATOM     17  C   UNL     1       4.234  15.189  19.710  0.00  0.00    +0.000 A 
ATOM     18  N   UNL     1       3.721  13.938  19.873  0.00  0.00    +0.000 NA
ATOM     19  C   UNL     1       2.425  14.153  20.037  0.00  0.00    +0.000 A 
BRANCH  15  21
ATOM     20  C   UNL     1       1.130  17.600  20.589  0.00  0.00    +0.000 C 
ATOM     21  C   UNL     1       0.926  16.235  19.944  0.00  0.00    +0.000 C 
ATOM     22  C   UNL     1       0.295  16.384  18.552  0.00  0.00    +0.000 C 
ENDBRANCH  15  21
ENDBRANCH   1  19
BRANCH  11  23
ATOM     23  C   UNL     1       3.933   7.271  18.290  0.00  0.00    +0.000 C 
ATOM     24  C   UNL     1       4.344   5.869  18.744  0.00  0.00    +0.000 C 
ATOM     25  N   UNL     1       5.155   5.714  17.511  0.00  0.00    +0.000 NA
ATOM     26  C   UNL     1       4.409   6.837  16.892  0.00  0.00    +0.000 C 
BRANCH  25  27
ATOM     27  C   UNL     1       6.556   6.080  17.773  0.00  0.00    +0.000 C 
BRANCH  27  28
ATOM     28  C   UNL     1       7.470   4.849  17.817  0.00  0.00    +0.000 C 
BRANCH  28  29
ATOM     29  O   UNL     1       7.844   4.459  16.497  0.00  0.00    +0.000 OA
ATOM     30  H   UNL     1       8.717   4.036  16.549  0.00  0.00    +0.000 HD
ENDBRANCH  28  29
ENDBRANCH  27  28
ENDBRANCH  25  27
ENDBRANCH  11  23
TORSDOF 6
ENDMDL
MODEL 4
REMARK VINA RESULT:      -6.4      1.426      1.653
REMARK  Name = 
REMARK  8 active torsions:
REMARK  status: ('A' for Active; 'I' for Inactive)
REMARK    1  A    between atoms: C_1  and  C_2
REMARK    2  A    between atoms: C_2  and  C_3
REMARK    3  A    between atoms: C_2  and  N_4
REMARK    4  A    between atoms: C_8  and  C_9
REMARK    5  A    between atoms: C_19  and  C_20
REMARK    6  A    between atoms: N_22  and  C_23
REMARK    7  A    between atoms: C_23  and  C_24
REMARK    8  A    between atoms: C_24  and  O_25
REMARK                            x       y       z     vdW  Elec       q    Type
REMARK                         _______ _______ _______ _____ _____    ______ ____
ROOT
ATOM      1  C   UNL     1       2.371  13.795  20.758  0.00  0.00    +0.000 A 
ATOM      2  N   UNL     1       2.088  12.864  19.879  0.00  0.00    +0.000 NA
ATOM      3  C   UNL     1       0.835  12.300  20.151  0.00  0.00    +0.000 A 
ATOM      4  C   UNL     1       0.194  12.869  21.236  0.00  0.00    +0.000 A 
ATOM      5  S   UNL     1       1.050  14.252  21.770  0.00  0.00    +0.000 S 
ATOM      6  C   UNL     1      -0.901  12.280  22.048  0.00  0.00    +0.000 C 
ATOM      7  C   UNL     1      -0.410  10.910  22.515  0.00  0.00    +0.000 C 
ATOM      8  O   UNL     1      -0.641   9.913  21.523  0.00  0.00    +0.000 OA
ATOM      9  C   UNL     1       0.199   9.911  20.448  0.00  0.00    +0.000 A 
ATOM     10  C   UNL     1       0.773   8.673  20.183  0.00  0.00    +0.000 A 
ATOM     11  C   UNL     1       1.612   8.481  19.076  0.00  0.00    +0.000 A 
ATOM     12  C   UNL     1       1.502   9.427  18.048  0.00  0.00    +0.000 A 
ATOM     13  C   UNL     1       0.967  10.688  18.319  0.00  0.00    +0.000 A 
ATOM     14  C   UNL     1       0.510  10.982  19.606  0.00  0.00    +0.000 A 
ENDROOT
BRANCH   1  19
ATOM     15  N   UNL     1       4.540  14.843  20.054  0.00  0.00    +0.000 N 
ATOM     16  N   UNL     1       5.731  15.184  20.617  0.00  0.00    +0.000 NA
ATOM     17  C   UNL     1       5.543  14.813  21.882  0.00  0.00    +0.000 A 
ATOM     18  N   UNL     1       4.318  14.290  22.161  0.00  0.00    +0.000 NA
ATOM     19  C   UNL     1       3.688  14.332  20.997  0.00  0.00    +0.000 A 
BRANCH  15  21
ATOM     20  C   UNL     1       3.787  16.370  18.307  0.00  0.00    +0.000 C 
ATOM     21  C   UNL     1       4.369  14.996  18.613  0.00  0.00    +0.000 C 
ATOM     22  C   UNL     1       5.658  14.765  17.811  0.00  0.00    +0.000 C 
ENDBRANCH  15  21
ENDBRANCH   1  19
BRANCH  11  23
ATOM     23  C   UNL     1       2.728   7.377  19.159  0.00  0.00    +0.000 C 
ATOM     24  C   UNL     1       2.473   6.044  19.866  0.00  0.00    +0.000 C 
ATOM     25  N   UNL     1       3.292   5.350  18.840  0.00  0.00    +0.000 NA
ATOM     26  C   UNL     1       3.150   6.526  17.947  0.00  0.00    +0.000 C 
BRANCH  25  27
ATOM     27  C   UNL     1       4.678   5.198  19.312  0.00  0.00    +0.000 C 
BRANCH  27  28
ATOM     28  C   UNL     1       5.370   3.989  18.671  0.00  0.00    +0.000 C 
BRANCH  28  29
ATOM     29  O   UNL     1       4.995   2.787  19.341  0.00  0.00    +0.000 OA
ATOM     30  H   UNL     1       5.632   2.097  19.091  0.00  0.00    +0.000 HD
ENDBRANCH  28  29
ENDBRANCH  27  28
ENDBRANCH  25  27
ENDBRANCH  11  23
TORSDOF 6
ENDMDL
MODEL 5
REMARK VINA RESULT:      -6.3      4.043      7.475
REMARK  Name = 
REMARK  8 active torsions:
REMARK  status: ('A' for Active; 'I' for Inactive)
REMARK    1  A    between atoms: C_1  and  C_2
REMARK    2  A    between atoms: C_2  and  C_3
REMARK    3  A    between atoms: C_2  and  N_4
REMARK    4  A    between atoms: C_8  and  C_9
REMARK    5  A    between atoms: C_19  and  C_20
REMARK    6  A    between atoms: N_22  and  C_23
REMARK    7  A    between atoms: C_23  and  C_24
REMARK    8  A    between atoms: C_24  and  O_25
REMARK                            x       y       z     vdW  Elec       q    Type
REMARK                         _______ _______ _______ _____ _____    ______ ____
ROOT
ATOM      1  C   UNL     1       1.625  13.052  19.598  0.00  0.00    +0.000 A 
ATOM      2  N   UNL     1       2.726  13.526  20.131  0.00  0.00    +0.000 NA
ATOM      3  C   UNL     1       2.817  14.907  19.918  0.00  0.00    +0.000 A 
ATOM      4  C   UNL     1       1.735  15.437  19.241  0.00  0.00    +0.000 A 
ATOM      5  S   UNL     1       0.505  14.258  19.076  0.00  0.00    +0.000 S 
ATOM      6  C   UNL     1       1.677  16.719  18.494  0.00  0.00    +0.000 C 
ATOM      7  C   UNL     1       2.833  16.693  17.493  0.00  0.00    +0.000 C 
ATOM      8  O   UNL     1       4.048  17.127  18.097  0.00  0.00    +0.000 OA
ATOM      9  C   UNL     1       4.671  16.241  18.926  0.00  0.00    +0.000 A 
ATOM     10  C   UNL     1       6.014  16.038  18.629  0.00  0.00    +0.000 A 
ATOM     11  C   UNL     1       6.819  15.208  19.421  0.00  0.00    +0.000 A 
ATOM     12  C   UNL     1       6.350  14.950  20.717  0.00  0.00    +0.000 A 
ATOM     13  C   UNL     1       4.994  15.110  21.010  0.00  0.00    +0.000 A 
ATOM     14  C   UNL     1       4.122  15.561  20.017  0.00  0.00    +0.000 A 
ENDROOT
BRANCH   1  19
ATOM     15  N   UNL     1       0.777  10.759  20.164  0.00  0.00    +0.000 N 
ATOM     16  N   UNL     1       0.777   9.514  19.613  0.00  0.00    +0.000 NA
ATOM     17  C   UNL     1       1.422   9.729  18.469  0.00  0.00    +0.000 A 
ATOM     18  N   UNL     1       1.805  11.017  18.247  0.00  0.00    +0.000 NA
ATOM     19  C   UNL     1       1.374  11.660  19.321  0.00  0.00    +0.000 A 
BRANCH  15  21
ATOM     20  C   UNL     1      -1.131  11.598  21.432  0.00  0.00    +0.000 C 
ATOM     21  C   UNL     1       0.240  10.938  21.509  0.00  0.00    +0.000 C 
ATOM     22  C   UNL     1       0.170   9.639  22.323  0.00  0.00    +0.000 C 
ENDBRANCH  15  21
ENDBRANCH   1  19
BRANCH  11  23
ATOM     23  C   UNL     1       8.038  14.477  18.750  0.00  0.00    +0.000 C 
ATOM     24  C   UNL     1       9.289  15.250  18.326  0.00  0.00    +0.000 C 
ATOM     25  N   UNL     1      10.132  14.099  18.734  0.00  0.00    +0.000 NA
ATOM     26  C   UNL     1       9.001  13.570  19.536  0.00  0.00    +0.000 C 
BRANCH  25  27
ATOM     27  C   UNL     1      10.416  13.239  17.575  0.00  0.00    +0.000 C 
BRANCH  27  28
ATOM     28  C   UNL     1      11.914  12.933  17.444  0.00  0.00    +0.000 C 
BRANCH  28  29
ATOM     29  O   UNL     1      12.136  11.525  17.438  0.00  0.00    +0.000 OA
ATOM     30  H   UNL     1      12.834  11.337  16.789  0.00  0.00    +0.000 HD
ENDBRANCH  28  29
ENDBRANCH  27  28
ENDBRANCH  25  27
ENDBRANCH  11  23
TORSDOF 6
ENDMDL
MODEL 6
REMARK VINA RESULT:      -6.3      1.109      1.213
REMARK  Name = 
REMARK  8 active torsions:
REMARK  status: ('A' for Active; 'I' for Inactive)
REMARK    1  A    between atoms: C_1  and  C_2
REMARK    2  A    between atoms: C_2  and  C_3
REMARK    3  A    between atoms: C_2  and  N_4
REMARK    4  A    between atoms: C_8  and  C_9
REMARK    5  A    between atoms: C_19  and  C_20
REMARK    6  A    between atoms: N_22  and  C_23
REMARK    7  A    between atoms: C_23  and  C_24
REMARK    8  A    between atoms: C_24  and  O_25
REMARK                            x       y       z     vdW  Elec       q    Type
REMARK                         _______ _______ _______ _____ _____    ______ ____
ROOT
ATOM      1  C   UNL     1       1.539  13.695  20.806  0.00  0.00    +0.000 A 
ATOM      2  N   UNL     1       1.323  12.729  19.945  0.00  0.00    +0.000 NA
ATOM      3  C   UNL     1       0.225  11.956  20.344  0.00  0.00    +0.000 A 
ATOM      4  C   UNL     1      -0.377  12.403  21.505  0.00  0.00    +0.000 A 
ATOM      5  S   UNL     1       0.282  13.913  21.969  0.00  0.00    +0.000 S 
ATOM      6  C   UNL     1      -1.254  11.632  22.422  0.00  0.00    +0.000 C 
ATOM      7  C   UNL     1      -0.483  10.367  22.802  0.00  0.00    +0.000 C 
ATOM      8  O   UNL     1      -0.650   9.347  21.821  0.00  0.00    +0.000 OA
ATOM      9  C   UNL     1       0.050   9.493  20.660  0.00  0.00    +0.000 A 
ATOM     10  C   UNL     1       0.795   8.374  20.305  0.00  0.00    +0.000 A 
ATOM     11  C   UNL     1       1.523   8.331  19.108  0.00  0.00    +0.000 A 
ATOM     12  C   UNL     1       1.134   9.245  18.119  0.00  0.00    +0.000 A 
ATOM     13  C   UNL     1       0.424  10.394  18.475  0.00  0.00    +0.000 A 
ATOM     14  C   UNL     1       0.073  10.602  19.810  0.00  0.00    +0.000 A 
ENDROOT
BRANCH   1  19
ATOM     15  N   UNL     1       3.054  15.614  20.243  0.00  0.00    +0.000 N 
ATOM     16  N   UNL     1       4.328  16.012  20.511  0.00  0.00    +0.000 NA
ATOM     17  C   UNL     1       4.754  15.029  21.301  0.00  0.00    +0.000 A 
ATOM     18  N   UNL     1       3.838  14.058  21.570  0.00  0.00    +0.000 NA
ATOM     19  C   UNL     1       2.762  14.452  20.908  0.00  0.00    +0.000 A 
BRANCH  15  21
ATOM     20  C   UNL     1       2.033  17.793  19.846  0.00  0.00    +0.000 C 
ATOM     21  C   UNL     1       2.255  16.389  19.299  0.00  0.00    +0.000 C 
ATOM     22  C   UNL     1       2.852  16.446  17.886  0.00  0.00    +0.000 C 
ENDBRANCH  15  21
ENDBRANCH   1  19
BRANCH  11  23
ATOM     23  C   UNL     1       2.815   7.438  19.043  0.00  0.00    +0.000 C 
ATOM     24  C   UNL     1       2.733   5.915  19.163  0.00  0.00    +0.000 C 
ATOM     25  N   UNL     1       3.825   5.783  18.167  0.00  0.00    +0.000 NA
ATOM     26  C   UNL     1       3.584   7.181  17.734  0.00  0.00    +0.000 C 
BRANCH  25  27
ATOM     27  C   UNL     1       5.122   5.647  18.848  0.00  0.00    +0.000 C 
BRANCH  27  28
ATOM     28  C   UNL     1       5.907   4.429  18.343  0.00  0.00    +0.000 C 
BRANCH  28  29
ATOM     29  O   UNL     1       5.576   3.272  19.108  0.00  0.00    +0.000 OA
ATOM     30  H   UNL     1       4.705   3.423  19.512  0.00  0.00    +0.000 HD
ENDBRANCH  28  29
ENDBRANCH  27  28
ENDBRANCH  25  27
ENDBRANCH  11  23
TORSDOF 6
ENDMDL
MODEL 7
REMARK VINA RESULT:      -6.1      5.767      7.934
REMARK  Name = 
REMARK  8 active torsions:
REMARK  status: ('A' for Active; 'I' for Inactive)
REMARK    1  A    between atoms: C_1  and  C_2
REMARK    2  A    between atoms: C_2  and  C_3
REMARK    3  A    between atoms: C_2  and  N_4
REMARK    4  A    between atoms: C_8  and  C_9
REMARK    5  A    between atoms: C_19  and  C_20
REMARK    6  A    between atoms: N_22  and  C_23
REMARK    7  A    between atoms: C_23  and  C_24
REMARK    8  A    between atoms: C_24  and  O_25
REMARK                            x       y       z     vdW  Elec       q    Type
REMARK                         _______ _______ _______ _____ _____    ______ ____
ROOT
ATOM      1  C   UNL     1      -3.760  13.011  23.334  0.00  0.00    +0.000 A 
ATOM      2  N   UNL     1      -2.956  12.143  22.769  0.00  0.00    +0.000 NA
ATOM      3  C   UNL     1      -1.701  12.719  22.537  0.00  0.00    +0.000 A 
ATOM      4  C   UNL     1      -1.599  14.025  22.978  0.00  0.00    +0.000 A 
ATOM      5  S   UNL     1      -2.987  14.454  23.883  0.00  0.00    +0.000 S 
ATOM      6  C   UNL     1      -0.617  15.051  22.543  0.00  0.00    +0.000 C 
ATOM      7  C   UNL     1      -0.706  15.122  21.019  0.00  0.00    +0.000 C 
ATOM      8  O   UNL     1       0.103  14.122  20.407  0.00  0.00    +0.000 OA
ATOM      9  C   UNL     1      -0.377  12.845  20.432  0.00  0.00    +0.000 A 
ATOM     10  C   UNL     1      -0.398  12.225  19.188  0.00  0.00    +0.000 A 
ATOM     11  C   UNL     1      -0.802  10.890  19.044  0.00  0.00    +0.000 A 
ATOM     12  C   UNL     1      -0.765  10.108  20.207  0.00  0.00    +0.000 A 
ATOM     13  C   UNL     1      -0.789  10.724  21.460  0.00  0.00    +0.000 A 
ATOM     14  C   UNL     1      -0.810  12.118  21.544  0.00  0.00    +0.000 A 
ENDROOT
BRANCH   1  19
ATOM     15  N   UNL     1      -6.087  13.281  22.434  0.00  0.00    +0.000 N 
ATOM     16  N   UNL     1      -7.367  13.092  22.859  0.00  0.00    +0.000 NA
ATOM     17  C   UNL     1      -7.172  12.628  24.091  0.00  0.00    +0.000 A 
ATOM     18  N   UNL     1      -5.870  12.487  24.464  0.00  0.00    +0.000 NA
ATOM     19  C   UNL     1      -5.196  12.888  23.397  0.00  0.00    +0.000 A 
BRANCH  15  21
ATOM     20  C   UNL     1      -5.510  12.819  20.109  0.00  0.00    +0.000 C 
ATOM     21  C   UNL     1      -5.858  13.895  21.130  0.00  0.00    +0.000 C 
ATOM     22  C   UNL     1      -7.033  14.750  20.636  0.00  0.00    +0.000 C 
ENDBRANCH  15  21
ENDBRANCH   1  19
BRANCH  11  23
ATOM     23  C   UNL     1      -1.448  10.441  17.684  0.00  0.00    +0.000 C 
ATOM     24  C   UNL     1      -2.749   9.636  17.652  0.00  0.00    +0.000 C 
ATOM     25  N   UNL     1      -3.170  10.375  16.437  0.00  0.00    +0.000 NA
ATOM     26  C   UNL     1      -2.163  11.422  16.737  0.00  0.00    +0.000 C 
BRANCH  25  27
ATOM     27  C   UNL     1      -2.812   9.616  15.228  0.00  0.00    +0.000 C 
BRANCH  27  28
ATOM     28  C   UNL     1      -3.658  10.033  14.018  0.00  0.00    +0.000 C 
BRANCH  28  29
ATOM     29  O   UNL     1      -2.947   9.792  12.806  0.00  0.00    +0.000 OA
ATOM     30  H   UNL     1      -2.013  10.012  12.962  0.00  0.00    +0.000 HD
ENDBRANCH  28  29
ENDBRANCH  27  28
ENDBRANCH  25  27
ENDBRANCH  11  23
TORSDOF 6
ENDMDL
MODEL 8
REMARK VINA RESULT:      -6.1      3.828      6.496
REMARK  Name = 
REMARK  8 active torsions:
REMARK  status: ('A' for Active; 'I' for Inactive)
REMARK    1  A    between atoms: C_1  and  C_2
REMARK    2  A    between atoms: C_2  and  C_3
REMARK    3  A    between atoms: C_2  and  N_4
REMARK    4  A    between atoms: C_8  and  C_9
REMARK    5  A    between atoms: C_19  and  C_20
REMARK    6  A    between atoms: N_22  and  C_23
REMARK    7  A    between atoms: C_23  and  C_24
REMARK    8  A    between atoms: C_24  and  O_25
REMARK                            x       y       z     vdW  Elec       q    Type
REMARK                         _______ _______ _______ _____ _____    ______ ____
ROOT
ATOM      1  C   UNL     1       2.072   6.969  19.679  0.00  0.00    +0.000 A 
ATOM      2  N   UNL     1       2.904   7.094  18.673  0.00  0.00    +0.000 NA
ATOM      3  C   UNL     1       3.548   5.876  18.418  0.00  0.00    +0.000 A 
ATOM      4  C   UNL     1       3.139   4.848  19.245  0.00  0.00    +0.000 A 
ATOM      5  S   UNL     1       1.794   5.342  20.182  0.00  0.00    +0.000 S 
ATOM      6  C   UNL     1       3.865   3.588  19.545  0.00  0.00    +0.000 C 
ATOM      7  C   UNL     1       5.260   3.992  20.026  0.00  0.00    +0.000 C 
ATOM      8  O   UNL     1       6.140   4.210  18.928  0.00  0.00    +0.000 OA
ATOM      9  C   UNL     1       5.980   5.374  18.235  0.00  0.00    +0.000 A 
ATOM     10  C   UNL     1       7.152   6.105  18.079  0.00  0.00    +0.000 A 
ATOM     11  C   UNL     1       7.177   7.294  17.337  0.00  0.00    +0.000 A 
ATOM     12  C   UNL     1       6.121   7.479  16.435  0.00  0.00    +0.000 A 
ATOM     13  C   UNL     1       4.925   6.782  16.613  0.00  0.00    +0.000 A 
ATOM     14  C   UNL     1       4.804   5.875  17.668  0.00  0.00    +0.000 A 
ENDROOT
BRANCH   1  19
ATOM     15  N   UNL     1       0.987   9.220  19.909  0.00  0.00    +0.000 N 
ATOM     16  N   UNL     1       0.626  10.074  20.905  0.00  0.00    +0.000 NA
ATOM     17  C   UNL     1       0.999   9.394  21.987  0.00  0.00    +0.000 A 
ATOM     18  N   UNL     1       1.544   8.169  21.748  0.00  0.00    +0.000 NA
ATOM     19  C   UNL     1       1.512   8.066  20.429  0.00  0.00    +0.000 A 
BRANCH  15  21
ATOM     20  C   UNL     1      -0.532  10.287  18.326  0.00  0.00    +0.000 C 
ATOM     21  C   UNL     1       0.837   9.648  18.522  0.00  0.00    +0.000 C 
ATOM     22  C   UNL     1       1.948  10.592  18.044  0.00  0.00    +0.000 C 
ENDBRANCH  15  21
ENDBRANCH   1  19
BRANCH  11  23
ATOM     23  C   UNL     1       8.236   8.394  17.714  0.00  0.00    +0.000 C 
ATOM     24  C   UNL     1       7.842   9.869  17.820  0.00  0.00    +0.000 C 
ATOM     25  N   UNL     1       8.774  10.030  18.963  0.00  0.00    +0.000 NA
ATOM     26  C   UNL     1       8.797   8.557  19.138  0.00  0.00    +0.000 C 
BRANCH  25  27
ATOM     27  C   UNL     1      10.074  10.535  18.493  0.00  0.00    +0.000 C 
BRANCH  27  28
ATOM     28  C   UNL     1      10.588  11.689  19.364  0.00  0.00    +0.000 C 
BRANCH  28  29
ATOM     29  O   UNL     1      10.413  11.385  20.746  0.00  0.00    +0.000 OA
ATOM     30  H   UNL     1       9.498  11.608  20.985  0.00  0.00    +0.000 HD
ENDBRANCH  28  29
ENDBRANCH  27  28
ENDBRANCH  25  27
ENDBRANCH  11  23
TORSDOF 6
ENDMDL
MODEL 9
REMARK VINA RESULT:      -5.8      4.670      7.887
REMARK  Name = 
REMARK  8 active torsions:
REMARK  status: ('A' for Active; 'I' for Inactive)
REMARK    1  A    between atoms: C_1  and  C_2
REMARK    2  A    between atoms: C_2  and  C_3
REMARK    3  A    between atoms: C_2  and  N_4
REMARK    4  A    between atoms: C_8  and  C_9
REMARK    5  A    between atoms: C_19  and  C_20
REMARK    6  A    between atoms: N_22  and  C_23
REMARK    7  A    between atoms: C_23  and  C_24
REMARK    8  A    between atoms: C_24  and  O_25
REMARK                            x       y       z     vdW  Elec       q    Type
REMARK                         _______ _______ _______ _____ _____    ______ ____
ROOT
ATOM      1  C   UNL     1       7.961  14.598  18.337  0.00  0.00    +0.000 A 
ATOM      2  N   UNL     1       6.688  14.511  18.034  0.00  0.00    +0.000 NA
ATOM      3  C   UNL     1       6.011  15.670  18.433  0.00  0.00    +0.000 A 
ATOM      4  C   UNL     1       6.831  16.623  19.008  0.00  0.00    +0.000 A 
ATOM      5  S   UNL     1       8.473  16.168  18.841  0.00  0.00    +0.000 S 
ATOM      6  C   UNL     1       6.429  17.743  19.896  0.00  0.00    +0.000 C 
ATOM      7  C   UNL     1       5.628  17.124  21.042  0.00  0.00    +0.000 C 
ATOM      8  O   UNL     1       4.261  16.951  20.681  0.00  0.00    +0.000 OA
ATOM      9  C   UNL     1       3.974  15.912  19.845  0.00  0.00    +0.000 A 
ATOM     10  C   UNL     1       2.960  15.080  20.305  0.00  0.00    +0.000 A 
ATOM     11  C   UNL     1       2.498  14.001  19.539  0.00  0.00    +0.000 A 
ATOM     12  C   UNL     1       2.779  14.055  18.167  0.00  0.00    +0.000 A 
ATOM     13  C   UNL     1       3.825  14.856  17.703  0.00  0.00    +0.000 A 
ATOM     14  C   UNL     1       4.559  15.625  18.608  0.00  0.00    +0.000 A 
ENDROOT
BRANCH   1  19
ATOM     15  N   UNL     1       9.282  12.826  19.525  0.00  0.00    +0.000 N 
ATOM     16  N   UNL     1      10.212  11.879  19.220  0.00  0.00    +0.000 NA
ATOM     17  C   UNL     1      10.346  12.052  17.907  0.00  0.00    +0.000 A 
ATOM     18  N   UNL     1       9.556  13.015  17.360  0.00  0.00    +0.000 NA
ATOM     19  C   UNL     1       8.875  13.484  18.394  0.00  0.00    +0.000 A 
BRANCH  15  21
ATOM     20  C   UNL     1       8.822  11.699  21.639  0.00  0.00    +0.000 C 
ATOM     21  C   UNL     1       8.922  13.040  20.923  0.00  0.00    +0.000 C 
ATOM     22  C   UNL     1       9.878  13.982  21.669  0.00  0.00    +0.000 C 
ENDBRANCH  15  21
ENDBRANCH   1  19
BRANCH  11  23
ATOM     23  C   UNL     1       1.905  12.748  20.281  0.00  0.00    +0.000 C 
ATOM     24  C   UNL     1       0.648  12.861  21.146  0.00  0.00    +0.000 C 
ATOM     25  N   UNL     1       0.216  11.518  20.683  0.00  0.00    +0.000 NA
ATOM     26  C   UNL     1       1.163  11.618  19.545  0.00  0.00    +0.000 C 
BRANCH  25  27
ATOM     27  C   UNL     1       0.639  10.488  21.645  0.00  0.00    +0.000 C 
BRANCH  27  28
ATOM     28  C   UNL     1      -0.542   9.638  22.130  0.00  0.00    +0.000 C 
BRANCH  28  29
ATOM     29  O   UNL     1      -0.416   9.358  23.522  0.00  0.00    +0.000 OA
ATOM     30  H   UNL     1      -0.451  10.204  23.999  0.00  0.00    +0.000 HD
ENDBRANCH  28  29
ENDBRANCH  27  28
ENDBRANCH  25  27
ENDBRANCH  11  23
TORSDOF 6
ENDMDL
