MODEL 1
REMARK VINA RESULT:      -6.8      0.000      0.000
REMARK  Name = 
REMARK  6 active torsions:
REMARK  status: ('A' for Active; 'I' for Inactive)
REMARK    1  A    between atoms: C_1  and  O_2
REMARK    2  A    between atoms: O_2  and  C_3
REMARK    3  A    between atoms: C_8  and  S_9
REMARK    4  A    between atoms: S_9  and  C_10
REMARK    5  A    between atoms: C_10  and  C_11
REMARK    6  A    between atoms: C_10  and  C_12
REMARK                            x       y       z     vdW  Elec       q    Type
REMARK                         _______ _______ _______ _____ _____    ______ ____
ROOT
ATOM      1  C   UNL     1       5.161   5.433  17.904  0.00  0.00    +0.000 C 
ATOM      2  C   UNL     1       5.325   4.891  19.326  0.00  0.00    +0.000 C 
ENDROOT
BRANCH   1   3
ATOM      3  C   UNL     1       5.331   4.303  16.864  0.00  0.00    +0.000 C 
ATOM      4  O   UNL     1       4.714   3.234  16.941  0.00  0.00    +0.000 OA
ATOM      5  N   UNL     1       6.201   4.535  15.804  0.00  0.00    +0.000 N 
ATOM      6  C   UNL     1       6.225   3.677  14.635  0.00  0.00    +0.000 C 
ATOM      7  C   UNL     1       6.826   4.568  13.562  0.00  0.00    +0.000 C 
ATOM      8  N   UNL     1       7.619   5.490  14.318  0.00  0.00    +0.000 N 
ATOM      9  C   UNL     1       7.168   5.550  15.633  0.00  0.00    +0.000 C 
ATOM     10  O   UNL     1       7.597   6.344  16.450  0.00  0.00    +0.000 OA
ATOM     11  H   UNL     1       8.145   6.274  13.951  0.00  0.00    +0.000 HD
ENDBRANCH   1   3
BRANCH   1  12
ATOM     12  S   UNL     1       3.449   6.111  17.693  0.00  0.00    +0.000 S 
BRANCH  12  18
ATOM     13  C   UNL     1       1.948   5.288  20.033  0.00  0.00    +0.000 A 
ATOM     14  C   UNL     1       1.153   4.311  20.660  0.00  0.00    +0.000 A 
ATOM     15  C   UNL     1       0.707   3.189  19.966  0.00  0.00    +0.000 A 
ATOM     16  C   UNL     1       1.057   3.023  18.635  0.00  0.00    +0.000 A 
ATOM     17  C   UNL     1       1.890   3.956  18.018  0.00  0.00    +0.000 A 
ATOM     18  C   UNL     1       2.377   5.083  18.707  0.00  0.00    +0.000 A 
BRANCH  13  20
ATOM     19  C   UNL     1       1.316   7.433  20.826  0.00  0.00    +0.000 C 
ATOM     20  O   UNL     1       2.323   6.431  20.689  0.00  0.00    +0.000 OA
ENDBRANCH  13  20
ENDBRANCH  12  18
ENDBRANCH   1  12
TORSDOF 4
ENDMDL
MODEL 2
REMARK VINA RESULT:      -6.7      2.056      2.796
REMARK  Name = 
REMARK  6 active torsions:
REMARK  status: ('A' for Active; 'I' for Inactive)
REMARK    1  A    between atoms: C_1  and  O_2
REMARK    2  A    between atoms: O_2  and  C_3
REMARK    3  A    between atoms: C_8  and  S_9
REMARK    4  A    between atoms: S_9  and  C_10
REMARK    5  A    between atoms: C_10  and  C_11
REMARK    6  A    between atoms: C_10  and  C_12
REMARK                            x       y       z     vdW  Elec       q    Type
REMARK                         _______ _______ _______ _____ _____    ______ ____
ROOT
ATOM      1  C   UNL     1       4.849   5.210  17.509  0.00  0.00    +0.000 C 
ATOM      2  C   UNL     1       4.826   3.948  16.643  0.00  0.00    +0.000 C 
ENDROOT
BRANCH   1   3
ATOM      3  C   UNL     1       5.747   6.294  16.870  0.00  0.00    +0.000 C 
ATOM      4  O   UNL     1       5.476   6.825  15.788  0.00  0.00    +0.000 OA
ATOM      5  N   UNL     1       6.884   6.679  17.575  0.00  0.00    +0.000 N 
ATOM      6  C   UNL     1       7.635   7.867  17.219  0.00  0.00    +0.000 C 
ATOM      7  C   UNL     1       8.364   8.216  18.505  0.00  0.00    +0.000 C 
ATOM      8  N   UNL     1       8.474   6.949  19.164  0.00  0.00    +0.000 N 
ATOM      9  C   UNL     1       7.511   6.068  18.682  0.00  0.00    +0.000 C 
ATOM     10  O   UNL     1       7.318   4.965  19.159  0.00  0.00    +0.000 OA
ATOM     11  H   UNL     1       8.868   6.780  20.082  0.00  0.00    +0.000 HD
ENDBRANCH   1   3
BRANCH   1  12
ATOM     12  S   UNL     1       3.141   5.918  17.619  0.00  0.00    +0.000 S 
BRANCH  12  18
ATOM     13  C   UNL     1       1.940   4.963  20.080  0.00  0.00    +0.000 A 
ATOM     14  C   UNL     1       1.244   3.942  20.752  0.00  0.00    +0.000 A 
ATOM     15  C   UNL     1       0.745   2.836  20.067  0.00  0.00    +0.000 A 
ATOM     16  C   UNL     1       0.943   2.733  18.699  0.00  0.00    +0.000 A 
ATOM     17  C   UNL     1       1.677   3.711  18.030  0.00  0.00    +0.000 A 
ATOM     18  C   UNL     1       2.217   4.822  18.706  0.00  0.00    +0.000 A 
BRANCH  13  20
ATOM     19  C   UNL     1       1.434   7.172  20.785  0.00  0.00    +0.000 C 
ATOM     20  O   UNL     1       2.363   6.089  20.736  0.00  0.00    +0.000 OA
ENDBRANCH  13  20
ENDBRANCH  12  18
ENDBRANCH   1  12
TORSDOF 4
ENDMDL
MODEL 3
REMARK VINA RESULT:      -6.6      2.534      3.561
REMARK  Name = 
REMARK  6 active torsions:
REMARK  status: ('A' for Active; 'I' for Inactive)
REMARK    1  A    between atoms: C_1  and  O_2
REMARK    2  A    between atoms: O_2  and  C_3
REMARK    3  A    between atoms: C_8  and  S_9
REMARK    4  A    between atoms: S_9  and  C_10
REMARK    5  A    between atoms: C_10  and  C_11
REMARK    6  A    between atoms: C_10  and  C_12
REMARK                            x       y       z     vdW  Elec       q    Type
REMARK                         _______ _______ _______ _____ _____    ______ ____
ROOT
ATOM      1  C   UNL     1       5.183   4.931  17.679  0.00  0.00    +0.000 C 
ATOM      2  C   UNL     1       4.216   4.205  16.742  0.00  0.00    +0.000 C 
ENDROOT
BRANCH   1   3
ATOM      3  C   UNL     1       5.932   6.055  16.929  0.00  0.00    +0.000 C 
ATOM      4  O   UNL     1       5.587   6.448  15.809  0.00  0.00    +0.000 OA
ATOM      5  N   UNL     1       7.018   6.640  17.573  0.00  0.00    +0.000 N 
ATOM      6  C   UNL     1       7.612   7.875  17.097  0.00  0.00    +0.000 C 
ATOM      7  C   UNL     1       8.303   8.426  18.332  0.00  0.00    +0.000 C 
ATOM      8  N   UNL     1       8.578   7.248  19.099  0.00  0.00    +0.000 N 
ATOM      9  C   UNL     1       7.728   6.214  18.717  0.00  0.00    +0.000 C 
ATOM     10  O   UNL     1       7.679   5.144  19.294  0.00  0.00    +0.000 OA
ATOM     11  H   UNL     1       8.998   7.213  20.019  0.00  0.00    +0.000 HD
ENDBRANCH   1   3
BRANCH   1  12
ATOM     12  S   UNL     1       4.231   5.735  19.050  0.00  0.00    +0.000 S 
BRANCH  12  18
ATOM     13  C   UNL     1       3.452   3.144  20.093  0.00  0.00    +0.000 A 
ATOM     14  C   UNL     1       2.422   2.295  20.534  0.00  0.00    +0.000 A 
ATOM     15  C   UNL     1       1.118   2.761  20.689  0.00  0.00    +0.000 A 
ATOM     16  C   UNL     1       0.825   4.084  20.396  0.00  0.00    +0.000 A 
ATOM     17  C   UNL     1       1.826   4.922  19.907  0.00  0.00    +0.000 A 
ATOM     18  C   UNL     1       3.144   4.466  19.714  0.00  0.00    +0.000 A 
BRANCH  13  20
ATOM     19  C   UNL     1       5.051   1.507  20.721  0.00  0.00    +0.000 C 
ATOM     20  O   UNL     1       4.749   2.711  20.016  0.00  0.00    +0.000 OA
ENDBRANCH  13  20
ENDBRANCH  12  18
ENDBRANCH   1  12
TORSDOF 4
ENDMDL
MODEL 4
REMARK VINA RESULT:      -6.5      2.107      2.384
REMARK  Name = 
REMARK  6 active torsions:
REMARK  status: ('A' for Active; 'I' for Inactive)
REMARK    1  A    between atoms: C_1  and  O_2
REMARK    2  A    between atoms: O_2  and  C_3
REMARK    3  A    between atoms: C_8  and  S_9
REMARK    4  A    between atoms: S_9  and  C_10
REMARK    5  A    between atoms: C_10  and  C_11
REMARK    6  A    between atoms: C_10  and  C_12
REMARK                            x       y       z     vdW  Elec       q    Type
REMARK                         _______ _______ _______ _____ _____    ______ ____
ROOT
ATOM      1  C   UNL     1       6.787   5.977  18.105  0.00  0.00    +0.000 C 
ATOM      2  C   UNL     1       7.984   6.658  18.773  0.00  0.00    +0.000 C 
ENDROOT
BRANCH   1   3
ATOM      3  C   UNL     1       7.260   4.956  17.046  0.00  0.00    +0.000 C 
ATOM      4  O   UNL     1       8.220   4.201  17.236  0.00  0.00    +0.000 OA
ATOM      5  N   UNL     1       6.546   4.894  15.854  0.00  0.00    +0.000 N 
ATOM      6  C   UNL     1       6.717   3.798  14.919  0.00  0.00    +0.000 C 
ATOM      7  C   UNL     1       5.420   3.810  14.128  0.00  0.00    +0.000 C 
ATOM      8  N   UNL     1       4.999   5.176  14.223  0.00  0.00    +0.000 N 
ATOM      9  C   UNL     1       5.590   5.788  15.324  0.00  0.00    +0.000 C 
ATOM     10  O   UNL     1       5.307   6.913  15.693  0.00  0.00    +0.000 OA
ATOM     11  H   UNL     1       4.142   5.569  13.853  0.00  0.00    +0.000 HD
ENDBRANCH   1   3
BRANCH   1  12
ATOM     12  S   UNL     1       5.822   5.034  19.374  0.00  0.00    +0.000 S 
BRANCH  12  18
ATOM     13  C   UNL     1       3.147   5.581  18.398  0.00  0.00    +0.000 A 
ATOM     14  C   UNL     1       1.948   5.083  17.858  0.00  0.00    +0.000 A 
ATOM     15  C   UNL     1       1.829   3.751  17.468  0.00  0.00    +0.000 A 
ATOM     16  C   UNL     1       2.909   2.895  17.620  0.00  0.00    +0.000 A 
ATOM     17  C   UNL     1       4.086   3.363  18.204  0.00  0.00    +0.000 A 
ATOM     18  C   UNL     1       4.219   4.697  18.633  0.00  0.00    +0.000 A 
BRANCH  13  20
ATOM     19  C   UNL     1       2.375   7.803  18.081  0.00  0.00    +0.000 C 
ATOM     20  O   UNL     1       3.292   6.907  18.709  0.00  0.00    +0.000 OA
ENDBRANCH  13  20
ENDBRANCH  12  18
ENDBRANCH   1  12
TORSDOF 4
ENDMDL
MODEL 5
REMARK VINA RESULT:      -6.5      2.350      3.598
REMARK  Name = 
REMARK  6 active torsions:
REMARK  status: ('A' for Active; 'I' for Inactive)
REMARK    1  A    between atoms: C_1  and  O_2
REMARK    2  A    between atoms: O_2  and  C_3
REMARK    3  A    between atoms: C_8  and  S_9
REMARK    4  A    between atoms: S_9  and  C_10
REMARK    5  A    between atoms: C_10  and  C_11
REMARK    6  A    between atoms: C_10  and  C_12
REMARK                            x       y       z     vdW  Elec       q    Type
REMARK                         _______ _______ _______ _____ _____    ______ ____
ROOT
ATOM      1  C   UNL     1       5.037   5.232  17.721  0.00  0.00    +0.000 C 
ATOM      2  C   UNL     1       5.133   3.920  16.938  0.00  0.00    +0.000 C 
ENDROOT
BRANCH   1   3
ATOM      3  C   UNL     1       5.807   6.359  16.996  0.00  0.00    +0.000 C 
ATOM      4  O   UNL     1       5.429   6.832  15.918  0.00  0.00    +0.000 OA
ATOM      5  N   UNL     1       6.951   6.852  17.615  0.00  0.00    +0.000 N 
ATOM      6  C   UNL     1       7.584   8.082  17.178  0.00  0.00    +0.000 C 
ATOM      7  C   UNL     1       8.361   8.527  18.405  0.00  0.00    +0.000 C 
ATOM      8  N   UNL     1       8.610   7.295  19.091  0.00  0.00    +0.000 N 
ATOM      9  C   UNL     1       7.691   6.328  18.697  0.00  0.00    +0.000 C 
ATOM     10  O   UNL     1       7.614   5.230  19.217  0.00  0.00    +0.000 OA
ATOM     11  H   UNL     1       9.072   7.187  19.986  0.00  0.00    +0.000 HD
ENDBRANCH   1   3
BRANCH   1  12
ATOM     12  S   UNL     1       3.265   5.764  17.823  0.00  0.00    +0.000 S 
BRANCH  12  18
ATOM     13  C   UNL     1       1.795   3.488  18.854  0.00  0.00    +0.000 A 
ATOM     14  C   UNL     1       1.212   2.844  19.960  0.00  0.00    +0.000 A 
ATOM     15  C   UNL     1       1.388   3.329  21.254  0.00  0.00    +0.000 A 
ATOM     16  C   UNL     1       2.145   4.473  21.458  0.00  0.00    +0.000 A 
ATOM     17  C   UNL     1       2.682   5.151  20.365  0.00  0.00    +0.000 A 
ATOM     18  C   UNL     1       2.493   4.696  19.046  0.00  0.00    +0.000 A 
BRANCH  13  20
ATOM     19  C   UNL     1       2.572   1.891  17.279  0.00  0.00    +0.000 C 
ATOM     20  O   UNL     1       1.690   2.969  17.590  0.00  0.00    +0.000 OA
ENDBRANCH  13  20
ENDBRANCH  12  18
ENDBRANCH   1  12
TORSDOF 4
ENDMDL
MODEL 6
REMARK VINA RESULT:      -6.5      3.153      6.312
REMARK  Name = 
REMARK  6 active torsions:
REMARK  status: ('A' for Active; 'I' for Inactive)
REMARK    1  A    between atoms: C_1  and  O_2
REMARK    2  A    between atoms: O_2  and  C_3
REMARK    3  A    between atoms: C_8  and  S_9
REMARK    4  A    between atoms: S_9  and  C_10
REMARK    5  A    between atoms: C_10  and  C_11
REMARK    6  A    between atoms: C_10  and  C_12
REMARK                            x       y       z     vdW  Elec       q    Type
REMARK                         _______ _______ _______ _____ _____    ______ ____
ROOT
ATOM      1  C   UNL     1       3.789   3.398  17.741  0.00  0.00    +0.000 C 
ATOM      2  C   UNL     1       5.037   3.040  16.931  0.00  0.00    +0.000 C 
ENDROOT
BRANCH   1   3
ATOM      3  C   UNL     1       3.858   2.778  19.155  0.00  0.00    +0.000 C 
ATOM      4  O   UNL     1       4.919   2.389  19.656  0.00  0.00    +0.000 OA
ATOM      5  N   UNL     1       2.670   2.690  19.873  0.00  0.00    +0.000 N 
ATOM      6  C   UNL     1       2.657   2.395  21.293  0.00  0.00    +0.000 C 
ATOM      7  C   UNL     1       1.321   2.952  21.752  0.00  0.00    +0.000 C 
ATOM      8  N   UNL     1       0.522   2.888  20.564  0.00  0.00    +0.000 N 
ATOM      9  C   UNL     1       1.336   2.844  19.437  0.00  0.00    +0.000 C 
ATOM     10  O   UNL     1       0.904   2.903  18.300  0.00  0.00    +0.000 OA
ATOM     11  H   UNL     1      -0.430   3.215  20.462  0.00  0.00    +0.000 HD
ENDBRANCH   1   3
BRANCH   1  12
ATOM     12  S   UNL     1       3.696   5.235  17.957  0.00  0.00    +0.000 S 
BRANCH  12  18
ATOM     13  C   UNL     1       6.141   6.540  17.103  0.00  0.00    +0.000 A 
ATOM     14  C   UNL     1       7.491   6.835  17.364  0.00  0.00    +0.000 A 
ATOM     15  C   UNL     1       8.082   6.501  18.581  0.00  0.00    +0.000 A 
ATOM     16  C   UNL     1       7.330   5.859  19.553  0.00  0.00    +0.000 A 
ATOM     17  C   UNL     1       6.006   5.513  19.287  0.00  0.00    +0.000 A 
ATOM     18  C   UNL     1       5.396   5.813  18.053  0.00  0.00    +0.000 A 
BRANCH  13  20
ATOM     19  C   UNL     1       5.500   5.969  14.891  0.00  0.00    +0.000 C 
ATOM     20  O   UNL     1       5.536   6.936  15.940  0.00  0.00    +0.000 OA
ENDBRANCH  13  20
ENDBRANCH  12  18
ENDBRANCH   1  12
TORSDOF 4
ENDMDL
MODEL 7
REMARK VINA RESULT:      -6.4      2.191      3.019
REMARK  Name = 
REMARK  6 active torsions:
REMARK  status: ('A' for Active; 'I' for Inactive)
REMARK    1  A    between atoms: C_1  and  O_2
REMARK    2  A    between atoms: O_2  and  C_3
REMARK    3  A    between atoms: C_8  and  S_9
REMARK    4  A    between atoms: S_9  and  C_10
REMARK    5  A    between atoms: C_10  and  C_11
REMARK    6  A    between atoms: C_10  and  C_12
REMARK                            x       y       z     vdW  Elec       q    Type
REMARK                         _______ _______ _______ _____ _____    ______ ____
ROOT
ATOM      1  C   UNL     1       6.750   5.988  18.031  0.00  0.00    +0.000 C 
ATOM      2  C   UNL     1       7.928   6.769  18.617  0.00  0.00    +0.000 C 
ENDROOT
BRANCH   1   3
ATOM      3  C   UNL     1       7.242   4.957  16.990  0.00  0.00    +0.000 C 
ATOM      4  O   UNL     1       8.188   4.193  17.210  0.00  0.00    +0.000 OA
ATOM      5  N   UNL     1       6.559   4.895  15.779  0.00  0.00    +0.000 N 
ATOM      6  C   UNL     1       6.744   3.794  14.854  0.00  0.00    +0.000 C 
ATOM      7  C   UNL     1       5.469   3.814  14.029  0.00  0.00    +0.000 C 
ATOM      8  N   UNL     1       5.060   5.185  14.106  0.00  0.00    +0.000 N 
ATOM      9  C   UNL     1       5.626   5.797  15.220  0.00  0.00    +0.000 C 
ATOM     10  O   UNL     1       5.345   6.926  15.576  0.00  0.00    +0.000 OA
ATOM     11  H   UNL     1       4.217   5.584  13.711  0.00  0.00    +0.000 HD
ENDBRANCH   1   3
BRANCH   1  12
ATOM     12  S   UNL     1       5.905   5.038  19.378  0.00  0.00    +0.000 S 
BRANCH  12  18
ATOM     13  C   UNL     1       3.458   3.601  18.782  0.00  0.00    +0.000 A 
ATOM     14  C   UNL     1       2.157   3.628  18.249  0.00  0.00    +0.000 A 
ATOM     15  C   UNL     1       1.565   4.823  17.848  0.00  0.00    +0.000 A 
ATOM     16  C   UNL     1       2.271   6.010  17.968  0.00  0.00    +0.000 A 
ATOM     17  C   UNL     1       3.581   5.991  18.444  0.00  0.00    +0.000 A 
ATOM     18  C   UNL     1       4.211   4.791  18.827  0.00  0.00    +0.000 A 
BRANCH  13  20
ATOM     19  C   UNL     1       3.740   1.263  18.489  0.00  0.00    +0.000 C 
ATOM     20  O   UNL     1       4.013   2.439  19.250  0.00  0.00    +0.000 OA
ENDBRANCH  13  20
ENDBRANCH  12  18
ENDBRANCH   1  12
TORSDOF 4
ENDMDL
MODEL 8
REMARK VINA RESULT:      -6.4      2.028      2.634
REMARK  Name = 
REMARK  6 active torsions:
REMARK  status: ('A' for Active; 'I' for Inactive)
REMARK    1  A    between atoms: C_1  and  O_2
REMARK    2  A    between atoms: O_2  and  C_3
REMARK    3  A    between atoms: C_8  and  S_9
REMARK    4  A    between atoms: S_9  and  C_10
REMARK    5  A    between atoms: C_10  and  C_11
REMARK    6  A    between atoms: C_10  and  C_12
REMARK                            x       y       z     vdW  Elec       q    Type
REMARK                         _______ _______ _______ _____ _____    ______ ____
ROOT
ATOM      1  C   UNL     1       6.324   5.291  18.461  0.00  0.00    +0.000 C 
ATOM      2  C   UNL     1       7.253   5.603  19.637  0.00  0.00    +0.000 C 
ENDROOT
BRANCH   1   3
ATOM      3  C   UNL     1       7.128   4.744  17.260  0.00  0.00    +0.000 C 
ATOM      4  O   UNL     1       8.222   4.185  17.394  0.00  0.00    +0.000 OA
ATOM      5  N   UNL     1       6.563   4.881  15.996  0.00  0.00    +0.000 N 
ATOM      6  C   UNL     1       7.082   4.166  14.846  0.00  0.00    +0.000 C 
ATOM      7  C   UNL     1       5.900   4.134  13.894  0.00  0.00    +0.000 C 
ATOM      8  N   UNL     1       5.150   5.294  14.275  0.00  0.00    +0.000 N 
ATOM      9  C   UNL     1       5.469   5.670  15.576  0.00  0.00    +0.000 C 
ATOM     10  O   UNL     1       4.887   6.554  16.176  0.00  0.00    +0.000 OA
ATOM     11  H   UNL     1       4.261   5.589  13.890  0.00  0.00    +0.000 HD
ENDBRANCH   1   3
BRANCH   1  12
ATOM     12  S   UNL     1       5.121   3.971  18.954  0.00  0.00    +0.000 S 
BRANCH  12  18
ATOM     13  C   UNL     1       2.690   4.355  20.488  0.00  0.00    +0.000 A 
ATOM     14  C   UNL     1       1.604   5.185  20.817  0.00  0.00    +0.000 A 
ATOM     15  C   UNL     1       1.533   6.498  20.355  0.00  0.00    +0.000 A 
ATOM     16  C   UNL     1       2.546   6.996  19.551  0.00  0.00    +0.000 A 
ATOM     17  C   UNL     1       3.601   6.167  19.173  0.00  0.00    +0.000 A 
ATOM     18  C   UNL     1       3.679   4.828  19.603  0.00  0.00    +0.000 A 
BRANCH  13  20
ATOM     19  C   UNL     1       1.636   2.564  21.634  0.00  0.00    +0.000 C 
ATOM     20  O   UNL     1       2.803   3.091  21.004  0.00  0.00    +0.000 OA
ENDBRANCH  13  20
ENDBRANCH  12  18
ENDBRANCH   1  12
TORSDOF 4
ENDMDL
MODEL 9
REMARK VINA RESULT:      -6.3      2.372      3.674
REMARK  Name = 
REMARK  6 active torsions:
REMARK  status: ('A' for Active; 'I' for Inactive)
REMARK    1  A    between atoms: C_1  and  O_2
REMARK    2  A    between atoms: O_2  and  C_3
REMARK    3  A    between atoms: C_8  and  S_9
REMARK    4  A    between atoms: S_9  and  C_10
REMARK    5  A    between atoms: C_10  and  C_11
REMARK    6  A    between atoms: C_10  and  C_12
REMARK                            x       y       z     vdW  Elec       q    Type
REMARK                         _______ _______ _______ _____ _____    ______ ____
ROOT
ATOM      1  C   UNL     1       5.192   4.975  17.095  0.00  0.00    +0.000 C 
ATOM      2  C   UNL     1       5.160   3.924  15.983  0.00  0.00    +0.000 C 
ENDROOT
BRANCH   1   3
ATOM      3  C   UNL     1       5.965   6.232  16.636  0.00  0.00    +0.000 C 
ATOM      4  O   UNL     1       5.662   6.860  15.615  0.00  0.00    +0.000 OA
ATOM      5  N   UNL     1       7.022   6.659  17.433  0.00  0.00    +0.000 N 
ATOM      6  C   UNL     1       7.628   7.966  17.261  0.00  0.00    +0.000 C 
ATOM      7  C   UNL     1       8.268   8.234  18.612  0.00  0.00    +0.000 C 
ATOM      8  N   UNL     1       8.517   6.916  19.115  0.00  0.00    +0.000 N 
ATOM      9  C   UNL     1       7.688   5.993  18.485  0.00  0.00    +0.000 C 
ATOM     10  O   UNL     1       7.622   4.823  18.814  0.00  0.00    +0.000 OA
ATOM     11  H   UNL     1       8.902   6.681  20.022  0.00  0.00    +0.000 HD
ENDBRANCH   1   3
BRANCH   1  12
ATOM     12  S   UNL     1       3.464   5.515  17.488  0.00  0.00    +0.000 S 
BRANCH  12  18
ATOM     13  C   UNL     1       3.327   3.373  19.438  0.00  0.00    +0.000 A 
ATOM     14  C   UNL     1       2.815   2.901  20.659  0.00  0.00    +0.000 A 
ATOM     15  C   UNL     1       2.082   3.731  21.504  0.00  0.00    +0.000 A 
ATOM     16  C   UNL     1       1.844   5.046  21.134  0.00  0.00    +0.000 A 
ATOM     17  C   UNL     1       2.300   5.510  19.901  0.00  0.00    +0.000 A 
ATOM     18  C   UNL     1       3.017   4.681  19.017  0.00  0.00    +0.000 A 
BRANCH  13  20
ATOM     19  C   UNL     1       3.644   1.255  18.415  0.00  0.00    +0.000 C 
ATOM     20  O   UNL     1       4.114   2.583  18.642  0.00  0.00    +0.000 OA
ENDBRANCH  13  20
ENDBRANCH  12  18
ENDBRANCH   1  12
TORSDOF 4
ENDMDL
