MODEL 1
REMARK VINA RESULT:      -8.1      0.000      0.000
REMARK  Name = 
REMARK  13 active torsions:
REMARK  status: ('A' for Active; 'I' for Inactive)
REMARK    1  A    between atoms: C_1  and  C_2
REMARK    2  A    between atoms: C_2  and  C_3
REMARK    3  A    between atoms: C_3  and  C_4
REMARK    4  A    between atoms: C_4  and  C_5
REMARK    5  A    between atoms: C_5  and  C_6
REMARK    6  A    between atoms: C_7  and  C_8
REMARK    7  A    between atoms: C_7  and  C_19
REMARK    8  A    between atoms: C_12  and  O_13
REMARK    9  A    between atoms: C_14  and  C_15
REMARK   10  A    between atoms: C_15  and  O_17
REMARK   11  A    between atoms: C_23  and  O_24
REMARK   12  A    between atoms: C_25  and  C_26
REMARK   13  A    between atoms: C_26  and  O_28
REMARK                            x       y       z     vdW  Elec       q    Type
REMARK                         _______ _______ _______ _____ _____    ______ ____
ROOT
ATOM      1  C   UNL     1       1.716   4.872  18.089  0.00  0.00    +0.000 C 
ATOM      2  C   UNL     1       2.692   5.804  18.161  0.00  0.00    +0.000 C 
ENDROOT
BRANCH   2   3
ATOM      3  C   UNL     1       4.081   5.470  17.772  0.00  0.00    +0.000 A 
ATOM      4  C   UNL     1       4.340   4.810  16.565  0.00  0.00    +0.000 A 
ATOM      5  C   UNL     1       5.654   4.515  16.204  0.00  0.00    +0.000 A 
ATOM      6 CL   UNL     1       5.952   3.696  14.714  0.00  0.00    +0.000 Cl
ATOM      7  C   UNL     1       6.723   4.881  17.030  0.00  0.00    +0.000 A 
ATOM      8  C   UNL     1       6.483   5.564  18.228  0.00  0.00    +0.000 A 
ATOM      9  C   UNL     1       5.155   5.846  18.593  0.00  0.00    +0.000 A 
BRANCH   7  10
ATOM     10  O   UNL     1       8.014   4.572  16.665  0.00  0.00    +0.000 OA
ATOM     11  H   UNL     1       8.218   3.691  17.048  0.00  0.00    +0.000 HD
ENDBRANCH   7  10
BRANCH   8  12
ATOM     12  C   UNL     1       7.556   6.028  19.155  0.00  0.00    +0.000 C 
ATOM     13  O   UNL     1       8.343   6.909  18.847  0.00  0.00    +0.000 OA
BRANCH  12  14
ATOM     14  O   UNL     1       7.607   5.400  20.348  0.00  0.00    +0.000 OA
ATOM     15  H   UNL     1       8.047   4.523  20.302  0.00  0.00    +0.000 HD
ENDBRANCH  12  14
ENDBRANCH   8  12
ENDBRANCH   2   3
BRANCH   2  16
ATOM     16  C   UNL     1       2.300   7.128  18.654  0.00  0.00    +0.000 A 
ATOM     17  C   UNL     1       2.554   8.260  17.879  0.00  0.00    +0.000 A 
ATOM     18  C   UNL     1       2.176   9.512  18.353  0.00  0.00    +0.000 A 
ATOM     19 CL   UNL     1       2.495  10.904  17.389  0.00  0.00    +0.000 Cl
ATOM     20  C   UNL     1       1.544   9.644  19.600  0.00  0.00    +0.000 A 
ATOM     21  C   UNL     1       1.277   8.514  20.379  0.00  0.00    +0.000 A 
ATOM     22  C   UNL     1       1.660   7.253  19.895  0.00  0.00    +0.000 A 
BRANCH  20  23
ATOM     23  O   UNL     1       1.184  10.892  20.055  0.00  0.00    +0.000 OA
ATOM     24  H   UNL     1       1.713  11.539  19.545  0.00  0.00    +0.000 HD
ENDBRANCH  20  23
BRANCH  21  25
ATOM     25  C   UNL     1       0.599   8.543  21.708  0.00  0.00    +0.000 C 
ATOM     26  O   UNL     1      -0.478   8.002  21.902  0.00  0.00    +0.000 OA
BRANCH  25  27
ATOM     27  O   UNL     1       1.262   9.207  22.676  0.00  0.00    +0.000 OA
ATOM     28  H   UNL     1       1.815   9.941  22.327  0.00  0.00    +0.000 HD
ENDBRANCH  25  27
ENDBRANCH  21  25
ENDBRANCH   2  16
BRANCH   1  29
ATOM     29  C   UNL     1       1.988   3.463  17.672  0.00  0.00    +0.000 C 
BRANCH  29  30
ATOM     30  C   UNL     1       1.533   2.371  18.636  0.00  0.00    +0.000 C 
BRANCH  30  31
ATOM     31  C   UNL     1       0.766   3.000  19.807  0.00  0.00    +0.000 C 
BRANCH  31  33
ATOM     32  C   UNL     1       2.309   3.885  21.601  0.00  0.00    +0.000 C 
ATOM     33  C   UNL     1       1.423   2.735  21.168  0.00  0.00    +0.000 C 
ENDBRANCH  31  33
ENDBRANCH  30  31
ENDBRANCH  29  30
ENDBRANCH   1  29
TORSDOF 12
ENDMDL
MODEL 2
REMARK VINA RESULT:      -8.0      1.404      2.287
REMARK  Name = 
REMARK  13 active torsions:
REMARK  status: ('A' for Active; 'I' for Inactive)
REMARK    1  A    between atoms: C_1  and  C_2
REMARK    2  A    between atoms: C_2  and  C_3
REMARK    3  A    between atoms: C_3  and  C_4
REMARK    4  A    between atoms: C_4  and  C_5
REMARK    5  A    between atoms: C_5  and  C_6
REMARK    6  A    between atoms: C_7  and  C_8
REMARK    7  A    between atoms: C_7  and  C_19
REMARK    8  A    between atoms: C_12  and  O_13
REMARK    9  A    between atoms: C_14  and  C_15
REMARK   10  A    between atoms: C_15  and  O_17
REMARK   11  A    between atoms: C_23  and  O_24
REMARK   12  A    between atoms: C_25  and  C_26
REMARK   13  A    between atoms: C_26  and  O_28
REMARK                            x       y       z     vdW  Elec       q    Type
REMARK                         _______ _______ _______ _____ _____    ______ ____
ROOT
ATOM      1  C   UNL     1       1.804   5.038  18.091  0.00  0.00    +0.000 C 
ATOM      2  C   UNL     1       2.755   5.984  18.253  0.00  0.00    +0.000 C 
ENDROOT
BRANCH   2   3
ATOM      3  C   UNL     1       4.175   5.679  17.962  0.00  0.00    +0.000 A 
ATOM      4  C   UNL     1       5.119   5.648  18.994  0.00  0.00    +0.000 A 
ATOM      5  C   UNL     1       6.449   5.344  18.710  0.00  0.00    +0.000 A 
ATOM      6 CL   UNL     1       7.600   5.316  19.995  0.00  0.00    +0.000 Cl
ATOM      7  C   UNL     1       6.853   5.058  17.399  0.00  0.00    +0.000 A 
ATOM      8  C   UNL     1       5.917   5.061  16.360  0.00  0.00    +0.000 A 
ATOM      9  C   UNL     1       4.580   5.381  16.652  0.00  0.00    +0.000 A 
BRANCH   7  10
ATOM     10  O   UNL     1       8.173   4.772  17.132  0.00  0.00    +0.000 OA
ATOM     11  H   UNL     1       8.607   4.586  17.993  0.00  0.00    +0.000 HD
ENDBRANCH   7  10
BRANCH   8  12
ATOM     12  C   UNL     1       6.242   4.733  14.941  0.00  0.00    +0.000 C 
ATOM     13  O   UNL     1       5.529   4.012  14.262  0.00  0.00    +0.000 OA
BRANCH  12  14
ATOM     14  O   UNL     1       7.383   5.274  14.465  0.00  0.00    +0.000 OA
ATOM     15  H   UNL     1       7.251   6.163  14.068  0.00  0.00    +0.000 HD
ENDBRANCH  12  14
ENDBRANCH   8  12
ENDBRANCH   2   3
BRANCH   2  16
ATOM     16  C   UNL     1       2.305   7.291  18.740  0.00  0.00    +0.000 A 
ATOM     17  C   UNL     1       2.531   8.434  17.973  0.00  0.00    +0.000 A 
ATOM     18  C   UNL     1       2.099   9.669  18.442  0.00  0.00    +0.000 A 
ATOM     19 CL   UNL     1       2.384  11.075  17.486  0.00  0.00    +0.000 Cl
ATOM     20  C   UNL     1       1.439   9.776  19.676  0.00  0.00    +0.000 A 
ATOM     21  C   UNL     1       1.198   8.634  20.449  0.00  0.00    +0.000 A 
ATOM     22  C   UNL     1       1.637   7.389  19.969  0.00  0.00    +0.000 A 
BRANCH  20  23
ATOM     23  O   UNL     1       1.024  11.008  20.127  0.00  0.00    +0.000 OA
ATOM     24  H   UNL     1       1.833  11.503  20.371  0.00  0.00    +0.000 HD
ENDBRANCH  20  23
BRANCH  21  25
ATOM     25  C   UNL     1       0.495   8.635  21.764  0.00  0.00    +0.000 C 
ATOM     26  O   UNL     1      -0.574   8.069  21.932  0.00  0.00    +0.000 OA
BRANCH  25  27
ATOM     27  O   UNL     1       1.124   9.302  22.751  0.00  0.00    +0.000 OA
ATOM     28  H   UNL     1       1.481   8.708  23.447  0.00  0.00    +0.000 HD
ENDBRANCH  25  27
ENDBRANCH  21  25
ENDBRANCH   2  16
BRANCH   1  29
ATOM     29  C   UNL     1       2.129   3.643  17.668  0.00  0.00    +0.000 C 
BRANCH  29  30
ATOM     30  C   UNL     1       1.702   2.528  18.620  0.00  0.00    +0.000 C 
BRANCH  30  31
ATOM     31  C   UNL     1       0.763   3.096  19.694  0.00  0.00    +0.000 C 
BRANCH  31  33
ATOM     32  C   UNL     1       2.751   3.066  21.253  0.00  0.00    +0.000 C 
ATOM     33  C   UNL     1       1.259   2.837  21.122  0.00  0.00    +0.000 C 
ENDBRANCH  31  33
ENDBRANCH  30  31
ENDBRANCH  29  30
ENDBRANCH   1  29
TORSDOF 12
ENDMDL
MODEL 3
REMARK VINA RESULT:      -7.6      0.902      1.276
REMARK  Name = 
REMARK  13 active torsions:
REMARK  status: ('A' for Active; 'I' for Inactive)
REMARK    1  A    between atoms: C_1  and  C_2
REMARK    2  A    between atoms: C_2  and  C_3
REMARK    3  A    between atoms: C_3  and  C_4
REMARK    4  A    between atoms: C_4  and  C_5
REMARK    5  A    between atoms: C_5  and  C_6
REMARK    6  A    between atoms: C_7  and  C_8
REMARK    7  A    between atoms: C_7  and  C_19
REMARK    8  A    between atoms: C_12  and  O_13
REMARK    9  A    between atoms: C_14  and  C_15
REMARK   10  A    between atoms: C_15  and  O_17
REMARK   11  A    between atoms: C_23  and  O_24
REMARK   12  A    between atoms: C_25  and  C_26
REMARK   13  A    between atoms: C_26  and  O_28
REMARK                            x       y       z     vdW  Elec       q    Type
REMARK                         _______ _______ _______ _____ _____    ______ ____
ROOT
ATOM      1  C   UNL     1       1.659   5.002  18.245  0.00  0.00    +0.000 C 
ATOM      2  C   UNL     1       2.644   5.926  18.296  0.00  0.00    +0.000 C 
ENDROOT
BRANCH   2   3
ATOM      3  C   UNL     1       4.027   5.574  17.903  0.00  0.00    +0.000 A 
ATOM      4  C   UNL     1       4.287   5.025  16.642  0.00  0.00    +0.000 A 
ATOM      5  C   UNL     1       5.596   4.712  16.278  0.00  0.00    +0.000 A 
ATOM      6 CL   UNL     1       5.896   4.031  14.721  0.00  0.00    +0.000 Cl
ATOM      7  C   UNL     1       6.660   4.951  17.157  0.00  0.00    +0.000 A 
ATOM      8  C   UNL     1       6.419   5.522  18.412  0.00  0.00    +0.000 A 
ATOM      9  C   UNL     1       5.096   5.823  18.777  0.00  0.00    +0.000 A 
BRANCH   7  10
ATOM     10  O   UNL     1       7.946   4.625  16.788  0.00  0.00    +0.000 OA
ATOM     11  H   UNL     1       8.463   5.459  16.782  0.00  0.00    +0.000 HD
ENDBRANCH   7  10
BRANCH   8  12
ATOM     12  C   UNL     1       7.488   5.848  19.401  0.00  0.00    +0.000 C 
ATOM     13  O   UNL     1       7.567   5.283  20.480  0.00  0.00    +0.000 OA
BRANCH  12  14
ATOM     14  O   UNL     1       8.349   6.817  19.029  0.00  0.00    +0.000 OA
ATOM     15  H   UNL     1       9.254   6.479  18.847  0.00  0.00    +0.000 HD
ENDBRANCH  12  14
ENDBRANCH   8  12
ENDBRANCH   2   3
BRANCH   2  16
ATOM     16  C   UNL     1       2.266   7.261  18.773  0.00  0.00    +0.000 A 
ATOM     17  C   UNL     1       2.540   8.381  17.988  0.00  0.00    +0.000 A 
ATOM     18  C   UNL     1       2.177   9.642  18.446  0.00  0.00    +0.000 A 
ATOM     19 CL   UNL     1       2.520  11.020  17.469  0.00  0.00    +0.000 Cl
ATOM     20  C   UNL     1       1.540   9.797  19.687  0.00  0.00    +0.000 A 
ATOM     21  C   UNL     1       1.252   8.678  20.477  0.00  0.00    +0.000 A 
ATOM     22  C   UNL     1       1.621   7.407  20.008  0.00  0.00    +0.000 A 
BRANCH  20  23
ATOM     23  O   UNL     1       1.194  11.054  20.127  0.00  0.00    +0.000 OA
ATOM     24  H   UNL     1       0.579  11.424  19.461  0.00  0.00    +0.000 HD
ENDBRANCH  20  23
BRANCH  21  25
ATOM     25  C   UNL     1       0.567   8.731  21.801  0.00  0.00    +0.000 C 
ATOM     26  O   UNL     1       1.004   9.385  22.735  0.00  0.00    +0.000 OA
BRANCH  25  27
ATOM     27  O   UNL     1      -0.566   8.008  21.891  0.00  0.00    +0.000 OA
ATOM     28  H   UNL     1      -0.399   7.041  21.949  0.00  0.00    +0.000 HD
ENDBRANCH  25  27
ENDBRANCH  21  25
ENDBRANCH   2  16
BRANCH   1  29
ATOM     29  C   UNL     1       1.915   3.585  17.846  0.00  0.00    +0.000 C 
BRANCH  29  30
ATOM     30  C   UNL     1       1.590   2.518  18.888  0.00  0.00    +0.000 C 
BRANCH  30  31
ATOM     31  C   UNL     1       2.617   2.577  20.027  0.00  0.00    +0.000 C 
BRANCH  31  33
ATOM     32  C   UNL     1       4.917   1.718  20.627  0.00  0.00    +0.000 C 
ATOM     33  C   UNL     1       4.057   2.350  19.550  0.00  0.00    +0.000 C 
ENDBRANCH  31  33
ENDBRANCH  30  31
ENDBRANCH  29  30
ENDBRANCH   1  29
TORSDOF 12
ENDMDL
MODEL 4
REMARK VINA RESULT:      -7.4      1.736      2.837
REMARK  Name = 
REMARK  13 active torsions:
REMARK  status: ('A' for Active; 'I' for Inactive)
REMARK    1  A    between atoms: C_1  and  C_2
REMARK    2  A    between atoms: C_2  and  C_3
REMARK    3  A    between atoms: C_3  and  C_4
REMARK    4  A    between atoms: C_4  and  C_5
REMARK    5  A    between atoms: C_5  and  C_6
REMARK    6  A    between atoms: C_7  and  C_8
REMARK    7  A    between atoms: C_7  and  C_19
REMARK    8  A    between atoms: C_12  and  O_13
REMARK    9  A    between atoms: C_14  and  C_15
REMARK   10  A    between atoms: C_15  and  O_17
REMARK   11  A    between atoms: C_23  and  O_24
REMARK   12  A    between atoms: C_25  and  C_26
REMARK   13  A    between atoms: C_26  and  O_28
REMARK                            x       y       z     vdW  Elec       q    Type
REMARK                         _______ _______ _______ _____ _____    ______ ____
ROOT
ATOM      1  C   UNL     1       2.023   4.754  20.654  0.00  0.00    +0.000 C 
ATOM      2  C   UNL     1       2.568   5.776  19.958  0.00  0.00    +0.000 C 
ENDROOT
BRANCH   2   3
ATOM      3  C   UNL     1       3.760   5.554  19.107  0.00  0.00    +0.000 A 
ATOM      4  C   UNL     1       3.614   5.199  17.762  0.00  0.00    +0.000 A 
ATOM      5  C   UNL     1       4.744   5.008  16.967  0.00  0.00    +0.000 A 
ATOM      6 CL   UNL     1       4.544   4.565  15.312  0.00  0.00    +0.000 Cl
ATOM      7  C   UNL     1       6.029   5.180  17.498  0.00  0.00    +0.000 A 
ATOM      8  C   UNL     1       6.191   5.560  18.835  0.00  0.00    +0.000 A 
ATOM      9  C   UNL     1       5.048   5.737  19.633  0.00  0.00    +0.000 A 
BRANCH   7  10
ATOM     10  O   UNL     1       7.135   4.976  16.704  0.00  0.00    +0.000 OA
ATOM     11  H   UNL     1       7.160   4.019  16.486  0.00  0.00    +0.000 HD
ENDBRANCH   7  10
BRANCH   8  12
ATOM     12  C   UNL     1       7.514   5.803  19.480  0.00  0.00    +0.000 C 
ATOM     13  O   UNL     1       7.873   5.192  20.475  0.00  0.00    +0.000 OA
BRANCH  12  14
ATOM     14  O   UNL     1       8.279   6.751  18.902  0.00  0.00    +0.000 OA
ATOM     15  H   UNL     1       9.092   6.956  19.414  0.00  0.00    +0.000 HD
ENDBRANCH  12  14
ENDBRANCH   8  12
ENDBRANCH   2   3
BRANCH   2  16
ATOM     16  C   UNL     1       1.931   7.087  20.110  0.00  0.00    +0.000 A 
ATOM     17  C   UNL     1       1.125   7.342  21.220  0.00  0.00    +0.000 A 
ATOM     18  C   UNL     1       0.526   8.589  21.359  0.00  0.00    +0.000 A 
ATOM     19 CL   UNL     1      -0.468   8.894  22.733  0.00  0.00    +0.000 Cl
ATOM     20  C   UNL     1       0.725   9.590  20.394  0.00  0.00    +0.000 A 
ATOM     21  C   UNL     1       1.539   9.346  19.282  0.00  0.00    +0.000 A 
ATOM     22  C   UNL     1       2.142   8.085  19.149  0.00  0.00    +0.000 A 
BRANCH  20  23
ATOM     23  O   UNL     1       0.118  10.815  20.545  0.00  0.00    +0.000 OA
ATOM     24  H   UNL     1      -0.464  10.745  21.329  0.00  0.00    +0.000 HD
ENDBRANCH  20  23
BRANCH  21  25
ATOM     25  C   UNL     1       1.826  10.343  18.210  0.00  0.00    +0.000 C 
ATOM     26  O   UNL     1       1.688  11.544  18.382  0.00  0.00    +0.000 OA
BRANCH  25  27
ATOM     27  O   UNL     1       2.250   9.823  17.041  0.00  0.00    +0.000 OA
ATOM     28  H   UNL     1       2.534  10.509  16.398  0.00  0.00    +0.000 HD
ENDBRANCH  25  27
ENDBRANCH  21  25
ENDBRANCH   2  16
BRANCH   1  29
ATOM     29  C   UNL     1       2.610   3.380  20.647  0.00  0.00    +0.000 C 
BRANCH  29  30
ATOM     30  C   UNL     1       1.706   2.258  20.145  0.00  0.00    +0.000 C 
BRANCH  30  31
ATOM     31  C   UNL     1       1.295   2.535  18.692  0.00  0.00    +0.000 C 
BRANCH  31  33
ATOM     32  C   UNL     1       3.548   1.448  18.337  0.00  0.00    +0.000 C 
ATOM     33  C   UNL     1       2.375   2.144  17.676  0.00  0.00    +0.000 C 
ENDBRANCH  31  33
ENDBRANCH  30  31
ENDBRANCH  29  30
ENDBRANCH   1  29
TORSDOF 12
ENDMDL
MODEL 5
REMARK VINA RESULT:      -7.4      3.272      7.619
REMARK  Name = 
REMARK  13 active torsions:
REMARK  status: ('A' for Active; 'I' for Inactive)
REMARK    1  A    between atoms: C_1  and  C_2
REMARK    2  A    between atoms: C_2  and  C_3
REMARK    3  A    between atoms: C_3  and  C_4
REMARK    4  A    between atoms: C_4  and  C_5
REMARK    5  A    between atoms: C_5  and  C_6
REMARK    6  A    between atoms: C_7  and  C_8
REMARK    7  A    between atoms: C_7  and  C_19
REMARK    8  A    between atoms: C_12  and  O_13
REMARK    9  A    between atoms: C_14  and  C_15
REMARK   10  A    between atoms: C_15  and  O_17
REMARK   11  A    between atoms: C_23  and  O_24
REMARK   12  A    between atoms: C_25  and  C_26
REMARK   13  A    between atoms: C_26  and  O_28
REMARK                            x       y       z     vdW  Elec       q    Type
REMARK                         _______ _______ _______ _____ _____    ______ ____
ROOT
ATOM      1  C   UNL     1       1.175   8.864  22.078  0.00  0.00    +0.000 C 
ATOM      2  C   UNL     1       1.157   8.746  20.732  0.00  0.00    +0.000 C 
ENDROOT
BRANCH   2   3
ATOM      3  C   UNL     1       0.601   9.830  19.890  0.00  0.00    +0.000 A 
ATOM      4  C   UNL     1      -0.724   9.772  19.444  0.00  0.00    +0.000 A 
ATOM      5  C   UNL     1      -1.240  10.806  18.664  0.00  0.00    +0.000 A 
ATOM      6 CL   UNL     1      -2.875  10.714  18.119  0.00  0.00    +0.000 Cl
ATOM      7  C   UNL     1      -0.450  11.913  18.329  0.00  0.00    +0.000 A 
ATOM      8  C   UNL     1       0.869  11.997  18.789  0.00  0.00    +0.000 A 
ATOM      9  C   UNL     1       1.387  10.945  19.563  0.00  0.00    +0.000 A 
BRANCH   7  10
ATOM     10  O   UNL     1      -0.970  12.920  17.549  0.00  0.00    +0.000 OA
ATOM     11  H   UNL     1      -0.295  13.632  17.511  0.00  0.00    +0.000 HD
ENDBRANCH   7  10
BRANCH   8  12
ATOM     12  C   UNL     1       1.776  13.151  18.517  0.00  0.00    +0.000 C 
ATOM     13  O   UNL     1       1.972  14.030  19.341  0.00  0.00    +0.000 OA
BRANCH  12  14
ATOM     14  O   UNL     1       2.351  13.165  17.297  0.00  0.00    +0.000 OA
ATOM     15  H   UNL     1       2.551  12.265  16.955  0.00  0.00    +0.000 HD
ENDBRANCH  12  14
ENDBRANCH   8  12
ENDBRANCH   2   3
BRANCH   2  16
ATOM     16  C   UNL     1       1.692   7.500  20.176  0.00  0.00    +0.000 A 
ATOM     17  C   UNL     1       2.495   7.537  19.036  0.00  0.00    +0.000 A 
ATOM     18  C   UNL     1       3.000   6.351  18.516  0.00  0.00    +0.000 A 
ATOM     19 CL   UNL     1       3.991   6.408  17.107  0.00  0.00    +0.000 Cl
ATOM     20  C   UNL     1       2.710   5.120  19.127  0.00  0.00    +0.000 A 
ATOM     21  C   UNL     1       1.913   5.074  20.276  0.00  0.00    +0.000 A 
ATOM     22  C   UNL     1       1.407   6.276  20.796  0.00  0.00    +0.000 A 
BRANCH  20  23
ATOM     23  O   UNL     1       3.213   3.956  18.594  0.00  0.00    +0.000 OA
ATOM     24  H   UNL     1       4.009   4.205  18.080  0.00  0.00    +0.000 HD
ENDBRANCH  20  23
BRANCH  21  25
ATOM     25  C   UNL     1       1.557   3.824  21.009  0.00  0.00    +0.000 C 
ATOM     26  O   UNL     1       2.123   3.488  22.037  0.00  0.00    +0.000 OA
BRANCH  25  27
ATOM     27  O   UNL     1       0.568   3.096  20.456  0.00  0.00    +0.000 OA
ATOM     28  H   UNL     1      -0.016   3.627  19.870  0.00  0.00    +0.000 HD
ENDBRANCH  25  27
ENDBRANCH  21  25
ENDBRANCH   2  16
BRANCH   1  29
ATOM     29  C   UNL     1       0.598  10.049  22.783  0.00  0.00    +0.000 C 
BRANCH  29  30
ATOM     30  C   UNL     1      -0.865   9.942  23.204  0.00  0.00    +0.000 C 
BRANCH  30  31
ATOM     31  C   UNL     1      -1.620  11.209  22.778  0.00  0.00    +0.000 C 
BRANCH  31  33
ATOM     32  C   UNL     1      -0.986  13.626  23.154  0.00  0.00    +0.000 C 
ATOM     33  C   UNL     1      -0.688  12.359  22.378  0.00  0.00    +0.000 C 
ENDBRANCH  31  33
ENDBRANCH  30  31
ENDBRANCH  29  30
ENDBRANCH   1  29
TORSDOF 12
ENDMDL
MODEL 6
REMARK VINA RESULT:      -7.4      1.992      3.210
REMARK  Name = 
REMARK  13 active torsions:
REMARK  status: ('A' for Active; 'I' for Inactive)
REMARK    1  A    between atoms: C_1  and  C_2
REMARK    2  A    between atoms: C_2  and  C_3
REMARK    3  A    between atoms: C_3  and  C_4
REMARK    4  A    between atoms: C_4  and  C_5
REMARK    5  A    between atoms: C_5  and  C_6
REMARK    6  A    between atoms: C_7  and  C_8
REMARK    7  A    between atoms: C_7  and  C_19
REMARK    8  A    between atoms: C_12  and  O_13
REMARK    9  A    between atoms: C_14  and  C_15
REMARK   10  A    between atoms: C_15  and  O_17
REMARK   11  A    between atoms: C_23  and  O_24
REMARK   12  A    between atoms: C_25  and  C_26
REMARK   13  A    between atoms: C_26  and  O_28
REMARK                            x       y       z     vdW  Elec       q    Type
REMARK                         _______ _______ _______ _____ _____    ______ ____
ROOT
ATOM      1  C   UNL     1       1.641   5.130  18.072  0.00  0.00    +0.000 C 
ATOM      2  C   UNL     1       2.586   6.058  18.343  0.00  0.00    +0.000 C 
ENDROOT
BRANCH   2   3
ATOM      3  C   UNL     1       4.008   5.796  18.027  0.00  0.00    +0.000 A 
ATOM      4  C   UNL     1       4.961   5.727  19.050  0.00  0.00    +0.000 A 
ATOM      5  C   UNL     1       6.295   5.464  18.740  0.00  0.00    +0.000 A 
ATOM      6 CL   UNL     1       7.455   5.388  20.015  0.00  0.00    +0.000 Cl
ATOM      7  C   UNL     1       6.694   5.258  17.414  0.00  0.00    +0.000 A 
ATOM      8  C   UNL     1       5.750   5.299  16.382  0.00  0.00    +0.000 A 
ATOM      9  C   UNL     1       4.409   5.577  16.700  0.00  0.00    +0.000 A 
BRANCH   7  10
ATOM     10  O   UNL     1       8.017   5.012  17.122  0.00  0.00    +0.000 OA
ATOM     11  H   UNL     1       8.539   5.740  17.523  0.00  0.00    +0.000 HD
ENDBRANCH   7  10
BRANCH   8  12
ATOM     12  C   UNL     1       6.070   5.055  14.945  0.00  0.00    +0.000 C 
ATOM     13  O   UNL     1       7.072   5.512  14.417  0.00  0.00    +0.000 OA
BRANCH  12  14
ATOM     14  O   UNL     1       5.173   4.311  14.266  0.00  0.00    +0.000 OA
ATOM     15  H   UNL     1       5.484   4.055  13.370  0.00  0.00    +0.000 HD
ENDBRANCH  12  14
ENDBRANCH   8  12
ENDBRANCH   2   3
BRANCH   2  16
ATOM     16  C   UNL     1       2.125   7.299  18.972  0.00  0.00    +0.000 A 
ATOM     17  C   UNL     1       1.665   7.281  20.289  0.00  0.00    +0.000 A 
ATOM     18  C   UNL     1       1.231   8.463  20.878  0.00  0.00    +0.000 A 
ATOM     19 CL   UNL     1       0.665   8.431  22.505  0.00  0.00    +0.000 Cl
ATOM     20  C   UNL     1       1.251   9.670  20.161  0.00  0.00    +0.000 A 
ATOM     21  C   UNL     1       1.720   9.700  18.842  0.00  0.00    +0.000 A 
ATOM     22  C   UNL     1       2.157   8.503  18.254  0.00  0.00    +0.000 A 
BRANCH  20  23
ATOM     23  O   UNL     1       0.812  10.829  20.758  0.00  0.00    +0.000 OA
ATOM     24  H   UNL     1       1.480  11.518  20.559  0.00  0.00    +0.000 HD
ENDBRANCH  20  23
BRANCH  21  25
ATOM     25  C   UNL     1       1.796  10.928  17.999  0.00  0.00    +0.000 C 
ATOM     26  O   UNL     1       2.795  11.218  17.360  0.00  0.00    +0.000 OA
BRANCH  25  27
ATOM     27  O   UNL     1       0.686  11.691  17.994  0.00  0.00    +0.000 OA
ATOM     28  H   UNL     1      -0.133  11.177  18.171  0.00  0.00    +0.000 HD
ENDBRANCH  25  27
ENDBRANCH  21  25
ENDBRANCH   2  16
BRANCH   1  29
ATOM     29  C   UNL     1       1.978   3.793  17.497  0.00  0.00    +0.000 C 
BRANCH  29  30
ATOM     30  C   UNL     1       2.069   2.633  18.485  0.00  0.00    +0.000 C 
BRANCH  30  31
ATOM     31  C   UNL     1       0.964   2.766  19.543  0.00  0.00    +0.000 C 
BRANCH  31  33
ATOM     32  C   UNL     1       2.247   3.811  21.453  0.00  0.00    +0.000 C 
ATOM     33  C   UNL     1       1.482   2.593  20.977  0.00  0.00    +0.000 C 
ENDBRANCH  31  33
ENDBRANCH  30  31
ENDBRANCH  29  30
ENDBRANCH   1  29
TORSDOF 12
ENDMDL
MODEL 7
REMARK VINA RESULT:      -7.3      3.272      7.892
REMARK  Name = 
REMARK  13 active torsions:
REMARK  status: ('A' for Active; 'I' for Inactive)
REMARK    1  A    between atoms: C_1  and  C_2
REMARK    2  A    between atoms: C_2  and  C_3
REMARK    3  A    between atoms: C_3  and  C_4
REMARK    4  A    between atoms: C_4  and  C_5
REMARK    5  A    between atoms: C_5  and  C_6
REMARK    6  A    between atoms: C_7  and  C_8
REMARK    7  A    between atoms: C_7  and  C_19
REMARK    8  A    between atoms: C_12  and  O_13
REMARK    9  A    between atoms: C_14  and  C_15
REMARK   10  A    between atoms: C_15  and  O_17
REMARK   11  A    between atoms: C_23  and  O_24
REMARK   12  A    between atoms: C_25  and  C_26
REMARK   13  A    between atoms: C_26  and  O_28
REMARK                            x       y       z     vdW  Elec       q    Type
REMARK                         _______ _______ _______ _____ _____    ______ ____
ROOT
ATOM      1  C   UNL     1       1.197   8.842  22.000  0.00  0.00    +0.000 C 
ATOM      2  C   UNL     1       1.185   8.739  20.653  0.00  0.00    +0.000 C 
ENDROOT
BRANCH   2   3
ATOM      3  C   UNL     1       0.601   9.816  19.822  0.00  0.00    +0.000 A 
ATOM      4  C   UNL     1       1.181  11.089  19.800  0.00  0.00    +0.000 A 
ATOM      5  C   UNL     1       0.631  12.090  19.001  0.00  0.00    +0.000 A 
ATOM      6 CL   UNL     1       1.358  13.654  18.992  0.00  0.00    +0.000 Cl
ATOM      7  C   UNL     1      -0.495  11.834  18.208  0.00  0.00    +0.000 A 
ATOM      8  C   UNL     1      -1.072  10.559  18.199  0.00  0.00    +0.000 A 
ATOM      9  C   UNL     1      -0.520   9.559  19.017  0.00  0.00    +0.000 A 
BRANCH   7  10
ATOM     10  O   UNL     1      -1.034  12.836  17.433  0.00  0.00    +0.000 OA
ATOM     11  H   UNL     1      -1.259  13.577  18.037  0.00  0.00    +0.000 HD
ENDBRANCH   7  10
BRANCH   8  12
ATOM     12  C   UNL     1      -2.247  10.180  17.361  0.00  0.00    +0.000 C 
ATOM     13  O   UNL     1      -3.188   9.546  17.812  0.00  0.00    +0.000 OA
BRANCH  12  14
ATOM     14  O   UNL     1      -2.193  10.570  16.071  0.00  0.00    +0.000 OA
ATOM     15  H   UNL     1      -3.078  10.622  15.647  0.00  0.00    +0.000 HD
ENDBRANCH  12  14
ENDBRANCH   8  12
ENDBRANCH   2   3
BRANCH   2  16
ATOM     16  C   UNL     1       1.757   7.515  20.084  0.00  0.00    +0.000 A 
ATOM     17  C   UNL     1       2.590   7.591  18.968  0.00  0.00    +0.000 A 
ATOM     18  C   UNL     1       3.130   6.426  18.437  0.00  0.00    +0.000 A 
ATOM     19 CL   UNL     1       4.158   6.531  17.058  0.00  0.00    +0.000 Cl
ATOM     20  C   UNL     1       2.843   5.177  19.011  0.00  0.00    +0.000 A 
ATOM     21  C   UNL     1       2.016   5.091  20.136  0.00  0.00    +0.000 A 
ATOM     22  C   UNL     1       1.475   6.272  20.669  0.00  0.00    +0.000 A 
BRANCH  20  23
ATOM     23  O   UNL     1       3.381   4.034  18.467  0.00  0.00    +0.000 OA
ATOM     24  H   UNL     1       3.398   3.364  19.182  0.00  0.00    +0.000 HD
ENDBRANCH  20  23
BRANCH  21  25
ATOM     25  C   UNL     1       1.661   3.819  20.830  0.00  0.00    +0.000 C 
ATOM     26  O   UNL     1       0.915   2.991  20.332  0.00  0.00    +0.000 OA
BRANCH  25  27
ATOM     27  O   UNL     1       2.224   3.650  22.043  0.00  0.00    +0.000 OA
ATOM     28  H   UNL     1       1.916   2.835  22.497  0.00  0.00    +0.000 HD
ENDBRANCH  25  27
ENDBRANCH  21  25
ENDBRANCH   2  16
BRANCH   1  29
ATOM     29  C   UNL     1       0.585  10.002  22.717  0.00  0.00    +0.000 C 
BRANCH  29  30
ATOM     30  C   UNL     1      -0.848   9.817  23.208  0.00  0.00    +0.000 C 
BRANCH  30  31
ATOM     31  C   UNL     1      -1.600  11.153  23.126  0.00  0.00    +0.000 C 
BRANCH  31  33
ATOM     32  C   UNL     1      -1.108  13.631  23.081  0.00  0.00    +0.000 C 
ATOM     33  C   UNL     1      -0.765  12.275  22.497  0.00  0.00    +0.000 C 
ENDBRANCH  31  33
ENDBRANCH  30  31
ENDBRANCH  29  30
ENDBRANCH   1  29
TORSDOF 12
ENDMDL
MODEL 8
REMARK VINA RESULT:      -7.3      1.281      1.661
REMARK  Name = 
REMARK  13 active torsions:
REMARK  status: ('A' for Active; 'I' for Inactive)
REMARK    1  A    between atoms: C_1  and  C_2
REMARK    2  A    between atoms: C_2  and  C_3
REMARK    3  A    between atoms: C_3  and  C_4
REMARK    4  A    between atoms: C_4  and  C_5
REMARK    5  A    between atoms: C_5  and  C_6
REMARK    6  A    between atoms: C_7  and  C_8
REMARK    7  A    between atoms: C_7  and  C_19
REMARK    8  A    between atoms: C_12  and  O_13
REMARK    9  A    between atoms: C_14  and  C_15
REMARK   10  A    between atoms: C_15  and  O_17
REMARK   11  A    between atoms: C_23  and  O_24
REMARK   12  A    between atoms: C_25  and  C_26
REMARK   13  A    between atoms: C_26  and  O_28
REMARK                            x       y       z     vdW  Elec       q    Type
REMARK                         _______ _______ _______ _____ _____    ______ ____
ROOT
ATOM      1  C   UNL     1       2.027   4.831  20.213  0.00  0.00    +0.000 C 
ATOM      2  C   UNL     1       2.679   5.838  19.591  0.00  0.00    +0.000 C 
ENDROOT
BRANCH   2   3
ATOM      3  C   UNL     1       3.912   5.571  18.816  0.00  0.00    +0.000 A 
ATOM      4  C   UNL     1       3.834   5.100  17.501  0.00  0.00    +0.000 A 
ATOM      5  C   UNL     1       5.002   4.867  16.776  0.00  0.00    +0.000 A 
ATOM      6 CL   UNL     1       4.885   4.282  15.157  0.00  0.00    +0.000 Cl
ATOM      7  C   UNL     1       6.258   5.109  17.347  0.00  0.00    +0.000 A 
ATOM      8  C   UNL     1       6.352   5.603  18.652  0.00  0.00    +0.000 A 
ATOM      9  C   UNL     1       5.171   5.823  19.381  0.00  0.00    +0.000 A 
BRANCH   7  10
ATOM     10  O   UNL     1       7.403   4.862  16.623  0.00  0.00    +0.000 OA
ATOM     11  H   UNL     1       8.097   4.598  17.264  0.00  0.00    +0.000 HD
ENDBRANCH   7  10
BRANCH   8  12
ATOM     12  C   UNL     1       7.641   5.927  19.332  0.00  0.00    +0.000 C 
ATOM     13  O   UNL     1       8.408   6.772  18.900  0.00  0.00    +0.000 OA
BRANCH  12  14
ATOM     14  O   UNL     1       7.907   5.213  20.446  0.00  0.00    +0.000 OA
ATOM     15  H   UNL     1       8.644   4.575  20.327  0.00  0.00    +0.000 HD
ENDBRANCH  12  14
ENDBRANCH   8  12
ENDBRANCH   2   3
BRANCH   2  16
ATOM     16  C   UNL     1       2.111   7.181  19.746  0.00  0.00    +0.000 A 
ATOM     17  C   UNL     1       2.233   8.109  18.712  0.00  0.00    +0.000 A 
ATOM     18  C   UNL     1       1.689   9.380  18.866  0.00  0.00    +0.000 A 
ATOM     19 CL   UNL     1       1.846  10.520  17.583  0.00  0.00    +0.000 Cl
ATOM     20  C   UNL     1       1.021   9.734  20.049  0.00  0.00    +0.000 A 
ATOM     21  C   UNL     1       0.886   8.807  21.088  0.00  0.00    +0.000 A 
ATOM     22  C   UNL     1       1.437   7.525  20.926  0.00  0.00    +0.000 A 
BRANCH  20  23
ATOM     23  O   UNL     1       0.496  10.998  20.186  0.00  0.00    +0.000 OA
ATOM     24  H   UNL     1      -0.298  10.912  20.754  0.00  0.00    +0.000 HD
ENDBRANCH  20  23
BRANCH  21  25
ATOM     25  C   UNL     1       0.184   9.076  22.376  0.00  0.00    +0.000 C 
ATOM     26  O   UNL     1       0.569   9.928  23.162  0.00  0.00    +0.000 OA
BRANCH  25  27
ATOM     27  O   UNL     1      -0.903   8.315  22.609  0.00  0.00    +0.000 OA
ATOM     28  H   UNL     1      -0.707   7.526  23.161  0.00  0.00    +0.000 HD
ENDBRANCH  25  27
ENDBRANCH  21  25
ENDBRANCH   2  16
BRANCH   1  29
ATOM     29  C   UNL     1       2.533   3.425  20.199  0.00  0.00    +0.000 C 
BRANCH  29  30
ATOM     30  C   UNL     1       1.934   2.500  19.143  0.00  0.00    +0.000 C 
BRANCH  30  31
ATOM     31  C   UNL     1       3.053   1.696  18.465  0.00  0.00    +0.000 C 
BRANCH  31  33
ATOM     32  C   UNL     1       4.856   0.906  20.048  0.00  0.00    +0.000 C 
ATOM     33  C   UNL     1       4.439   1.975  19.059  0.00  0.00    +0.000 C 
ENDBRANCH  31  33
ENDBRANCH  30  31
ENDBRANCH  29  30
ENDBRANCH   1  29
TORSDOF 12
ENDMDL
MODEL 9
REMARK VINA RESULT:      -7.3      0.928      1.694
REMARK  Name = 
REMARK  13 active torsions:
REMARK  status: ('A' for Active; 'I' for Inactive)
REMARK    1  A    between atoms: C_1  and  C_2
REMARK    2  A    between atoms: C_2  and  C_3
REMARK    3  A    between atoms: C_3  and  C_4
REMARK    4  A    between atoms: C_4  and  C_5
REMARK    5  A    between atoms: C_5  and  C_6
REMARK    6  A    between atoms: C_7  and  C_8
REMARK    7  A    between atoms: C_7  and  C_19
REMARK    8  A    between atoms: C_12  and  O_13
REMARK    9  A    between atoms: C_14  and  C_15
REMARK   10  A    between atoms: C_15  and  O_17
REMARK   11  A    between atoms: C_23  and  O_24
REMARK   12  A    between atoms: C_25  and  C_26
REMARK   13  A    between atoms: C_26  and  O_28
REMARK                            x       y       z     vdW  Elec       q    Type
REMARK                         _______ _______ _______ _____ _____    ______ ____
ROOT
ATOM      1  C   UNL     1       2.291   4.872  20.706  0.00  0.00    +0.000 C 
ATOM      2  C   UNL     1       2.846   5.812  19.909  0.00  0.00    +0.000 C 
ENDROOT
BRANCH   2   3
ATOM      3  C   UNL     1       4.053   5.504  19.111  0.00  0.00    +0.000 A 
ATOM      4  C   UNL     1       3.934   5.009  17.807  0.00  0.00    +0.000 A 
ATOM      5  C   UNL     1       5.079   4.737  17.060  0.00  0.00    +0.000 A 
ATOM      6 CL   UNL     1       4.911   4.122  15.457  0.00  0.00    +0.000 Cl
ATOM      7  C   UNL     1       6.353   4.964  17.595  0.00  0.00    +0.000 A 
ATOM      8  C   UNL     1       6.489   5.482  18.888  0.00  0.00    +0.000 A 
ATOM      9  C   UNL     1       5.331   5.741  19.640  0.00  0.00    +0.000 A 
BRANCH   7  10
ATOM     10  O   UNL     1       7.475   4.679  16.849  0.00  0.00    +0.000 OA
ATOM     11  H   UNL     1       7.166   4.273  16.010  0.00  0.00    +0.000 HD
ENDBRANCH   7  10
BRANCH   8  12
ATOM     12  C   UNL     1       7.800   5.792  19.530  0.00  0.00    +0.000 C 
ATOM     13  O   UNL     1       8.212   5.169  20.496  0.00  0.00    +0.000 OA
BRANCH  12  14
ATOM     14  O   UNL     1       8.490   6.814  18.983  0.00  0.00    +0.000 OA
ATOM     15  H   UNL     1       9.443   6.805  19.219  0.00  0.00    +0.000 HD
ENDBRANCH  12  14
ENDBRANCH   8  12
ENDBRANCH   2   3
BRANCH   2  16
ATOM     16  C   UNL     1       2.201   7.129  19.903  0.00  0.00    +0.000 A 
ATOM     17  C   UNL     1       2.343   7.966  18.796  0.00  0.00    +0.000 A 
ATOM     18  C   UNL     1       1.727   9.212  18.797  0.00  0.00    +0.000 A 
ATOM     19 CL   UNL     1       1.909  10.238  17.424  0.00  0.00    +0.000 Cl
ATOM     20  C   UNL     1       0.966   9.634  19.899  0.00  0.00    +0.000 A 
ATOM     21  C   UNL     1       0.810   8.797  21.010  0.00  0.00    +0.000 A 
ATOM     22  C   UNL     1       1.434   7.540  21.002  0.00  0.00    +0.000 A 
BRANCH  20  23
ATOM     23  O   UNL     1       0.369  10.873  19.885  0.00  0.00    +0.000 OA
ATOM     24  H   UNL     1      -0.130  10.934  19.044  0.00  0.00    +0.000 HD
ENDBRANCH  20  23
BRANCH  21  25
ATOM     25  C   UNL     1       0.013   9.142  22.223  0.00  0.00    +0.000 C 
ATOM     26  O   UNL     1      -0.890   8.430  22.634  0.00  0.00    +0.000 OA
BRANCH  25  27
ATOM     27  O   UNL     1       0.361  10.293  22.831  0.00  0.00    +0.000 OA
ATOM     28  H   UNL     1       1.310  10.519  22.708  0.00  0.00    +0.000 HD
ENDBRANCH  25  27
ENDBRANCH  21  25
ENDBRANCH   2  16
BRANCH   1  29
ATOM     29  C   UNL     1       2.883   3.509  20.864  0.00  0.00    +0.000 C 
BRANCH  29  30
ATOM     30  C   UNL     1       1.936   2.330  20.663  0.00  0.00    +0.000 C 
BRANCH  30  31
ATOM     31  C   UNL     1       0.789   2.739  19.728  0.00  0.00    +0.000 C 
BRANCH  31  33
ATOM     32  C   UNL     1       1.020   3.886  17.488  0.00  0.00    +0.000 C 
ATOM     33  C   UNL     1       1.138   2.577  18.243  0.00  0.00    +0.000 C 
ENDBRANCH  31  33
ENDBRANCH  30  31
ENDBRANCH  29  30
ENDBRANCH   1  29
TORSDOF 12
ENDMDL
