MODEL 1
REMARK VINA RESULT:      -8.7      0.000      0.000
REMARK  Name = 
REMARK  5 active torsions:
REMARK  status: ('A' for Active; 'I' for Inactive)
REMARK    1  A    between atoms: C_1  and  N_2
REMARK    2  A    between atoms: C_4  and  C_5
REMARK    3  A    between atoms: C_12  and  C_13
REMARK    4  A    between atoms: C_13  and  N_14
REMARK    5  A    between atoms: C_15  and  C_17
REMARK                            x       y       z     vdW  Elec       q    Type
REMARK                         _______ _______ _______ _____ _____    ______ ____
ROOT
ATOM      1  N   UNL     1       4.169   5.817  19.575  0.00  0.00    +0.000 N 
ATOM      2  C   UNL     1       2.863   5.908  19.149  0.00  0.00    +0.000 C 
ATOM      3  O   UNL     1       2.241   4.960  18.679  0.00  0.00    +0.000 OA
ATOM      4  H   UNL     1       4.613   6.671  19.896  0.00  0.00    +0.000 HD
ENDROOT
BRANCH   2   5
ATOM      5  C   UNL     1       2.205   7.243  19.328  0.00  0.00    +0.000 A 
ATOM      6  C   UNL     1       2.260   8.128  18.259  0.00  0.00    +0.000 A 
ATOM      7  C   UNL     1       1.535   9.301  18.345  0.00  0.00    +0.000 A 
ATOM      8  C   UNL     1       0.899   9.611  19.547  0.00  0.00    +0.000 A 
ATOM      9  C   UNL     1       0.211  10.821  19.681  0.00  0.00    +0.000 A 
ATOM     10  C   UNL     1      -0.038  11.333  20.948  0.00  0.00    +0.000 A 
ATOM     11  C   UNL     1       0.180  10.530  22.060  0.00  0.00    +0.000 A 
ATOM     12  C   UNL     1       0.613   9.208  21.893  0.00  0.00    +0.000 A 
ATOM     13  C   UNL     1       1.033   8.736  20.647  0.00  0.00    +0.000 A 
ATOM     14  N   UNL     1       1.608   7.512  20.525  0.00  0.00    +0.000 NA
ENDBRANCH   2   5
BRANCH   1  15
ATOM     15  C   UNL     1       4.958   4.638  19.325  0.00  0.00    +0.000 C 
BRANCH  15  21
ATOM     16  C   UNL     1       7.816   5.782  19.018  0.00  0.00    +0.000 C 
ATOM     17  N   UNL     1       6.978   5.270  17.958  0.00  0.00    +0.000 N 
ATOM     18  N   UNL     1       7.478   5.214  16.711  0.00  0.00    +0.000 NA
ATOM     19  C   UNL     1       6.482   4.727  15.955  0.00  0.00    +0.000 A 
ATOM     20  C   UNL     1       5.345   4.473  16.756  0.00  0.00    +0.000 A 
ATOM     21  C   UNL     1       5.695   4.796  18.053  0.00  0.00    +0.000 A 
BRANCH  19  22
ATOM     22  C   UNL     1       6.651   4.512  14.516  0.00  0.00    +0.000 A 
ATOM     23  C   UNL     1       5.863   3.591  13.819  0.00  0.00    +0.000 A 
ATOM     24  C   UNL     1       6.055   3.395  12.451  0.00  0.00    +0.000 A 
ATOM     25  C   UNL     1       7.036   4.138  11.814  0.00  0.00    +0.000 A 
ATOM     26  N   UNL     1       7.813   5.043  12.443  0.00  0.00    +0.000 NA
ATOM     27  C   UNL     1       7.601   5.208  13.773  0.00  0.00    +0.000 A 
ENDBRANCH  19  22
ENDBRANCH  15  21
ENDBRANCH   1  15
TORSDOF 4
ENDMDL
MODEL 2
REMARK VINA RESULT:      -8.3      0.732      1.523
REMARK  Name = 
REMARK  5 active torsions:
REMARK  status: ('A' for Active; 'I' for Inactive)
REMARK    1  A    between atoms: C_1  and  N_2
REMARK    2  A    between atoms: C_4  and  C_5
REMARK    3  A    between atoms: C_12  and  C_13
REMARK    4  A    between atoms: C_13  and  N_14
REMARK    5  A    between atoms: C_15  and  C_17
REMARK                            x       y       z     vdW  Elec       q    Type
REMARK                         _______ _______ _______ _____ _____    ______ ____
ROOT
ATOM      1  N   UNL     1       4.269   5.364  19.730  0.00  0.00    +0.000 N 
ATOM      2  C   UNL     1       2.960   5.460  19.315  0.00  0.00    +0.000 C 
ATOM      3  O   UNL     1       2.369   4.552  18.736  0.00  0.00    +0.000 OA
ATOM      4  H   UNL     1       4.685   6.190  20.148  0.00  0.00    +0.000 HD
ENDROOT
BRANCH   2   5
ATOM      5  C   UNL     1       2.257   6.741  19.648  0.00  0.00    +0.000 A 
ATOM      6  C   UNL     1       1.596   6.806  20.868  0.00  0.00    +0.000 A 
ATOM      7  C   UNL     1       1.071   8.021  21.261  0.00  0.00    +0.000 A 
ATOM      8  C   UNL     1       1.099   9.088  20.363  0.00  0.00    +0.000 A 
ATOM      9  C   UNL     1       0.517  10.311  20.713  0.00  0.00    +0.000 A 
ATOM     10  C   UNL     1       0.151  11.207  19.717  0.00  0.00    +0.000 A 
ATOM     11  C   UNL     1       0.581  10.989  18.415  0.00  0.00    +0.000 A 
ATOM     12  C   UNL     1       1.405   9.893  18.126  0.00  0.00    +0.000 A 
ATOM     13  C   UNL     1       1.638   8.893  19.073  0.00  0.00    +0.000 A 
ATOM     14  N   UNL     1       2.296   7.754  18.735  0.00  0.00    +0.000 NA
ENDBRANCH   2   5
BRANCH   1  15
ATOM     15  C   UNL     1       5.097   4.250  19.344  0.00  0.00    +0.000 C 
BRANCH  15  21
ATOM     16  C   UNL     1       7.733   5.837  19.022  0.00  0.00    +0.000 C 
ATOM     17  N   UNL     1       6.964   5.227  17.963  0.00  0.00    +0.000 N 
ATOM     18  N   UNL     1       7.441   5.282  16.706  0.00  0.00    +0.000 NA
ATOM     19  C   UNL     1       6.517   4.664  15.953  0.00  0.00    +0.000 A 
ATOM     20  C   UNL     1       5.451   4.214  16.766  0.00  0.00    +0.000 A 
ATOM     21  C   UNL     1       5.773   4.554  18.066  0.00  0.00    +0.000 A 
BRANCH  19  22
ATOM     22  C   UNL     1       6.688   4.515  14.507  0.00  0.00    +0.000 A 
ATOM     23  C   UNL     1       5.914   3.612  13.770  0.00  0.00    +0.000 A 
ATOM     24  C   UNL     1       6.108   3.480  12.395  0.00  0.00    +0.000 A 
ATOM     25  C   UNL     1       7.076   4.267  11.790  0.00  0.00    +0.000 A 
ATOM     26  N   UNL     1       7.839   5.156  12.457  0.00  0.00    +0.000 NA
ATOM     27  C   UNL     1       7.625   5.259  13.794  0.00  0.00    +0.000 A 
ENDBRANCH  19  22
ENDBRANCH  15  21
ENDBRANCH   1  15
TORSDOF 4
ENDMDL
MODEL 3
REMARK VINA RESULT:      -8.1      1.255      1.576
REMARK  Name = 
REMARK  5 active torsions:
REMARK  status: ('A' for Active; 'I' for Inactive)
REMARK    1  A    between atoms: C_1  and  N_2
REMARK    2  A    between atoms: C_4  and  C_5
REMARK    3  A    between atoms: C_12  and  C_13
REMARK    4  A    between atoms: C_13  and  N_14
REMARK    5  A    between atoms: C_15  and  C_17
REMARK                            x       y       z     vdW  Elec       q    Type
REMARK                         _______ _______ _______ _____ _____    ______ ____
ROOT
ATOM      1  N   UNL     1       4.180   6.034  19.466  0.00  0.00    +0.000 N 
ATOM      2  C   UNL     1       2.825   6.072  19.707  0.00  0.00    +0.000 C 
ATOM      3  O   UNL     1       2.180   5.093  20.073  0.00  0.00    +0.000 OA
ATOM      4  H   UNL     1       4.612   6.882  19.113  0.00  0.00    +0.000 HD
ENDROOT
BRANCH   2   5
ATOM      5  C   UNL     1       2.164   7.406  19.539  0.00  0.00    +0.000 A 
ATOM      6  C   UNL     1       2.297   8.031  18.306  0.00  0.00    +0.000 A 
ATOM      7  C   UNL     1       1.574   9.186  18.079  0.00  0.00    +0.000 A 
ATOM      8  C   UNL     1       0.859   9.750  19.135  0.00  0.00    +0.000 A 
ATOM      9  C   UNL     1       0.171  10.953  18.948  0.00  0.00    +0.000 A 
ATOM     10  C   UNL     1      -0.161  11.733  20.049  0.00  0.00    +0.000 A 
ATOM     11  C   UNL     1      -0.025  11.200  21.325  0.00  0.00    +0.000 A 
ATOM     12  C   UNL     1       0.412   9.878  21.487  0.00  0.00    +0.000 A 
ATOM     13  C   UNL     1       0.912   9.145  20.409  0.00  0.00    +0.000 A 
ATOM     14  N   UNL     1       1.488   7.930  20.602  0.00  0.00    +0.000 NA
ENDBRANCH   2   5
BRANCH   1  15
ATOM     15  C   UNL     1       4.904   4.789  19.449  0.00  0.00    +0.000 C 
BRANCH  15  21
ATOM     16  C   UNL     1       3.370   2.530  17.993  0.00  0.00    +0.000 C 
ATOM     17  N   UNL     1       4.391   3.380  17.424  0.00  0.00    +0.000 N 
ATOM     18  N   UNL     1       4.688   3.245  16.119  0.00  0.00    +0.000 NA
ATOM     19  C   UNL     1       5.668   4.133  15.889  0.00  0.00    +0.000 A 
ATOM     20  C   UNL     1       5.976   4.833  17.078  0.00  0.00    +0.000 A 
ATOM     21  C   UNL     1       5.118   4.360  18.051  0.00  0.00    +0.000 A 
BRANCH  19  22
ATOM     22  C   UNL     1       6.257   4.290  14.558  0.00  0.00    +0.000 A 
ATOM     23  C   UNL     1       5.827   3.520  13.473  0.00  0.00    +0.000 A 
ATOM     24  C   UNL     1       6.416   3.681  12.219  0.00  0.00    +0.000 A 
ATOM     25  C   UNL     1       7.426   4.621  12.085  0.00  0.00    +0.000 A 
ATOM     26  N   UNL     1       7.868   5.392  13.099  0.00  0.00    +0.000 NA
ATOM     27  C   UNL     1       7.273   5.210  14.305  0.00  0.00    +0.000 A 
ENDBRANCH  19  22
ENDBRANCH  15  21
ENDBRANCH   1  15
TORSDOF 4
ENDMDL
MODEL 4
REMARK VINA RESULT:      -8.1      4.142      6.127
REMARK  Name = 
REMARK  5 active torsions:
REMARK  status: ('A' for Active; 'I' for Inactive)
REMARK    1  A    between atoms: C_1  and  N_2
REMARK    2  A    between atoms: C_4  and  C_5
REMARK    3  A    between atoms: C_12  and  C_13
REMARK    4  A    between atoms: C_13  and  N_14
REMARK    5  A    between atoms: C_15  and  C_17
REMARK                            x       y       z     vdW  Elec       q    Type
REMARK                         _______ _______ _______ _____ _____    ______ ____
ROOT
ATOM      1  N   UNL     1       0.627   9.842  17.852  0.00  0.00    +0.000 N 
ATOM      2  C   UNL     1      -0.030  10.879  18.476  0.00  0.00    +0.000 C 
ATOM      3  O   UNL     1       0.548  11.745  19.127  0.00  0.00    +0.000 OA
ATOM      4  H   UNL     1       0.055   9.145  17.385  0.00  0.00    +0.000 HD
ENDROOT
BRANCH   2   5
ATOM      5  C   UNL     1      -1.515  10.927  18.284  0.00  0.00    +0.000 A 
ATOM      6  C   UNL     1      -2.043  10.208  17.219  0.00  0.00    +0.000 A 
ATOM      7  C   UNL     1      -3.417  10.116  17.112  0.00  0.00    +0.000 A 
ATOM      8  C   UNL     1      -4.211  10.859  17.985  0.00  0.00    +0.000 A 
ATOM      9  C   UNL     1      -5.603  10.832  17.856  0.00  0.00    +0.000 A 
ATOM     10  C   UNL     1      -6.362  11.863  18.396  0.00  0.00    +0.000 A 
ATOM     11  C   UNL     1      -5.761  12.771  19.257  0.00  0.00    +0.000 A 
ATOM     12  C   UNL     1      -4.410  12.621  19.598  0.00  0.00    +0.000 A 
ATOM     13  C   UNL     1      -3.594  11.702  18.934  0.00  0.00    +0.000 A 
ATOM     14  N   UNL     1      -2.253  11.679  19.151  0.00  0.00    +0.000 NA
ENDBRANCH   2   5
BRANCH   1  15
ATOM     15  C   UNL     1       2.029   9.598  18.078  0.00  0.00    +0.000 C 
BRANCH  15  21
ATOM     16  C   UNL     1       1.394   8.622  20.944  0.00  0.00    +0.000 C 
ATOM     17  N   UNL     1       1.887   7.815  19.852  0.00  0.00    +0.000 N 
ATOM     18  N   UNL     1       2.040   6.493  20.046  0.00  0.00    +0.000 NA
ATOM     19  C   UNL     1       2.525   6.022  18.886  0.00  0.00    +0.000 A 
ATOM     20  C   UNL     1       2.668   7.078  17.956  0.00  0.00    +0.000 A 
ATOM     21  C   UNL     1       2.217   8.223  18.585  0.00  0.00    +0.000 A 
BRANCH  19  22
ATOM     22  C   UNL     1       2.818   4.599  18.703  0.00  0.00    +0.000 A 
ATOM     23  C   UNL     1       2.092   3.815  17.801  0.00  0.00    +0.000 A 
ATOM     24  C   UNL     1       2.384   2.458  17.657  0.00  0.00    +0.000 A 
ATOM     25  C   UNL     1       3.406   1.922  18.423  0.00  0.00    +0.000 A 
ATOM     26  N   UNL     1       4.138   2.640  19.299  0.00  0.00    +0.000 NA
ATOM     27  C   UNL     1       3.828   3.957  19.415  0.00  0.00    +0.000 A 
ENDBRANCH  19  22
ENDBRANCH  15  21
ENDBRANCH   1  15
TORSDOF 4
ENDMDL
MODEL 5
REMARK VINA RESULT:      -7.8      1.828      8.427
REMARK  Name = 
REMARK  5 active torsions:
REMARK  status: ('A' for Active; 'I' for Inactive)
REMARK    1  A    between atoms: C_1  and  N_2
REMARK    2  A    between atoms: C_4  and  C_5
REMARK    3  A    between atoms: C_12  and  C_13
REMARK    4  A    between atoms: C_13  and  N_14
REMARK    5  A    between atoms: C_15  and  C_17
REMARK                            x       y       z     vdW  Elec       q    Type
REMARK                         _______ _______ _______ _____ _____    ______ ____
ROOT
ATOM      1  N   UNL     1       4.801   3.568  18.120  0.00  0.00    +0.000 N 
ATOM      2  C   UNL     1       5.983   4.251  17.937  0.00  0.00    +0.000 C 
ATOM      3  O   UNL     1       6.692   4.628  18.865  0.00  0.00    +0.000 OA
ATOM      4  H   UNL     1       4.259   3.350  17.290  0.00  0.00    +0.000 HD
ENDROOT
BRANCH   2   5
ATOM      5  C   UNL     1       6.396   4.482  16.515  0.00  0.00    +0.000 A 
ATOM      6  C   UNL     1       7.177   5.600  16.252  0.00  0.00    +0.000 A 
ATOM      7  C   UNL     1       7.692   5.751  14.980  0.00  0.00    +0.000 A 
ATOM      8  C   UNL     1       7.294   4.860  13.983  0.00  0.00    +0.000 A 
ATOM      9  C   UNL     1       7.752   5.030  12.672  0.00  0.00    +0.000 A 
ATOM     10  C   UNL     1       7.051   4.455  11.620  0.00  0.00    +0.000 A 
ATOM     11  C   UNL     1       6.054   3.527  11.894  0.00  0.00    +0.000 A 
ATOM     12  C   UNL     1       5.790   3.157  13.220  0.00  0.00    +0.000 A 
ATOM     13  C   UNL     1       6.360   3.848  14.291  0.00  0.00    +0.000 A 
ATOM     14  N   UNL     1       5.972   3.596  15.568  0.00  0.00    +0.000 NA
ENDBRANCH   2   5
BRANCH   1  15
ATOM     15  C   UNL     1       4.221   3.412  19.429  0.00  0.00    +0.000 C 
BRANCH  15  21
ATOM     16  C   UNL     1       2.037   3.482  21.619  0.00  0.00    +0.000 C 
ATOM     17  N   UNL     1       2.377   4.553  20.710  0.00  0.00    +0.000 N 
ATOM     18  N   UNL     1       1.743   5.732  20.839  0.00  0.00    +0.000 NA
ATOM     19  C   UNL     1       2.241   6.506  19.862  0.00  0.00    +0.000 A 
ATOM     20  C   UNL     1       3.206   5.788  19.119  0.00  0.00    +0.000 A 
ATOM     21  C   UNL     1       3.308   4.540  19.704  0.00  0.00    +0.000 A 
BRANCH  19  22
ATOM     22  C   UNL     1       1.794   7.889  19.681  0.00  0.00    +0.000 A 
ATOM     23  C   UNL     1       1.925   8.544  18.453  0.00  0.00    +0.000 A 
ATOM     24  C   UNL     1       1.504   9.866  18.313  0.00  0.00    +0.000 A 
ATOM     25  C   UNL     1       0.953  10.499  19.416  0.00  0.00    +0.000 A 
ATOM     26  N   UNL     1       0.799   9.906  20.617  0.00  0.00    +0.000 NA
ATOM     27  C   UNL     1       1.219   8.620  20.719  0.00  0.00    +0.000 A 
ENDBRANCH  19  22
ENDBRANCH  15  21
ENDBRANCH   1  15
TORSDOF 4
ENDMDL
MODEL 6
REMARK VINA RESULT:      -7.7      4.012      6.419
REMARK  Name = 
REMARK  5 active torsions:
REMARK  status: ('A' for Active; 'I' for Inactive)
REMARK    1  A    between atoms: C_1  and  N_2
REMARK    2  A    between atoms: C_4  and  C_5
REMARK    3  A    between atoms: C_12  and  C_13
REMARK    4  A    between atoms: C_13  and  N_14
REMARK    5  A    between atoms: C_15  and  C_17
REMARK                            x       y       z     vdW  Elec       q    Type
REMARK                         _______ _______ _______ _____ _____    ______ ____
ROOT
ATOM      1  N   UNL     1       0.201  10.499  18.084  0.00  0.00    +0.000 N 
ATOM      2  C   UNL     1      -0.563  11.370  18.828  0.00  0.00    +0.000 C 
ATOM      3  O   UNL     1      -0.085  12.171  19.626  0.00  0.00    +0.000 OA
ATOM      4  H   UNL     1      -0.293   9.837  17.494  0.00  0.00    +0.000 HD
ENDROOT
BRANCH   2   5
ATOM      5  C   UNL     1      -2.041  11.322  18.583  0.00  0.00    +0.000 A 
ATOM      6  C   UNL     1      -2.487  10.521  17.540  0.00  0.00    +0.000 A 
ATOM      7  C   UNL     1      -3.849  10.345  17.390  0.00  0.00    +0.000 A 
ATOM      8  C   UNL     1      -4.716  11.084  18.196  0.00  0.00    +0.000 A 
ATOM      9  C   UNL     1      -6.098  10.970  18.021  0.00  0.00    +0.000 A 
ATOM     10  C   UNL     1      -6.934  11.980  18.480  0.00  0.00    +0.000 A 
ATOM     11  C   UNL     1      -6.416  12.964  19.313  0.00  0.00    +0.000 A 
ATOM     12  C   UNL     1      -5.073  12.909  19.707  0.00  0.00    +0.000 A 
ATOM     13  C   UNL     1      -4.183  12.007  19.121  0.00  0.00    +0.000 A 
ATOM     14  N   UNL     1      -2.852  12.072  19.384  0.00  0.00    +0.000 NA
ENDBRANCH   2   5
BRANCH   1  15
ATOM     15  C   UNL     1       1.612  10.342  18.330  0.00  0.00    +0.000 C 
BRANCH  15  21
ATOM     16  C   UNL     1       1.255   8.948  21.069  0.00  0.00    +0.000 C 
ATOM     17  N   UNL     1       1.700   8.329  19.842  0.00  0.00    +0.000 N 
ATOM     18  N   UNL     1       1.935   7.004  19.837  0.00  0.00    +0.000 NA
ATOM     19  C   UNL     1       2.349   6.726  18.591  0.00  0.00    +0.000 A 
ATOM     20  C   UNL     1       2.365   7.905  17.811  0.00  0.00    +0.000 A 
ATOM     21  C   UNL     1       1.908   8.924  18.624  0.00  0.00    +0.000 A 
BRANCH  19  22
ATOM     22  C   UNL     1       2.698   5.362  18.189  0.00  0.00    +0.000 A 
ATOM     23  C   UNL     1       4.030   4.952  18.078  0.00  0.00    +0.000 A 
ATOM     24  C   UNL     1       4.334   3.650  17.680  0.00  0.00    +0.000 A 
ATOM     25  C   UNL     1       3.285   2.786  17.407  0.00  0.00    +0.000 A 
ATOM     26  N   UNL     1       1.986   3.134  17.508  0.00  0.00    +0.000 NA
ATOM     27  C   UNL     1       1.726   4.407  17.897  0.00  0.00    +0.000 A 
ENDBRANCH  19  22
ENDBRANCH  15  21
ENDBRANCH   1  15
TORSDOF 4
ENDMDL
MODEL 7
REMARK VINA RESULT:      -7.7      4.368      6.777
REMARK  Name = 
REMARK  5 active torsions:
REMARK  status: ('A' for Active; 'I' for Inactive)
REMARK    1  A    between atoms: C_1  and  N_2
REMARK    2  A    between atoms: C_4  and  C_5
REMARK    3  A    between atoms: C_12  and  C_13
REMARK    4  A    between atoms: C_13  and  N_14
REMARK    5  A    between atoms: C_15  and  C_17
REMARK                            x       y       z     vdW  Elec       q    Type
REMARK                         _______ _______ _______ _____ _____    ______ ____
ROOT
ATOM      1  N   UNL     1       5.621   6.296  17.418  0.00  0.00    +0.000 N 
ATOM      2  C   UNL     1       5.234   4.998  17.168  0.00  0.00    +0.000 C 
ATOM      3  O   UNL     1       5.831   4.256  16.393  0.00  0.00    +0.000 OA
ATOM      4  H   UNL     1       5.028   6.846  18.031  0.00  0.00    +0.000 HD
ENDROOT
BRANCH   2   5
ATOM      5  C   UNL     1       4.044   4.508  17.935  0.00  0.00    +0.000 A 
ATOM      6  C   UNL     1       2.788   4.848  17.448  0.00  0.00    +0.000 A 
ATOM      7  C   UNL     1       1.681   4.284  18.051  0.00  0.00    +0.000 A 
ATOM      8  C   UNL     1       1.859   3.516  19.202  0.00  0.00    +0.000 A 
ATOM      9  C   UNL     1       0.749   2.987  19.867  0.00  0.00    +0.000 A 
ATOM     10  C   UNL     1       0.860   2.615  21.201  0.00  0.00    +0.000 A 
ATOM     11  C   UNL     1       2.118   2.547  21.785  0.00  0.00    +0.000 A 
ATOM     12  C   UNL     1       3.259   2.817  21.018  0.00  0.00    +0.000 A 
ATOM     13  C   UNL     1       3.157   3.357  19.734  0.00  0.00    +0.000 A 
ATOM     14  N   UNL     1       4.262   3.774  19.064  0.00  0.00    +0.000 NA
ENDBRANCH   2   5
BRANCH   1  15
ATOM     15  C   UNL     1       6.653   6.933  16.641  0.00  0.00    +0.000 C 
BRANCH  15  21
ATOM     16  C   UNL     1       8.198   6.048  19.170  0.00  0.00    +0.000 C 
ATOM     17  N   UNL     1       8.165   7.377  18.606  0.00  0.00    +0.000 N 
ATOM     18  N   UNL     1       8.916   8.338  19.175  0.00  0.00    +0.000 NA
ATOM     19  C   UNL     1       8.665   9.447  18.462  0.00  0.00    +0.000 A 
ATOM     20  C   UNL     1       7.744   9.161  17.429  0.00  0.00    +0.000 A 
ATOM     21  C   UNL     1       7.459   7.812  17.514  0.00  0.00    +0.000 A 
BRANCH  19  22
ATOM     22  C   UNL     1       9.314  10.720  18.779  0.00  0.00    +0.000 A 
ATOM     23  C   UNL     1      10.049  10.892  19.957  0.00  0.00    +0.000 A 
ATOM     24  C   UNL     1      10.645  12.121  20.241  0.00  0.00    +0.000 A 
ATOM     25  C   UNL     1      10.493  13.151  19.326  0.00  0.00    +0.000 A 
ATOM     26  N   UNL     1       9.802  13.030  18.174  0.00  0.00    +0.000 NA
ATOM     27  C   UNL     1       9.234  11.822  17.930  0.00  0.00    +0.000 A 
ENDBRANCH  19  22
ENDBRANCH  15  21
ENDBRANCH   1  15
TORSDOF 4
ENDMDL
MODEL 8
REMARK VINA RESULT:      -7.6      4.096      9.771
REMARK  Name = 
REMARK  5 active torsions:
REMARK  status: ('A' for Active; 'I' for Inactive)
REMARK    1  A    between atoms: C_1  and  N_2
REMARK    2  A    between atoms: C_4  and  C_5
REMARK    3  A    between atoms: C_12  and  C_13
REMARK    4  A    between atoms: C_13  and  N_14
REMARK    5  A    between atoms: C_15  and  C_17
REMARK                            x       y       z     vdW  Elec       q    Type
REMARK                         _______ _______ _______ _____ _____    ______ ____
ROOT
ATOM      1  N   UNL     1       1.504   9.072  19.006  0.00  0.00    +0.000 N 
ATOM      2  C   UNL     1       2.257   8.164  18.296  0.00  0.00    +0.000 C 
ATOM      3  O   UNL     1       2.989   8.482  17.362  0.00  0.00    +0.000 OA
ATOM      4  H   UNL     1       0.887   8.703  19.722  0.00  0.00    +0.000 HD
ENDROOT
BRANCH   2   5
ATOM      5  C   UNL     1       2.174   6.739  18.753  0.00  0.00    +0.000 A 
ATOM      6  C   UNL     1       2.050   6.516  20.118  0.00  0.00    +0.000 A 
ATOM      7  C   UNL     1       1.821   5.223  20.549  0.00  0.00    +0.000 A 
ATOM      8  C   UNL     1       1.865   4.186  19.617  0.00  0.00    +0.000 A 
ATOM      9  C   UNL     1       1.699   2.863  20.038  0.00  0.00    +0.000 A 
ATOM     10  C   UNL     1       2.164   1.825  19.240  0.00  0.00    +0.000 A 
ATOM     11  C   UNL     1       2.564   2.097  17.938  0.00  0.00    +0.000 A 
ATOM     12  C   UNL     1       2.464   3.400  17.434  0.00  0.00    +0.000 A 
ATOM     13  C   UNL     1       2.167   4.479  18.270  0.00  0.00    +0.000 A 
ATOM     14  N   UNL     1       2.236   5.755  17.811  0.00  0.00    +0.000 NA
ENDBRANCH   2   5
BRANCH   1  15
ATOM     15  C   UNL     1       1.381  10.442  18.577  0.00  0.00    +0.000 C 
BRANCH  15  21
ATOM     16  C   UNL     1       0.648  12.248  20.980  0.00  0.00    +0.000 C 
ATOM     17  N   UNL     1      -0.253  11.776  19.953  0.00  0.00    +0.000 N 
ATOM     18  N   UNL     1      -1.532  12.192  19.978  0.00  0.00    +0.000 NA
ATOM     19  C   UNL     1      -2.120  11.582  18.937  0.00  0.00    +0.000 A 
ATOM     20  C   UNL     1      -1.179  10.778  18.253  0.00  0.00    +0.000 A 
ATOM     21  C   UNL     1       0.030  10.944  18.901  0.00  0.00    +0.000 A 
BRANCH  19  22
ATOM     22  C   UNL     1      -3.534  11.795  18.626  0.00  0.00    +0.000 A 
ATOM     23  C   UNL     1      -4.065  11.464  17.376  0.00  0.00    +0.000 A 
ATOM     24  C   UNL     1      -5.414  11.691  17.102  0.00  0.00    +0.000 A 
ATOM     25  C   UNL     1      -6.202  12.243  18.100  0.00  0.00    +0.000 A 
ATOM     26  N   UNL     1      -5.737  12.570  19.323  0.00  0.00    +0.000 NA
ATOM     27  C   UNL     1      -4.420  12.337  19.555  0.00  0.00    +0.000 A 
ENDBRANCH  19  22
ENDBRANCH  15  21
ENDBRANCH   1  15
TORSDOF 4
ENDMDL
MODEL 9
REMARK VINA RESULT:      -7.6      2.251      3.848
REMARK  Name = 
REMARK  5 active torsions:
REMARK  status: ('A' for Active; 'I' for Inactive)
REMARK    1  A    between atoms: C_1  and  N_2
REMARK    2  A    between atoms: C_4  and  C_5
REMARK    3  A    between atoms: C_12  and  C_13
REMARK    4  A    between atoms: C_13  and  N_14
REMARK    5  A    between atoms: C_15  and  C_17
REMARK                            x       y       z     vdW  Elec       q    Type
REMARK                         _______ _______ _______ _____ _____    ______ ____
ROOT
ATOM      1  N   UNL     1       1.681   7.897  20.130  0.00  0.00    +0.000 N 
ATOM      2  C   UNL     1       1.172   8.856  20.977  0.00  0.00    +0.000 C 
ATOM      3  O   UNL     1       1.026   8.679  22.183  0.00  0.00    +0.000 OA
ATOM      4  H   UNL     1       1.709   8.120  19.140  0.00  0.00    +0.000 HD
ENDROOT
BRANCH   2   5
ATOM      5  C   UNL     1       0.835  10.174  20.349  0.00  0.00    +0.000 A 
ATOM      6  C   UNL     1       0.192  10.148  19.118  0.00  0.00    +0.000 A 
ATOM      7  C   UNL     1      -0.261  11.342  18.593  0.00  0.00    +0.000 A 
ATOM      8  C   UNL     1       0.068  12.531  19.245  0.00  0.00    +0.000 A 
ATOM      9  C   UNL     1      -0.324  13.757  18.700  0.00  0.00    +0.000 A 
ATOM     10  C   UNL     1       0.343  14.918  19.069  0.00  0.00    +0.000 A 
ATOM     11  C   UNL     1       1.221  14.884  20.145  0.00  0.00    +0.000 A 
ATOM     12  C   UNL     1       1.399  13.695  20.864  0.00  0.00    +0.000 A 
ATOM     13  C   UNL     1       0.873  12.486  20.404  0.00  0.00    +0.000 A 
ATOM     14  N   UNL     1       1.189  11.313  21.012  0.00  0.00    +0.000 NA
ENDBRANCH   2   5
BRANCH   1  15
ATOM     15  C   UNL     1       1.905   6.545  20.577  0.00  0.00    +0.000 C 
BRANCH  15  21
ATOM     16  C   UNL     1       1.330   3.672  19.583  0.00  0.00    +0.000 C 
ATOM     17  N   UNL     1       2.377   4.551  19.112  0.00  0.00    +0.000 N 
ATOM     18  N   UNL     1       3.161   4.134  18.101  0.00  0.00    +0.000 NA
ATOM     19  C   UNL     1       4.037   5.132  17.904  0.00  0.00    +0.000 A 
ATOM     20  C   UNL     1       3.783   6.187  18.810  0.00  0.00    +0.000 A 
ATOM     21  C   UNL     1       2.684   5.810  19.559  0.00  0.00    +0.000 A 
BRANCH  19  22
ATOM     22  C   UNL     1       5.064   5.051  16.863  0.00  0.00    +0.000 A 
ATOM     23  C   UNL     1       4.948   4.159  15.792  0.00  0.00    +0.000 A 
ATOM     24  C   UNL     1       5.948   4.093  14.822  0.00  0.00    +0.000 A 
ATOM     25  C   UNL     1       7.043   4.933  14.950  0.00  0.00    +0.000 A 
ATOM     26  N   UNL     1       7.194   5.814  15.960  0.00  0.00    +0.000 NA
ATOM     27  C   UNL     1       6.203   5.852  16.887  0.00  0.00    +0.000 A 
ENDBRANCH  19  22
ENDBRANCH  15  21
ENDBRANCH   1  15
TORSDOF 4
ENDMDL
