MODEL 1
REMARK VINA RESULT:      -6.8      0.000      0.000
REMARK  Name = 
REMARK  7 active torsions:
REMARK  status: ('A' for Active; 'I' for Inactive)
REMARK    1  A    between atoms: C_2  and  C_3
REMARK    2  A    between atoms: C_3  and  C_4
REMARK    3  A    between atoms: C_5  and  O_6
REMARK    4  A    between atoms: N_7  and  C_8
REMARK    5  A    between atoms: C_8  and  C_9
REMARK    6  A    between atoms: N_21  and  C_22
REMARK    7  A    between atoms: N_25  and  C_26
REMARK                            x       y       z     vdW  Elec       q    Type
REMARK                         _______ _______ _______ _____ _____    ______ ____
ROOT
ATOM      1  C   UNL     1       2.845  13.600  18.860  0.00  0.00    +0.000 A 
ATOM      2  C   UNL     1       2.238  12.497  18.380  0.00  0.00    +0.000 A 
ATOM      3  N   UNL     1       1.190  11.857  19.049  0.00  0.00    +0.000 N 
ATOM      4  C   UNL     1       0.610  12.455  20.146  0.00  0.00    +0.000 A 
ATOM      5  N   UNL     1      -0.441  12.121  20.884  0.00  0.00    +0.000 NA
ATOM      6  C   UNL     1      -0.551  13.122  21.822  0.00  0.00    +0.000 A 
ATOM      7  C   UNL     1       0.416  14.068  21.665  0.00  0.00    +0.000 A 
ATOM      8  C   UNL     1       0.464  15.271  22.423  0.00  0.00    +0.000 A 
ATOM      9  O   UNL     1       1.144  16.247  22.128  0.00  0.00    +0.000 OA
ATOM     10  N   UNL     1      -0.421  15.273  23.498  0.00  0.00    +0.000 N 
ATOM     11  C   UNL     1      -0.391  16.421  24.390  0.00  0.00    +0.000 C 
ATOM     12  C   UNL     1      -1.449  14.341  23.695  0.00  0.00    +0.000 A 
ATOM     13  O   UNL     1      -2.275  14.497  24.600  0.00  0.00    +0.000 OA
ATOM     14  N   UNL     1      -1.504  13.252  22.813  0.00  0.00    +0.000 N 
ATOM     15  C   UNL     1      -2.575  12.281  22.971  0.00  0.00    +0.000 C 
ATOM     16  N   UNL     1       1.204  13.613  20.639  0.00  0.00    +0.000 N 
ATOM     17  C   UNL     1       2.391  14.146  20.153  0.00  0.00    +0.000 A 
ATOM     18  O   UNL     1       2.992  15.011  20.771  0.00  0.00    +0.000 OA
ENDROOT
BRANCH   2  19
ATOM     19  O   UNL     1       2.620  11.935  17.178  0.00  0.00    +0.000 OA
ATOM     20  H   UNL     1       1.936  12.096  16.506  0.00  0.00    +0.000 HD
ENDBRANCH   2  19
BRANCH   1  21
ATOM     21  C   UNL     1       3.955  14.379  18.235  0.00  0.00    +0.000 C 
BRANCH  21  23
ATOM     22  C   UNL     1       2.841  16.751  17.183  0.00  0.00    +0.000 C 
ATOM     23  C   UNL     1       3.354  15.656  17.669  0.00  0.00    +0.000 C 
ENDBRANCH  21  23
ENDBRANCH   1  21
BRANCH   3  24
ATOM     24  C   UNL     1       0.613  10.602  18.525  0.00  0.00    +0.000 C 
BRANCH  24  25
ATOM     25  C   UNL     1       1.365   9.338  18.927  0.00  0.00    +0.000 A 
ATOM     26  C   UNL     1       1.239   8.815  20.222  0.00  0.00    +0.000 A 
ATOM     27  C   UNL     1       1.746   7.550  20.537  0.00  0.00    +0.000 A 
ATOM     28  C   UNL     1       2.396   6.791  19.568  0.00  0.00    +0.000 A 
ATOM     29  C   UNL     1       2.576   7.314  18.290  0.00  0.00    +0.000 A 
ATOM     30  C   UNL     1       2.071   8.580  17.973  0.00  0.00    +0.000 A 
ENDBRANCH  24  25
ENDBRANCH   3  24
TORSDOF 5
ENDMDL
MODEL 2
REMARK VINA RESULT:      -6.6      0.595      1.074
REMARK  Name = 
REMARK  7 active torsions:
REMARK  status: ('A' for Active; 'I' for Inactive)
REMARK    1  A    between atoms: C_2  and  C_3
REMARK    2  A    between atoms: C_3  and  C_4
REMARK    3  A    between atoms: C_5  and  O_6
REMARK    4  A    between atoms: N_7  and  C_8
REMARK    5  A    between atoms: C_8  and  C_9
REMARK    6  A    between atoms: N_21  and  C_22
REMARK    7  A    between atoms: N_25  and  C_26
REMARK                            x       y       z     vdW  Elec       q    Type
REMARK                         _______ _______ _______ _____ _____    ______ ____
ROOT
ATOM      1  C   UNL     1       2.688  13.782  19.441  0.00  0.00    +0.000 A 
ATOM      2  C   UNL     1       2.065  12.794  18.771  0.00  0.00    +0.000 A 
ATOM      3  N   UNL     1       0.915  12.160  19.251  0.00  0.00    +0.000 N 
ATOM      4  C   UNL     1       0.264  12.664  20.355  0.00  0.00    +0.000 A 
ATOM      5  N   UNL     1      -0.876  12.325  20.942  0.00  0.00    +0.000 NA
ATOM      6  C   UNL     1      -1.019  13.211  21.985  0.00  0.00    +0.000 A 
ATOM      7  C   UNL     1       0.017  14.093  22.042  0.00  0.00    +0.000 A 
ATOM      8  C   UNL     1       0.064  15.190  22.947  0.00  0.00    +0.000 A 
ATOM      9  O   UNL     1       0.831  16.140  22.844  0.00  0.00    +0.000 OA
ATOM     10  N   UNL     1      -0.926  15.131  23.925  0.00  0.00    +0.000 N 
ATOM     11  C   UNL     1      -0.914  16.158  24.954  0.00  0.00    +0.000 C 
ATOM     12  C   UNL     1      -2.026  14.262  23.904  0.00  0.00    +0.000 A 
ATOM     13  O   UNL     1      -2.929  14.371  24.740  0.00  0.00    +0.000 OA
ATOM     14  N   UNL     1      -2.058  13.295  22.890  0.00  0.00    +0.000 N 
ATOM     15  C   UNL     1      -3.200  12.395  22.822  0.00  0.00    +0.000 C 
ATOM     16  N   UNL     1       0.876  13.706  21.045  0.00  0.00    +0.000 N 
ATOM     17  C   UNL     1       2.139  14.202  20.745  0.00  0.00    +0.000 A 
ATOM     18  O   UNL     1       2.727  14.938  21.521  0.00  0.00    +0.000 OA
ENDROOT
BRANCH   2  19
ATOM     19  O   UNL     1       2.532  12.353  17.548  0.00  0.00    +0.000 OA
ATOM     20  H   UNL     1       2.804  11.423  17.614  0.00  0.00    +0.000 HD
ENDBRANCH   2  19
BRANCH   1  21
ATOM     21  C   UNL     1       3.904  14.544  19.028  0.00  0.00    +0.000 C 
BRANCH  21  23
ATOM     22  C   UNL     1       3.059  16.624  17.315  0.00  0.00    +0.000 C 
ATOM     23  C   UNL     1       3.449  15.664  18.106  0.00  0.00    +0.000 C 
ENDBRANCH  21  23
ENDBRANCH   1  21
BRANCH   3  24
ATOM     24  C   UNL     1       0.316  11.025  18.520  0.00  0.00    +0.000 C 
BRANCH  24  25
ATOM     25  C   UNL     1       0.907   9.662  18.864  0.00  0.00    +0.000 A 
ATOM     26  C   UNL     1       1.641   8.942  17.910  0.00  0.00    +0.000 A 
ATOM     27  C   UNL     1       2.365   7.801  18.272  0.00  0.00    +0.000 A 
ATOM     28  C   UNL     1       2.361   7.355  19.591  0.00  0.00    +0.000 A 
ATOM     29  C   UNL     1       1.597   8.026  20.542  0.00  0.00    +0.000 A 
ATOM     30  C   UNL     1       0.871   9.167  20.182  0.00  0.00    +0.000 A 
ENDBRANCH  24  25
ENDBRANCH   3  24
TORSDOF 5
ENDMDL
MODEL 3
REMARK VINA RESULT:      -6.5      3.129      4.791
REMARK  Name = 
REMARK  7 active torsions:
REMARK  status: ('A' for Active; 'I' for Inactive)
REMARK    1  A    between atoms: C_2  and  C_3
REMARK    2  A    between atoms: C_3  and  C_4
REMARK    3  A    between atoms: C_5  and  O_6
REMARK    4  A    between atoms: N_7  and  C_8
REMARK    5  A    between atoms: C_8  and  C_9
REMARK    6  A    between atoms: N_21  and  C_22
REMARK    7  A    between atoms: N_25  and  C_26
REMARK                            x       y       z     vdW  Elec       q    Type
REMARK                         _______ _______ _______ _____ _____    ______ ____
ROOT
ATOM      1  C   UNL     1      -2.962  10.622  17.799  0.00  0.00    +0.000 A 
ATOM      2  C   UNL     1      -1.620  10.527  17.868  0.00  0.00    +0.000 A 
ATOM      3  N   UNL     1      -0.849  11.296  18.745  0.00  0.00    +0.000 N 
ATOM      4  C   UNL     1      -1.466  12.054  19.715  0.00  0.00    +0.000 A 
ATOM      5  N   UNL     1      -0.980  12.777  20.715  0.00  0.00    +0.000 NA
ATOM      6  C   UNL     1      -2.084  13.279  21.363  0.00  0.00    +0.000 A 
ATOM      7  C   UNL     1      -3.242  12.869  20.776  0.00  0.00    +0.000 A 
ATOM      8  C   UNL     1      -4.532  13.144  21.312  0.00  0.00    +0.000 A 
ATOM      9  O   UNL     1      -5.560  12.571  20.968  0.00  0.00    +0.000 OA
ATOM     10  N   UNL     1      -4.505  14.072  22.349  0.00  0.00    +0.000 N 
ATOM     11  C   UNL     1      -5.779  14.489  22.911  0.00  0.00    +0.000 C 
ATOM     12  C   UNL     1      -3.346  14.510  23.006  0.00  0.00    +0.000 A 
ATOM     13  O   UNL     1      -3.424  15.229  24.007  0.00  0.00    +0.000 OA
ATOM     14  N   UNL     1      -2.116  14.078  22.490  0.00  0.00    +0.000 N 
ATOM     15  C   UNL     1      -0.894  14.491  23.164  0.00  0.00    +0.000 C 
ATOM     16  N   UNL     1      -2.854  12.142  19.680  0.00  0.00    +0.000 N 
ATOM     17  C   UNL     1      -3.644  11.591  18.678  0.00  0.00    +0.000 A 
ATOM     18  O   UNL     1      -4.819  11.902  18.561  0.00  0.00    +0.000 OA
ENDROOT
BRANCH   2  19
ATOM     19  O   UNL     1      -0.924   9.641  17.069  0.00  0.00    +0.000 OA
ATOM     20  H   UNL     1      -1.353   8.770  17.089  0.00  0.00    +0.000 HD
ENDBRANCH   2  19
BRANCH   1  21
ATOM     21  C   UNL     1      -3.892   9.848  16.924  0.00  0.00    +0.000 C 
BRANCH  21  23
ATOM     22  C   UNL     1      -3.045  10.211  14.254  0.00  0.00    +0.000 C 
ATOM     23  C   UNL     1      -3.436  10.044  15.487  0.00  0.00    +0.000 C 
ENDBRANCH  21  23
ENDBRANCH   1  21
BRANCH   3  24
ATOM     24  C   UNL     1       0.625  11.216  18.724  0.00  0.00    +0.000 C 
BRANCH  24  25
ATOM     25  C   UNL     1       1.201   9.916  19.275  0.00  0.00    +0.000 A 
ATOM     26  C   UNL     1       0.872   9.483  20.568  0.00  0.00    +0.000 A 
ATOM     27  C   UNL     1       1.216   8.199  21.004  0.00  0.00    +0.000 A 
ATOM     28  C   UNL     1       1.902   7.329  20.160  0.00  0.00    +0.000 A 
ATOM     29  C   UNL     1       2.282   7.759  18.891  0.00  0.00    +0.000 A 
ATOM     30  C   UNL     1       1.940   9.043  18.453  0.00  0.00    +0.000 A 
ENDBRANCH  24  25
ENDBRANCH   3  24
TORSDOF 5
ENDMDL
MODEL 4
REMARK VINA RESULT:      -6.4      2.143      3.173
REMARK  Name = 
REMARK  7 active torsions:
REMARK  status: ('A' for Active; 'I' for Inactive)
REMARK    1  A    between atoms: C_2  and  C_3
REMARK    2  A    between atoms: C_3  and  C_4
REMARK    3  A    between atoms: C_5  and  O_6
REMARK    4  A    between atoms: N_7  and  C_8
REMARK    5  A    between atoms: C_8  and  C_9
REMARK    6  A    between atoms: N_21  and  C_22
REMARK    7  A    between atoms: N_25  and  C_26
REMARK                            x       y       z     vdW  Elec       q    Type
REMARK                         _______ _______ _______ _____ _____    ______ ____
ROOT
ATOM      1  C   UNL     1       1.717  12.893  19.770  0.00  0.00    +0.000 A 
ATOM      2  C   UNL     1       0.944  11.894  19.301  0.00  0.00    +0.000 A 
ATOM      3  N   UNL     1      -0.197  11.441  19.970  0.00  0.00    +0.000 N 
ATOM      4  C   UNL     1      -0.681  12.140  21.054  0.00  0.00    +0.000 A 
ATOM      5  N   UNL     1      -1.776  11.991  21.787  0.00  0.00    +0.000 NA
ATOM      6  C   UNL     1      -1.730  13.010  22.710  0.00  0.00    +0.000 A 
ATOM      7  C   UNL     1      -0.624  13.786  22.548  0.00  0.00    +0.000 A 
ATOM      8  C   UNL     1      -0.387  14.978  23.290  0.00  0.00    +0.000 A 
ATOM      9  O   UNL     1       0.442  15.828  22.987  0.00  0.00    +0.000 OA
ATOM     10  N   UNL     1      -1.268  15.138  24.357  0.00  0.00    +0.000 N 
ATOM     11  C   UNL     1      -1.060  16.280  25.233  0.00  0.00    +0.000 C 
ATOM     12  C   UNL     1      -2.433  14.385  24.558  0.00  0.00    +0.000 A 
ATOM     13  O   UNL     1      -3.229  14.686  25.453  0.00  0.00    +0.000 OA
ATOM     14  N   UNL     1      -2.656  13.307  23.691  0.00  0.00    +0.000 N 
ATOM     15  C   UNL     1      -3.870  12.522  23.853  0.00  0.00    +0.000 C 
ATOM     16  N   UNL     1       0.088  13.195  21.535  0.00  0.00    +0.000 N 
ATOM     17  C   UNL     1       1.348  13.525  21.052  0.00  0.00    +0.000 A 
ATOM     18  O   UNL     1       2.076  14.291  21.663  0.00  0.00    +0.000 OA
ENDROOT
BRANCH   2  19
ATOM     19  O   UNL     1       1.238  11.261  18.110  0.00  0.00    +0.000 OA
ATOM     20  H   UNL     1       1.879  10.548  18.264  0.00  0.00    +0.000 HD
ENDBRANCH   2  19
BRANCH   1  21
ATOM     21  C   UNL     1       2.941  13.475  19.144  0.00  0.00    +0.000 C 
BRANCH  21  23
ATOM     22  C   UNL     1       2.248  16.015  18.125  0.00  0.00    +0.000 C 
ATOM     23  C   UNL     1       2.568  14.843  18.596  0.00  0.00    +0.000 C 
ENDBRANCH  21  23
ENDBRANCH   1  21
BRANCH   3  24
ATOM     24  C   UNL     1      -0.965  10.287  19.459  0.00  0.00    +0.000 C 
BRANCH  24  25
ATOM     25  C   UNL     1      -1.883  10.603  18.283  0.00  0.00    +0.000 A 
ATOM     26  C   UNL     1      -1.745   9.917  17.067  0.00  0.00    +0.000 A 
ATOM     27  C   UNL     1      -2.708  10.042  16.061  0.00  0.00    +0.000 A 
ATOM     28  C   UNL     1      -3.819  10.860  16.246  0.00  0.00    +0.000 A 
ATOM     29  C   UNL     1      -3.947  11.589  17.426  0.00  0.00    +0.000 A 
ATOM     30  C   UNL     1      -2.985  11.467  18.434  0.00  0.00    +0.000 A 
ENDBRANCH  24  25
ENDBRANCH   3  24
TORSDOF 5
ENDMDL
MODEL 5
REMARK VINA RESULT:      -6.4      4.101      7.712
REMARK  Name = 
REMARK  7 active torsions:
REMARK  status: ('A' for Active; 'I' for Inactive)
REMARK    1  A    between atoms: C_2  and  C_3
REMARK    2  A    between atoms: C_3  and  C_4
REMARK    3  A    between atoms: C_5  and  O_6
REMARK    4  A    between atoms: N_7  and  C_8
REMARK    5  A    between atoms: C_8  and  C_9
REMARK    6  A    between atoms: N_21  and  C_22
REMARK    7  A    between atoms: N_25  and  C_26
REMARK                            x       y       z     vdW  Elec       q    Type
REMARK                         _______ _______ _______ _____ _____    ______ ____
ROOT
ATOM      1  C   UNL     1       2.560   4.802  19.862  0.00  0.00    +0.000 A 
ATOM      2  C   UNL     1       3.494   4.906  18.897  0.00  0.00    +0.000 A 
ATOM      3  N   UNL     1       3.660   6.060  18.124  0.00  0.00    +0.000 N 
ATOM      4  C   UNL     1       2.987   7.213  18.460  0.00  0.00    +0.000 A 
ATOM      5  N   UNL     1       3.042   8.445  17.970  0.00  0.00    +0.000 NA
ATOM      6  C   UNL     1       2.159   9.173  18.734  0.00  0.00    +0.000 A 
ATOM      7  C   UNL     1       1.566   8.405  19.689  0.00  0.00    +0.000 A 
ATOM      8  C   UNL     1       0.702   8.928  20.690  0.00  0.00    +0.000 A 
ATOM      9  O   UNL     1       0.376   8.326  21.707  0.00  0.00    +0.000 OA
ATOM     10  N   UNL     1       0.329  10.248  20.452  0.00  0.00    +0.000 N 
ATOM     11  C   UNL     1      -0.623  10.853  21.369  0.00  0.00    +0.000 C 
ATOM     12  C   UNL     1       0.920  11.092  19.501  0.00  0.00    +0.000 A 
ATOM     13  O   UNL     1       0.622  12.289  19.450  0.00  0.00    +0.000 OA
ATOM     14  N   UNL     1       1.867  10.520  18.639  0.00  0.00    +0.000 N 
ATOM     15  C   UNL     1       2.521  11.372  17.658  0.00  0.00    +0.000 C 
ATOM     16  N   UNL     1       2.039   7.135  19.476  0.00  0.00    +0.000 N 
ATOM     17  C   UNL     1       1.667   5.952  20.104  0.00  0.00    +0.000 A 
ATOM     18  O   UNL     1       0.670   5.899  20.806  0.00  0.00    +0.000 OA
ENDROOT
BRANCH   2  19
ATOM     19  O   UNL     1       4.357   3.864  18.620  0.00  0.00    +0.000 OA
ATOM     20  H   UNL     1       4.705   3.954  17.718  0.00  0.00    +0.000 HD
ENDBRANCH   2  19
BRANCH   1  21
ATOM     21  C   UNL     1       2.297   3.639  20.761  0.00  0.00    +0.000 C 
BRANCH  21  23
ATOM     22  C   UNL     1       0.779   1.761  19.298  0.00  0.00    +0.000 C 
ATOM     23  C   UNL     1       1.480   2.628  19.973  0.00  0.00    +0.000 C 
ENDBRANCH  21  23
ENDBRANCH   1  21
BRANCH   3  24
ATOM     24  C   UNL     1       4.641   6.096  17.021  0.00  0.00    +0.000 C 
BRANCH  24  25
ATOM     25  C   UNL     1       6.034   6.570  17.422  0.00  0.00    +0.000 A 
ATOM     26  C   UNL     1       6.482   7.850  17.063  0.00  0.00    +0.000 A 
ATOM     27  C   UNL     1       7.661   8.375  17.602  0.00  0.00    +0.000 A 
ATOM     28  C   UNL     1       8.417   7.628  18.501  0.00  0.00    +0.000 A 
ATOM     29  C   UNL     1       8.017   6.336  18.830  0.00  0.00    +0.000 A 
ATOM     30  C   UNL     1       6.838   5.807  18.291  0.00  0.00    +0.000 A 
ENDBRANCH  24  25
ENDBRANCH   3  24
TORSDOF 5
ENDMDL
MODEL 6
REMARK VINA RESULT:      -6.2      3.452      5.476
REMARK  Name = 
REMARK  7 active torsions:
REMARK  status: ('A' for Active; 'I' for Inactive)
REMARK    1  A    between atoms: C_2  and  C_3
REMARK    2  A    between atoms: C_3  and  C_4
REMARK    3  A    between atoms: C_5  and  O_6
REMARK    4  A    between atoms: N_7  and  C_8
REMARK    5  A    between atoms: C_8  and  C_9
REMARK    6  A    between atoms: N_21  and  C_22
REMARK    7  A    between atoms: N_25  and  C_26
REMARK                            x       y       z     vdW  Elec       q    Type
REMARK                         _______ _______ _______ _____ _____    ______ ____
ROOT
ATOM      1  C   UNL     1      -1.157  13.507  22.372  0.00  0.00    +0.000 A 
ATOM      2  C   UNL     1      -0.214  13.154  21.477  0.00  0.00    +0.000 A 
ATOM      3  N   UNL     1      -0.513  12.498  20.279  0.00  0.00    +0.000 N 
ATOM      4  C   UNL     1      -1.825  12.358  19.882  0.00  0.00    +0.000 A 
ATOM      5  N   UNL     1      -2.367  11.880  18.770  0.00  0.00    +0.000 NA
ATOM      6  C   UNL     1      -3.723  12.027  18.942  0.00  0.00    +0.000 A 
ATOM      7  C   UNL     1      -4.020  12.594  20.144  0.00  0.00    +0.000 A 
ATOM      8  C   UNL     1      -5.338  12.968  20.530  0.00  0.00    +0.000 A 
ATOM      9  O   UNL     1      -5.599  13.712  21.468  0.00  0.00    +0.000 OA
ATOM     10  N   UNL     1      -6.317  12.479  19.668  0.00  0.00    +0.000 N 
ATOM     11  C   UNL     1      -7.705  12.731  20.018  0.00  0.00    +0.000 C 
ATOM     12  C   UNL     1      -6.070  11.911  18.411  0.00  0.00    +0.000 A 
ATOM     13  O   UNL     1      -7.004  11.630  17.654  0.00  0.00    +0.000 OA
ATOM     14  N   UNL     1      -4.730  11.702  18.054  0.00  0.00    +0.000 N 
ATOM     15  C   UNL     1      -4.437  11.140  16.745  0.00  0.00    +0.000 C 
ATOM     16  N   UNL     1      -2.815  12.744  20.780  0.00  0.00    +0.000 N 
ATOM     17  C   UNL     1      -2.564  13.173  22.078  0.00  0.00    +0.000 A 
ATOM     18  O   UNL     1      -3.467  13.264  22.896  0.00  0.00    +0.000 OA
ENDROOT
BRANCH   2  19
ATOM     19  O   UNL     1       1.121  13.435  21.695  0.00  0.00    +0.000 OA
ATOM     20  H   UNL     1       1.469  12.861  22.397  0.00  0.00    +0.000 HD
ENDBRANCH   2  19
BRANCH   1  21
ATOM     21  C   UNL     1      -0.968  14.222  23.669  0.00  0.00    +0.000 C 
BRANCH  21  23
ATOM     22  C   UNL     1      -0.927  16.990  23.113  0.00  0.00    +0.000 C 
ATOM     23  C   UNL     1      -0.945  15.712  23.370  0.00  0.00    +0.000 C 
ENDBRANCH  21  23
ENDBRANCH   1  21
BRANCH   3  24
ATOM     24  C   UNL     1       0.564  12.057  19.369  0.00  0.00    +0.000 C 
BRANCH  24  25
ATOM     25  C   UNL     1       0.878  10.566  19.428  0.00  0.00    +0.000 A 
ATOM     26  C   UNL     1       1.433   9.911  18.320  0.00  0.00    +0.000 A 
ATOM     27  C   UNL     1       1.921   8.605  18.429  0.00  0.00    +0.000 A 
ATOM     28  C   UNL     1       1.855   7.927  19.644  0.00  0.00    +0.000 A 
ATOM     29  C   UNL     1       1.260   8.543  20.743  0.00  0.00    +0.000 A 
ATOM     30  C   UNL     1       0.769   9.849  20.636  0.00  0.00    +0.000 A 
ENDBRANCH  24  25
ENDBRANCH   3  24
TORSDOF 5
ENDMDL
MODEL 7
REMARK VINA RESULT:      -6.2      3.772      6.158
REMARK  Name = 
REMARK  7 active torsions:
REMARK  status: ('A' for Active; 'I' for Inactive)
REMARK    1  A    between atoms: C_2  and  C_3
REMARK    2  A    between atoms: C_3  and  C_4
REMARK    3  A    between atoms: C_5  and  O_6
REMARK    4  A    between atoms: N_7  and  C_8
REMARK    5  A    between atoms: C_8  and  C_9
REMARK    6  A    between atoms: N_21  and  C_22
REMARK    7  A    between atoms: N_25  and  C_26
REMARK                            x       y       z     vdW  Elec       q    Type
REMARK                         _______ _______ _______ _____ _____    ______ ____
ROOT
ATOM      1  C   UNL     1      -1.664  11.826  20.285  0.00  0.00    +0.000 A 
ATOM      2  C   UNL     1      -2.782  11.911  19.540  0.00  0.00    +0.000 A 
ATOM      3  N   UNL     1      -3.920  12.610  19.956  0.00  0.00    +0.000 N 
ATOM      4  C   UNL     1      -3.863  13.406  21.079  0.00  0.00    +0.000 A 
ATOM      5  N   UNL     1      -4.744  14.236  21.622  0.00  0.00    +0.000 NA
ATOM      6  C   UNL     1      -4.106  14.769  22.717  0.00  0.00    +0.000 A 
ATOM      7  C   UNL     1      -2.842  14.280  22.851  0.00  0.00    +0.000 A 
ATOM      8  C   UNL     1      -1.920  14.750  23.828  0.00  0.00    +0.000 A 
ATOM      9  O   UNL     1      -0.714  14.532  23.802  0.00  0.00    +0.000 OA
ATOM     10  N   UNL     1      -2.511  15.575  24.782  0.00  0.00    +0.000 N 
ATOM     11  C   UNL     1      -1.675  16.041  25.876  0.00  0.00    +0.000 C 
ATOM     12  C   UNL     1      -3.796  16.126  24.684  0.00  0.00    +0.000 A 
ATOM     13  O   UNL     1      -4.188  16.958  25.507  0.00  0.00    +0.000 OA
ATOM     14  N   UNL     1      -4.591  15.707  23.607  0.00  0.00    +0.000 N 
ATOM     15  C   UNL     1      -5.920  16.280  23.459  0.00  0.00    +0.000 C 
ATOM     16  N   UNL     1      -2.704  13.356  21.847  0.00  0.00    +0.000 N 
ATOM     17  C   UNL     1      -1.645  12.489  21.604  0.00  0.00    +0.000 A 
ATOM     18  O   UNL     1      -0.771  12.313  22.438  0.00  0.00    +0.000 OA
ENDROOT
BRANCH   2  19
ATOM     19  O   UNL     1      -2.864  11.310  18.299  0.00  0.00    +0.000 OA
ATOM     20  H   UNL     1      -2.012  11.388  17.838  0.00  0.00    +0.000 HD
ENDBRANCH   2  19
BRANCH   1  21
ATOM     21  C   UNL     1      -0.388  11.130  19.945  0.00  0.00    +0.000 C 
BRANCH  21  23
ATOM     22  C   UNL     1      -0.304   8.735  21.439  0.00  0.00    +0.000 C 
ATOM     23  C   UNL     1      -0.342   9.841  20.749  0.00  0.00    +0.000 C 
ENDBRANCH  21  23
ENDBRANCH   1  21
BRANCH   3  24
ATOM     24  C   UNL     1      -5.152  12.604  19.141  0.00  0.00    +0.000 C 
BRANCH  24  25
ATOM     25  C   UNL     1      -6.183  11.560  19.553  0.00  0.00    +0.000 A 
ATOM     26  C   UNL     1      -6.212  10.303  18.931  0.00  0.00    +0.000 A 
ATOM     27  C   UNL     1      -7.004   9.269  19.440  0.00  0.00    +0.000 A 
ATOM     28  C   UNL     1      -7.787   9.474  20.573  0.00  0.00    +0.000 A 
ATOM     29  C   UNL     1      -7.812  10.730  21.174  0.00  0.00    +0.000 A 
ATOM     30  C   UNL     1      -7.022  11.767  20.666  0.00  0.00    +0.000 A 
ENDBRANCH  24  25
ENDBRANCH   3  24
TORSDOF 5
ENDMDL
MODEL 8
REMARK VINA RESULT:      -6.1      4.285      6.447
REMARK  Name = 
REMARK  7 active torsions:
REMARK  status: ('A' for Active; 'I' for Inactive)
REMARK    1  A    between atoms: C_2  and  C_3
REMARK    2  A    between atoms: C_3  and  C_4
REMARK    3  A    between atoms: C_5  and  O_6
REMARK    4  A    between atoms: N_7  and  C_8
REMARK    5  A    between atoms: C_8  and  C_9
REMARK    6  A    between atoms: N_21  and  C_22
REMARK    7  A    between atoms: N_25  and  C_26
REMARK                            x       y       z     vdW  Elec       q    Type
REMARK                         _______ _______ _______ _____ _____    ______ ____
ROOT
ATOM      1  C   UNL     1      -4.814  12.009  18.800  0.00  0.00    +0.000 A 
ATOM      2  C   UNL     1      -3.491  11.839  18.987  0.00  0.00    +0.000 A 
ATOM      3  N   UNL     1      -2.746  12.612  19.884  0.00  0.00    +0.000 N 
ATOM      4  C   UNL     1      -3.391  13.460  20.758  0.00  0.00    +0.000 A 
ATOM      5  N   UNL     1      -2.943  14.209  21.756  0.00  0.00    +0.000 NA
ATOM      6  C   UNL     1      -4.063  14.812  22.281  0.00  0.00    +0.000 A 
ATOM      7  C   UNL     1      -5.193  14.437  21.621  0.00  0.00    +0.000 A 
ATOM      8  C   UNL     1      -6.502  14.816  22.030  0.00  0.00    +0.000 A 
ATOM      9  O   UNL     1      -7.532  14.286  21.631  0.00  0.00    +0.000 OA
ATOM     10  N   UNL     1      -6.500  15.800  23.016  0.00  0.00    +0.000 N 
ATOM     11  C   UNL     1      -7.787  16.322  23.445  0.00  0.00    +0.000 C 
ATOM     12  C   UNL     1      -5.373  16.207  23.744  0.00  0.00    +0.000 A 
ATOM     13  O   UNL     1      -5.487  16.986  24.695  0.00  0.00    +0.000 OA
ATOM     14  N   UNL     1      -4.135  15.675  23.357  0.00  0.00    +0.000 N 
ATOM     15  C   UNL     1      -2.948  16.054  24.109  0.00  0.00    +0.000 C 
ATOM     16  N   UNL     1      -4.763  13.626  20.601  0.00  0.00    +0.000 N 
ATOM     17  C   UNL     1      -5.502  13.065  19.567  0.00  0.00    +0.000 A 
ATOM     18  O   UNL     1      -6.642  13.436  19.335  0.00  0.00    +0.000 OA
ENDROOT
BRANCH   2  19
ATOM     19  O   UNL     1      -2.789  10.870  18.298  0.00  0.00    +0.000 OA
ATOM     20  H   UNL     1      -2.404  11.252  17.491  0.00  0.00    +0.000 HD
ENDBRANCH   2  19
BRANCH   1  21
ATOM     21  C   UNL     1      -5.716  11.241  17.892  0.00  0.00    +0.000 C 
BRANCH  21  23
ATOM     22  C   UNL     1      -7.077   9.331  19.464  0.00  0.00    +0.000 C 
ATOM     23  C   UNL     1      -6.449  10.213  18.738  0.00  0.00    +0.000 C 
ENDBRANCH  21  23
ENDBRANCH   1  21
BRANCH   3  24
ATOM     24  C   UNL     1      -1.283  12.445  19.993  0.00  0.00    +0.000 C 
BRANCH  24  25
ATOM     25  C   UNL     1      -0.837  11.327  20.928  0.00  0.00    +0.000 A 
ATOM     26  C   UNL     1      -1.065  11.418  22.309  0.00  0.00    +0.000 A 
ATOM     27  C   UNL     1      -0.858  10.317  23.145  0.00  0.00    +0.000 A 
ATOM     28  C   UNL     1      -0.410   9.107  22.619  0.00  0.00    +0.000 A 
ATOM     29  C   UNL     1      -0.129   9.012  21.259  0.00  0.00    +0.000 A 
ATOM     30  C   UNL     1      -0.333  10.113  20.420  0.00  0.00    +0.000 A 
ENDBRANCH  24  25
ENDBRANCH   3  24
TORSDOF 5
ENDMDL
MODEL 9
REMARK VINA RESULT:      -6.1      3.765      5.823
REMARK  Name = 
REMARK  7 active torsions:
REMARK  status: ('A' for Active; 'I' for Inactive)
REMARK    1  A    between atoms: C_2  and  C_3
REMARK    2  A    between atoms: C_3  and  C_4
REMARK    3  A    between atoms: C_5  and  O_6
REMARK    4  A    between atoms: N_7  and  C_8
REMARK    5  A    between atoms: C_8  and  C_9
REMARK    6  A    between atoms: N_21  and  C_22
REMARK    7  A    between atoms: N_25  and  C_26
REMARK                            x       y       z     vdW  Elec       q    Type
REMARK                         _______ _______ _______ _____ _____    ______ ____
ROOT
ATOM      1  C   UNL     1      -1.725  11.575  19.872  0.00  0.00    +0.000 A 
ATOM      2  C   UNL     1      -2.895  11.693  19.216  0.00  0.00    +0.000 A 
ATOM      3  N   UNL     1      -3.988  12.394  19.735  0.00  0.00    +0.000 N 
ATOM      4  C   UNL     1      -3.836  13.157  20.871  0.00  0.00    +0.000 A 
ATOM      5  N   UNL     1      -4.663  13.982  21.500  0.00  0.00    +0.000 NA
ATOM      6  C   UNL     1      -3.937  14.478  22.558  0.00  0.00    +0.000 A 
ATOM      7  C   UNL     1      -2.673  13.971  22.583  0.00  0.00    +0.000 A 
ATOM      8  C   UNL     1      -1.674  14.403  23.500  0.00  0.00    +0.000 A 
ATOM      9  O   UNL     1      -0.477  14.172  23.376  0.00  0.00    +0.000 OA
ATOM     10  N   UNL     1      -2.180  15.209  24.517  0.00  0.00    +0.000 N 
ATOM     11  C   UNL     1      -1.257  15.635  25.557  0.00  0.00    +0.000 C 
ATOM     12  C   UNL     1      -3.461  15.777  24.531  0.00  0.00    +0.000 A 
ATOM     13  O   UNL     1      -3.779  16.590  25.403  0.00  0.00    +0.000 OA
ATOM     14  N   UNL     1      -4.341  15.397  23.507  0.00  0.00    +0.000 N 
ATOM     15  C   UNL     1      -5.669  15.990  23.474  0.00  0.00    +0.000 C 
ATOM     16  N   UNL     1      -2.623  13.073  21.548  0.00  0.00    +0.000 N 
ATOM     17  C   UNL     1      -1.598  12.201  21.202  0.00  0.00    +0.000 A 
ATOM     18  O   UNL     1      -0.666  11.992  21.963  0.00  0.00    +0.000 OA
ENDROOT
BRANCH   2  19
ATOM     19  O   UNL     1      -3.078  11.127  17.969  0.00  0.00    +0.000 OA
ATOM     20  H   UNL     1      -2.679  10.241  17.947  0.00  0.00    +0.000 HD
ENDBRANCH   2  19
BRANCH   1  21
ATOM     21  C   UNL     1      -0.487  10.873  19.418  0.00  0.00    +0.000 C 
BRANCH  21  23
ATOM     22  C   UNL     1       1.334  12.846  18.545  0.00  0.00    +0.000 C 
ATOM     23  C   UNL     1       0.494  11.935  18.948  0.00  0.00    +0.000 C 
ENDBRANCH  21  23
ENDBRANCH   1  21
BRANCH   3  24
ATOM     24  C   UNL     1      -5.278  12.424  19.015  0.00  0.00    +0.000 C 
BRANCH  24  25
ATOM     25  C   UNL     1      -6.312  11.423  19.518  0.00  0.00    +0.000 A 
ATOM     26  C   UNL     1      -6.375  10.131  18.977  0.00  0.00    +0.000 A 
ATOM     27  C   UNL     1      -7.167   9.142  19.570  0.00  0.00    +0.000 A 
ATOM     28  C   UNL     1      -7.917   9.429  20.708  0.00  0.00    +0.000 A 
ATOM     29  C   UNL     1      -7.908  10.720  21.230  0.00  0.00    +0.000 A 
ATOM     30  C   UNL     1      -7.118  11.712  20.637  0.00  0.00    +0.000 A 
ENDBRANCH  24  25
ENDBRANCH   3  24
TORSDOF 5
ENDMDL
