MODEL 1
REMARK VINA RESULT:      -9.2      0.000      0.000
REMARK  Name = 
REMARK  6 active torsions:
REMARK  status: ('A' for Active; 'I' for Inactive)
REMARK    1  A    between atoms: C_1  and  N_2
REMARK    2  A    between atoms: C_11  and  C_12
REMARK    3  A    between atoms: C_12  and  C_13
REMARK    4  A    between atoms: C_13  and  O_14
REMARK    5  A    between atoms: O_14  and  C_15
REMARK    6  A    between atoms: C_20  and  C_21
REMARK                            x       y       z     vdW  Elec       q    Type
REMARK                         _______ _______ _______ _____ _____    ______ ____
ROOT
ATOM      1  C   UNL     1       3.163   6.897  18.206  0.00  0.00    +0.000 C 
ENDROOT
BRANCH   1  12
ATOM      2  C   UNL     1      -0.450  12.374  18.677  0.00  0.00    +0.000 C 
ATOM      3  N   UNL     1      -0.062  11.246  19.493  0.00  0.00    +0.000 N 
ATOM      4  C   UNL     1      -0.421  11.018  20.809  0.00  0.00    +0.000 A 
ATOM      5  C   UNL     1      -1.217  11.755  21.698  0.00  0.00    +0.000 A 
ATOM      6  C   UNL     1      -1.396  11.259  22.993  0.00  0.00    +0.000 A 
ATOM      7  C   UNL     1      -0.803  10.067  23.392  0.00  0.00    +0.000 A 
ATOM      8  C   UNL     1      -0.010   9.337  22.503  0.00  0.00    +0.000 A 
ATOM      9  C   UNL     1       0.188   9.816  21.189  0.00  0.00    +0.000 A 
ATOM     10  C   UNL     1       0.925   9.330  20.067  0.00  0.00    +0.000 A 
ATOM     11  C   UNL     1       1.730   8.208  19.813  0.00  0.00    +0.000 A 
ATOM     12  C   UNL     1       2.310   8.085  18.546  0.00  0.00    +0.000 A 
ATOM     13  C   UNL     1       2.038   9.071  17.598  0.00  0.00    +0.000 A 
ATOM     14  N   UNL     1       1.267  10.163  17.790  0.00  0.00    +0.000 NA
ATOM     15  C   UNL     1       0.746  10.238  19.032  0.00  0.00    +0.000 A 
ENDBRANCH   1  12
BRANCH   1  16
ATOM     16  C   UNL     1       4.336   7.275  17.307  0.00  0.00    +0.000 C 
BRANCH  16  17
ATOM     17  O   UNL     1       5.391   6.350  17.568  0.00  0.00    +0.000 OA
BRANCH  17  18
ATOM     18  C   UNL     1       5.664   5.501  16.515  0.00  0.00    +0.000 A 
ATOM     19  N   UNL     1       6.391   5.977  15.473  0.00  0.00    +0.000 NA
ATOM     20  C   UNL     1       6.698   5.076  14.518  0.00  0.00    +0.000 A 
ATOM     21  C   UNL     1       6.337   3.746  14.614  0.00  0.00    +0.000 A 
ATOM     22  N   UNL     1       5.585   3.269  15.632  0.00  0.00    +0.000 NA
ATOM     23  C   UNL     1       5.206   4.175  16.583  0.00  0.00    +0.000 A 
BRANCH  23  24
ATOM     24  C   UNL     1       4.224   3.669  17.570  0.00  0.00    +0.000 A 
ATOM     25  C   UNL     1       2.878   3.460  17.220  0.00  0.00    +0.000 A 
ATOM     26  C   UNL     1       1.920   3.106  18.179  0.00  0.00    +0.000 A 
ATOM     27  C   UNL     1       2.298   2.945  19.510  0.00  0.00    +0.000 A 
ATOM     28 CL   UNL     1       1.116   2.574  20.702  0.00  0.00    +0.000 Cl
ATOM     29  C   UNL     1       3.625   3.111  19.882  0.00  0.00    +0.000 A 
ATOM     30  C   UNL     1       4.574   3.474  18.922  0.00  0.00    +0.000 A 
ENDBRANCH  23  24
ENDBRANCH  17  18
ENDBRANCH  16  17
ENDBRANCH   1  16
TORSDOF 5
ENDMDL
MODEL 2
REMARK VINA RESULT:      -8.9      3.051      4.782
REMARK  Name = 
REMARK  6 active torsions:
REMARK  status: ('A' for Active; 'I' for Inactive)
REMARK    1  A    between atoms: C_1  and  N_2
REMARK    2  A    between atoms: C_11  and  C_12
REMARK    3  A    between atoms: C_12  and  C_13
REMARK    4  A    between atoms: C_13  and  O_14
REMARK    5  A    between atoms: O_14  and  C_15
REMARK    6  A    between atoms: C_20  and  C_21
REMARK                            x       y       z     vdW  Elec       q    Type
REMARK                         _______ _______ _______ _____ _____    ______ ____
ROOT
ATOM      1  C   UNL     1       2.531   8.225  18.163  0.00  0.00    +0.000 C 
ENDROOT
BRANCH   1  12
ATOM      2  C   UNL     1      -2.155  12.198  20.513  0.00  0.00    +0.000 C 
ATOM      3  N   UNL     1      -1.875  11.418  19.329  0.00  0.00    +0.000 N 
ATOM      4  C   UNL     1      -2.680  11.298  18.211  0.00  0.00    +0.000 A 
ATOM      5  C   UNL     1      -3.928  11.856  17.899  0.00  0.00    +0.000 A 
ATOM      6  C   UNL     1      -4.506  11.537  16.667  0.00  0.00    +0.000 A 
ATOM      7  C   UNL     1      -3.861  10.691  15.771  0.00  0.00    +0.000 A 
ATOM      8  C   UNL     1      -2.618  10.137  16.088  0.00  0.00    +0.000 A 
ATOM      9  C   UNL     1      -2.014  10.441  17.327  0.00  0.00    +0.000 A 
ATOM     10  C   UNL     1      -0.788  10.049  17.945  0.00  0.00    +0.000 A 
ATOM     11  C   UNL     1       0.290   9.224  17.585  0.00  0.00    +0.000 A 
ATOM     12  C   UNL     1       1.339   9.075  18.499  0.00  0.00    +0.000 A 
ATOM     13  C   UNL     1       1.267   9.770  19.705  0.00  0.00    +0.000 A 
ATOM     14  N   UNL     1       0.257  10.578  20.094  0.00  0.00    +0.000 NA
ATOM     15  C   UNL     1      -0.732  10.675  19.183  0.00  0.00    +0.000 A 
ENDBRANCH   1  12
BRANCH   1  16
ATOM     16  C   UNL     1       2.813   7.185  19.244  0.00  0.00    +0.000 C 
BRANCH  16  17
ATOM     17  O   UNL     1       2.320   5.932  18.771  0.00  0.00    +0.000 OA
BRANCH  17  18
ATOM     18  C   UNL     1       2.549   4.879  19.633  0.00  0.00    +0.000 A 
ATOM     19  N   UNL     1       1.811   4.802  20.769  0.00  0.00    +0.000 NA
ATOM     20  C   UNL     1       2.020   3.706  21.525  0.00  0.00    +0.000 A 
ATOM     21  C   UNL     1       2.893   2.704  21.149  0.00  0.00    +0.000 A 
ATOM     22  N   UNL     1       3.656   2.787  20.035  0.00  0.00    +0.000 NA
ATOM     23  C   UNL     1       3.511   3.918  19.282  0.00  0.00    +0.000 A 
BRANCH  23  24
ATOM     24  C   UNL     1       4.496   4.069  18.187  0.00  0.00    +0.000 A 
ATOM     25  C   UNL     1       5.763   4.635  18.417  0.00  0.00    +0.000 A 
ATOM     26  C   UNL     1       6.649   4.898  17.364  0.00  0.00    +0.000 A 
ATOM     27  C   UNL     1       6.282   4.589  16.057  0.00  0.00    +0.000 A 
ATOM     28 CL   UNL     1       7.338   4.969  14.754  0.00  0.00    +0.000 Cl
ATOM     29  C   UNL     1       5.053   3.999  15.799  0.00  0.00    +0.000 A 
ATOM     30  C   UNL     1       4.170   3.749  16.853  0.00  0.00    +0.000 A 
ENDBRANCH  23  24
ENDBRANCH  17  18
ENDBRANCH  16  17
ENDBRANCH   1  16
TORSDOF 5
ENDMDL
MODEL 3
REMARK VINA RESULT:      -8.7      1.032      2.055
REMARK  Name = 
REMARK  6 active torsions:
REMARK  status: ('A' for Active; 'I' for Inactive)
REMARK    1  A    between atoms: C_1  and  N_2
REMARK    2  A    between atoms: C_11  and  C_12
REMARK    3  A    between atoms: C_12  and  C_13
REMARK    4  A    between atoms: C_13  and  O_14
REMARK    5  A    between atoms: O_14  and  C_15
REMARK    6  A    between atoms: C_20  and  C_21
REMARK                            x       y       z     vdW  Elec       q    Type
REMARK                         _______ _______ _______ _____ _____    ______ ____
ROOT
ATOM      1  C   UNL     1       3.028   7.156  17.389  0.00  0.00    +0.000 C 
ENDROOT
BRANCH   1  12
ATOM      2  C   UNL     1       0.052   9.380  22.817  0.00  0.00    +0.000 C 
ATOM      3  N   UNL     1       0.232   9.761  21.434  0.00  0.00    +0.000 N 
ATOM      4  C   UNL     1      -0.281  10.886  20.814  0.00  0.00    +0.000 A 
ATOM      5  C   UNL     1      -1.077  11.934  21.300  0.00  0.00    +0.000 A 
ATOM      6  C   UNL     1      -1.447  12.948  20.412  0.00  0.00    +0.000 A 
ATOM      7  C   UNL     1      -1.038  12.923  19.084  0.00  0.00    +0.000 A 
ATOM      8  C   UNL     1      -0.246  11.876  18.606  0.00  0.00    +0.000 A 
ATOM      9  C   UNL     1       0.141  10.838  19.481  0.00  0.00    +0.000 A 
ATOM     10  C   UNL     1       0.919   9.652  19.315  0.00  0.00    +0.000 A 
ATOM     11  C   UNL     1       1.602   9.049  18.247  0.00  0.00    +0.000 A 
ATOM     12  C   UNL     1       2.261   7.838  18.485  0.00  0.00    +0.000 A 
ATOM     13  C   UNL     1       2.224   7.310  19.775  0.00  0.00    +0.000 A 
ATOM     14  N   UNL     1       1.588   7.853  20.835  0.00  0.00    +0.000 NA
ATOM     15  C   UNL     1       0.958   9.010  20.546  0.00  0.00    +0.000 A 
ENDBRANCH   1  12
BRANCH   1  16
ATOM     16  C   UNL     1       4.490   7.591  17.360  0.00  0.00    +0.000 C 
BRANCH  16  17
ATOM     17  O   UNL     1       5.281   6.462  17.730  0.00  0.00    +0.000 OA
BRANCH  17  18
ATOM     18  C   UNL     1       5.553   5.603  16.685  0.00  0.00    +0.000 A 
ATOM     19  N   UNL     1       6.274   6.070  15.635  0.00  0.00    +0.000 NA
ATOM     20  C   UNL     1       6.580   5.160  14.688  0.00  0.00    +0.000 A 
ATOM     21  C   UNL     1       6.224   3.830  14.799  0.00  0.00    +0.000 A 
ATOM     22  N   UNL     1       5.477   3.362  15.825  0.00  0.00    +0.000 NA
ATOM     23  C   UNL     1       5.099   4.276  16.768  0.00  0.00    +0.000 A 
BRANCH  23  24
ATOM     24  C   UNL     1       4.123   3.777  17.764  0.00  0.00    +0.000 A 
ATOM     25  C   UNL     1       2.754   3.673  17.457  0.00  0.00    +0.000 A 
ATOM     26  C   UNL     1       1.810   3.327  18.432  0.00  0.00    +0.000 A 
ATOM     27  C   UNL     1       2.225   3.067  19.736  0.00  0.00    +0.000 A 
ATOM     28 CL   UNL     1       1.064   2.703  20.952  0.00  0.00    +0.000 Cl
ATOM     29  C   UNL     1       3.572   3.128  20.064  0.00  0.00    +0.000 A 
ATOM     30  C   UNL     1       4.507   3.485  19.088  0.00  0.00    +0.000 A 
ENDBRANCH  23  24
ENDBRANCH  17  18
ENDBRANCH  16  17
ENDBRANCH   1  16
TORSDOF 5
ENDMDL
MODEL 4
REMARK VINA RESULT:      -8.6      0.994      1.052
REMARK  Name = 
REMARK  6 active torsions:
REMARK  status: ('A' for Active; 'I' for Inactive)
REMARK    1  A    between atoms: C_1  and  N_2
REMARK    2  A    between atoms: C_11  and  C_12
REMARK    3  A    between atoms: C_12  and  C_13
REMARK    4  A    between atoms: C_13  and  O_14
REMARK    5  A    between atoms: O_14  and  C_15
REMARK    6  A    between atoms: C_20  and  C_21
REMARK                            x       y       z     vdW  Elec       q    Type
REMARK                         _______ _______ _______ _____ _____    ______ ____
ROOT
ATOM      1  C   UNL     1       2.373   7.622  18.036  0.00  0.00    +0.000 C 
ENDROOT
BRANCH   1  12
ATOM      2  C   UNL     1       0.823  13.866  19.408  0.00  0.00    +0.000 C 
ATOM      3  N   UNL     1       0.608  12.542  19.946  0.00  0.00    +0.000 N 
ATOM      4  C   UNL     1      -0.098  12.222  21.092  0.00  0.00    +0.000 A 
ATOM      5  C   UNL     1      -0.778  13.024  22.019  0.00  0.00    +0.000 A 
ATOM      6  C   UNL     1      -1.405  12.397  23.100  0.00  0.00    +0.000 A 
ATOM      7  C   UNL     1      -1.359  11.016  23.253  0.00  0.00    +0.000 A 
ATOM      8  C   UNL     1      -0.680  10.222  22.326  0.00  0.00    +0.000 A 
ATOM      9  C   UNL     1      -0.036  10.830  21.225  0.00  0.00    +0.000 A 
ATOM     10  C   UNL     1       0.729  10.323  20.132  0.00  0.00    +0.000 A 
ATOM     11  C   UNL     1       1.142   9.049  19.710  0.00  0.00    +0.000 A 
ATOM     12  C   UNL     1       1.920   8.958  18.551  0.00  0.00    +0.000 A 
ATOM     13  C   UNL     1       2.222  10.135  17.866  0.00  0.00    +0.000 A 
ATOM     14  N   UNL     1       1.844  11.380  18.226  0.00  0.00    +0.000 NA
ATOM     15  C   UNL     1       1.110  11.410  19.356  0.00  0.00    +0.000 A 
ENDBRANCH   1  12
BRANCH   1  16
ATOM     16  C   UNL     1       3.675   7.727  17.248  0.00  0.00    +0.000 C 
BRANCH  16  17
ATOM     17  O   UNL     1       4.555   6.715  17.738  0.00  0.00    +0.000 OA
BRANCH  17  18
ATOM     18  C   UNL     1       4.967   5.817  16.775  0.00  0.00    +0.000 A 
ATOM     19  N   UNL     1       5.586   6.297  15.666  0.00  0.00    +0.000 NA
ATOM     20  C   UNL     1       6.041   5.366  14.805  0.00  0.00    +0.000 A 
ATOM     21  C   UNL     1       5.929   4.011  15.053  0.00  0.00    +0.000 A 
ATOM     22  N   UNL     1       5.286   3.524  16.138  0.00  0.00    +0.000 NA
ATOM     23  C   UNL     1       4.758   4.446  16.998  0.00  0.00    +0.000 A 
BRANCH  23  24
ATOM     24  C   UNL     1       3.895   3.885  18.062  0.00  0.00    +0.000 A 
ATOM     25  C   UNL     1       2.495   4.017  18.013  0.00  0.00    +0.000 A 
ATOM     26  C   UNL     1       1.684   3.604  19.077  0.00  0.00    +0.000 A 
ATOM     27  C   UNL     1       2.263   3.039  20.211  0.00  0.00    +0.000 A 
ATOM     28 CL   UNL     1       1.279   2.588  21.547  0.00  0.00    +0.000 Cl
ATOM     29  C   UNL     1       3.638   2.863  20.277  0.00  0.00    +0.000 A 
ATOM     30  C   UNL     1       4.443   3.288  19.216  0.00  0.00    +0.000 A 
ENDBRANCH  23  24
ENDBRANCH  17  18
ENDBRANCH  16  17
ENDBRANCH   1  16
TORSDOF 5
ENDMDL
MODEL 5
REMARK VINA RESULT:      -8.6      3.313      9.145
REMARK  Name = 
REMARK  6 active torsions:
REMARK  status: ('A' for Active; 'I' for Inactive)
REMARK    1  A    between atoms: C_1  and  N_2
REMARK    2  A    between atoms: C_11  and  C_12
REMARK    3  A    between atoms: C_12  and  C_13
REMARK    4  A    between atoms: C_13  and  O_14
REMARK    5  A    between atoms: O_14  and  C_15
REMARK    6  A    between atoms: C_20  and  C_21
REMARK                            x       y       z     vdW  Elec       q    Type
REMARK                         _______ _______ _______ _____ _____    ______ ____
ROOT
ATOM      1  C   UNL     1       1.310   8.135  21.198  0.00  0.00    +0.000 C 
ENDROOT
BRANCH   1  12
ATOM      2  C   UNL     1       3.133   2.405  18.532  0.00  0.00    +0.000 C 
ATOM      3  N   UNL     1       3.323   3.821  18.317  0.00  0.00    +0.000 N 
ATOM      4  C   UNL     1       4.079   4.410  17.319  0.00  0.00    +0.000 A 
ATOM      5  C   UNL     1       4.840   3.856  16.279  0.00  0.00    +0.000 A 
ATOM      6  C   UNL     1       5.510   4.726  15.414  0.00  0.00    +0.000 A 
ATOM      7  C   UNL     1       5.424   6.104  15.576  0.00  0.00    +0.000 A 
ATOM      8  C   UNL     1       4.665   6.650  16.614  0.00  0.00    +0.000 A 
ATOM      9  C   UNL     1       3.980   5.793  17.503  0.00  0.00    +0.000 A 
ATOM     10  C   UNL     1       3.147   6.021  18.640  0.00  0.00    +0.000 A 
ATOM     11  C   UNL     1       2.678   7.155  19.321  0.00  0.00    +0.000 A 
ATOM     12  C   UNL     1       1.862   6.962  20.441  0.00  0.00    +0.000 A 
ATOM     13  C   UNL     1       1.541   5.654  20.805  0.00  0.00    +0.000 A 
ATOM     14  N   UNL     1       1.961   4.533  20.180  0.00  0.00    +0.000 NA
ATOM     15  C   UNL     1       2.754   4.778  19.118  0.00  0.00    +0.000 A 
ENDBRANCH   1  12
BRANCH   1  16
ATOM     16  C   UNL     1       0.916   9.279  20.268  0.00  0.00    +0.000 C 
BRANCH  16  17
ATOM     17  O   UNL     1      -0.451   9.593  20.529  0.00  0.00    +0.000 OA
BRANCH  17  18
ATOM     18  C   UNL     1      -0.675  10.923  20.819  0.00  0.00    +0.000 A 
ATOM     19  N   UNL     1      -0.237  11.408  22.009  0.00  0.00    +0.000 NA
ATOM     20  C   UNL     1      -0.409  12.732  22.196  0.00  0.00    +0.000 A 
ATOM     21  C   UNL     1      -0.952  13.551  21.226  0.00  0.00    +0.000 A 
ATOM     22  N   UNL     1      -1.420  13.073  20.051  0.00  0.00    +0.000 NA
ATOM     23  C   UNL     1      -1.316  11.723  19.859  0.00  0.00    +0.000 A 
BRANCH  23  24
ATOM     24  C   UNL     1      -2.014  11.208  18.659  0.00  0.00    +0.000 A 
ATOM     25  C   UNL     1      -1.379  10.323  17.769  0.00  0.00    +0.000 A 
ATOM     26  C   UNL     1      -1.985   9.935  16.567  0.00  0.00    +0.000 A 
ATOM     27  C   UNL     1      -3.248  10.422  16.239  0.00  0.00    +0.000 A 
ATOM     28 CL   UNL     1      -3.970  10.000  14.737  0.00  0.00    +0.000 Cl
ATOM     29  C   UNL     1      -3.916  11.270  17.111  0.00  0.00    +0.000 A 
ATOM     30  C   UNL     1      -3.301  11.662  18.304  0.00  0.00    +0.000 A 
ENDBRANCH  23  24
ENDBRANCH  17  18
ENDBRANCH  16  17
ENDBRANCH   1  16
TORSDOF 5
ENDMDL
MODEL 6
REMARK VINA RESULT:      -8.6      2.533      3.745
REMARK  Name = 
REMARK  6 active torsions:
REMARK  status: ('A' for Active; 'I' for Inactive)
REMARK    1  A    between atoms: C_1  and  N_2
REMARK    2  A    between atoms: C_11  and  C_12
REMARK    3  A    between atoms: C_12  and  C_13
REMARK    4  A    between atoms: C_13  and  O_14
REMARK    5  A    between atoms: O_14  and  C_15
REMARK    6  A    between atoms: C_20  and  C_21
REMARK                            x       y       z     vdW  Elec       q    Type
REMARK                         _______ _______ _______ _____ _____    ______ ____
ROOT
ATOM      1  C   UNL     1       2.273   6.759  18.783  0.00  0.00    +0.000 C 
ENDROOT
BRANCH   1  12
ATOM      2  C   UNL     1       0.871  13.185  18.735  0.00  0.00    +0.000 C 
ATOM      3  N   UNL     1       0.651  12.024  19.567  0.00  0.00    +0.000 N 
ATOM      4  C   UNL     1      -0.023  11.990  20.775  0.00  0.00    +0.000 A 
ATOM      5  C   UNL     1      -0.660  12.997  21.513  0.00  0.00    +0.000 A 
ATOM      6  C   UNL     1      -1.262  12.648  22.725  0.00  0.00    +0.000 A 
ATOM      7  C   UNL     1      -1.235  11.337  23.188  0.00  0.00    +0.000 A 
ATOM      8  C   UNL     1      -0.598  10.338  22.448  0.00  0.00    +0.000 A 
ATOM      9  C   UNL     1       0.020  10.664  21.221  0.00  0.00    +0.000 A 
ATOM     10  C   UNL     1       0.741   9.903  20.251  0.00  0.00    +0.000 A 
ATOM     11  C   UNL     1       1.119   8.557  20.120  0.00  0.00    +0.000 A 
ATOM     12  C   UNL     1       1.858   8.187  18.992  0.00  0.00    +0.000 A 
ATOM     13  C   UNL     1       2.158   9.169  18.048  0.00  0.00    +0.000 A 
ATOM     14  N   UNL     1       1.812  10.472  18.124  0.00  0.00    +0.000 NA
ATOM     15  C   UNL     1       1.115  10.776  19.238  0.00  0.00    +0.000 A 
ENDBRANCH   1  12
BRANCH   1  16
ATOM     16  C   UNL     1       2.090   5.922  20.046  0.00  0.00    +0.000 C 
BRANCH  16  17
ATOM     17  O   UNL     1       3.292   5.178  20.244  0.00  0.00    +0.000 OA
BRANCH  17  18
ATOM     18  C   UNL     1       3.363   4.020  19.498  0.00  0.00    +0.000 A 
ATOM     19  N   UNL     1       2.560   2.981  19.840  0.00  0.00    +0.000 NA
ATOM     20  C   UNL     1       2.613   1.911  19.021  0.00  0.00    +0.000 A 
ATOM     21  C   UNL     1       3.396   1.888  17.884  0.00  0.00    +0.000 A 
ATOM     22  N   UNL     1       4.224   2.905  17.553  0.00  0.00    +0.000 NA
ATOM     23  C   UNL     1       4.238   3.978  18.400  0.00  0.00    +0.000 A 
BRANCH  23  24
ATOM     24  C   UNL     1       5.292   4.980  18.121  0.00  0.00    +0.000 A 
ATOM     25  C   UNL     1       6.446   5.069  18.920  0.00  0.00    +0.000 A 
ATOM     26  C   UNL     1       7.382   6.094  18.741  0.00  0.00    +0.000 A 
ATOM     27  C   UNL     1       7.183   7.049  17.746  0.00  0.00    +0.000 A 
ATOM     28 CL   UNL     1       8.296   8.347  17.563  0.00  0.00    +0.000 Cl
ATOM     29  C   UNL     1       6.073   6.970  16.918  0.00  0.00    +0.000 A 
ATOM     30  C   UNL     1       5.136   5.950  17.110  0.00  0.00    +0.000 A 
ENDBRANCH  23  24
ENDBRANCH  17  18
ENDBRANCH  16  17
ENDBRANCH   1  16
TORSDOF 5
ENDMDL
MODEL 7
REMARK VINA RESULT:      -8.5      2.440      3.678
REMARK  Name = 
REMARK  6 active torsions:
REMARK  status: ('A' for Active; 'I' for Inactive)
REMARK    1  A    between atoms: C_1  and  N_2
REMARK    2  A    between atoms: C_11  and  C_12
REMARK    3  A    between atoms: C_12  and  C_13
REMARK    4  A    between atoms: C_13  and  O_14
REMARK    5  A    between atoms: O_14  and  C_15
REMARK    6  A    between atoms: C_20  and  C_21
REMARK                            x       y       z     vdW  Elec       q    Type
REMARK                         _______ _______ _______ _____ _____    ______ ____
ROOT
ATOM      1  C   UNL     1       2.810   7.370  19.283  0.00  0.00    +0.000 C 
ENDROOT
BRANCH   1  12
ATOM      2  C   UNL     1      -1.471  12.209  18.047  0.00  0.00    +0.000 C 
ATOM      3  N   UNL     1      -0.969  11.454  19.172  0.00  0.00    +0.000 N 
ATOM      4  C   UNL     1      -1.334  11.607  20.497  0.00  0.00    +0.000 A 
ATOM      5  C   UNL     1      -2.242  12.477  21.117  0.00  0.00    +0.000 A 
ATOM      6  C   UNL     1      -2.394  12.396  22.505  0.00  0.00    +0.000 A 
ATOM      7  C   UNL     1      -1.669  11.475  23.252  0.00  0.00    +0.000 A 
ATOM      8  C   UNL     1      -0.766  10.610  22.629  0.00  0.00    +0.000 A 
ATOM      9  C   UNL     1      -0.591  10.673  21.229  0.00  0.00    +0.000 A 
ATOM     10  C   UNL     1       0.233   9.957  20.309  0.00  0.00    +0.000 A 
ATOM     11  C   UNL     1       1.179   8.925  20.412  0.00  0.00    +0.000 A 
ATOM     12  C   UNL     1       1.806   8.486  19.241  0.00  0.00    +0.000 A 
ATOM     13  C   UNL     1       1.440   9.081  18.034  0.00  0.00    +0.000 A 
ATOM     14  N   UNL     1       0.533  10.070  17.881  0.00  0.00    +0.000 NA
ATOM     15  C   UNL     1      -0.028  10.464  19.042  0.00  0.00    +0.000 A 
ENDBRANCH   1  12
BRANCH   1  16
ATOM     16  C   UNL     1       2.161   6.033  19.629  0.00  0.00    +0.000 C 
BRANCH  16  17
ATOM     17  O   UNL     1       1.972   5.320  18.408  0.00  0.00    +0.000 OA
BRANCH  17  18
ATOM     18  C   UNL     1       2.362   3.997  18.465  0.00  0.00    +0.000 A 
ATOM     19  N   UNL     1       1.453   3.072  18.865  0.00  0.00    +0.000 NA
ATOM     20  C   UNL     1       1.869   1.790  18.816  0.00  0.00    +0.000 A 
ATOM     21  C   UNL     1       3.119   1.436  18.348  0.00  0.00    +0.000 A 
ATOM     22  N   UNL     1       4.042   2.352  17.979  0.00  0.00    +0.000 NA
ATOM     23  C   UNL     1       3.670   3.664  18.077  0.00  0.00    +0.000 A 
BRANCH  23  24
ATOM     24  C   UNL     1       4.762   4.640  17.858  0.00  0.00    +0.000 A 
ATOM     25  C   UNL     1       5.775   4.830  18.815  0.00  0.00    +0.000 A 
ATOM     26  C   UNL     1       6.735   5.840  18.672  0.00  0.00    +0.000 A 
ATOM     27  C   UNL     1       6.702   6.676  17.559  0.00  0.00    +0.000 A 
ATOM     28 CL   UNL     1       7.838   7.958  17.410  0.00  0.00    +0.000 Cl
ATOM     29  C   UNL     1       5.736   6.493  16.579  0.00  0.00    +0.000 A 
ATOM     30  C   UNL     1       4.774   5.490  16.733  0.00  0.00    +0.000 A 
ENDBRANCH  23  24
ENDBRANCH  17  18
ENDBRANCH  16  17
ENDBRANCH   1  16
TORSDOF 5
ENDMDL
MODEL 8
REMARK VINA RESULT:      -8.5      2.567      3.888
REMARK  Name = 
REMARK  6 active torsions:
REMARK  status: ('A' for Active; 'I' for Inactive)
REMARK    1  A    between atoms: C_1  and  N_2
REMARK    2  A    between atoms: C_11  and  C_12
REMARK    3  A    between atoms: C_12  and  C_13
REMARK    4  A    between atoms: C_13  and  O_14
REMARK    5  A    between atoms: O_14  and  C_15
REMARK    6  A    between atoms: C_20  and  C_21
REMARK                            x       y       z     vdW  Elec       q    Type
REMARK                         _______ _______ _______ _____ _____    ______ ____
ROOT
ATOM      1  C   UNL     1       2.503   7.695  17.985  0.00  0.00    +0.000 C 
ENDROOT
BRANCH   1  12
ATOM      2  C   UNL     1       0.772  13.876  19.421  0.00  0.00    +0.000 C 
ATOM      3  N   UNL     1       0.595  12.541  19.945  0.00  0.00    +0.000 N 
ATOM      4  C   UNL     1      -0.102  12.188  21.087  0.00  0.00    +0.000 A 
ATOM      5  C   UNL     1      -0.807  12.960  22.022  0.00  0.00    +0.000 A 
ATOM      6  C   UNL     1      -1.416  12.304  23.096  0.00  0.00    +0.000 A 
ATOM      7  C   UNL     1      -1.330  10.923  23.233  0.00  0.00    +0.000 A 
ATOM      8  C   UNL     1      -0.627  10.160  22.299  0.00  0.00    +0.000 A 
ATOM      9  C   UNL     1      -0.000  10.798  21.206  0.00  0.00    +0.000 A 
ATOM     10  C   UNL     1       0.780  10.325  20.107  0.00  0.00    +0.000 A 
ATOM     11  C   UNL     1       1.230   9.068  19.673  0.00  0.00    +0.000 A 
ATOM     12  C   UNL     1       2.011   9.012  18.513  0.00  0.00    +0.000 A 
ATOM     13  C   UNL     1       2.280  10.204  17.841  0.00  0.00    +0.000 A 
ATOM     14  N   UNL     1       1.865  11.434  18.214  0.00  0.00    +0.000 NA
ATOM     15  C   UNL     1       1.130  11.431  19.344  0.00  0.00    +0.000 A 
ENDBRANCH   1  12
BRANCH   1  16
ATOM     16  C   UNL     1       2.854   6.725  19.109  0.00  0.00    +0.000 C 
BRANCH  16  17
ATOM     17  O   UNL     1       2.094   5.535  18.900  0.00  0.00    +0.000 OA
BRANCH  17  18
ATOM     18  C   UNL     1       2.399   4.514  19.776  0.00  0.00    +0.000 A 
ATOM     19  N   UNL     1       1.661   4.391  20.908  0.00  0.00    +0.000 NA
ATOM     20  C   UNL     1       1.951   3.324  21.679  0.00  0.00    +0.000 A 
ATOM     21  C   UNL     1       2.905   2.391  21.321  0.00  0.00    +0.000 A 
ATOM     22  N   UNL     1       3.668   2.522  20.212  0.00  0.00    +0.000 NA
ATOM     23  C   UNL     1       3.438   3.629  19.444  0.00  0.00    +0.000 A 
BRANCH  23  24
ATOM     24  C   UNL     1       4.417   3.846  18.354  0.00  0.00    +0.000 A 
ATOM     25  C   UNL     1       5.699   4.364  18.615  0.00  0.00    +0.000 A 
ATOM     26  C   UNL     1       6.580   4.692  17.578  0.00  0.00    +0.000 A 
ATOM     27  C   UNL     1       6.195   4.497  16.254  0.00  0.00    +0.000 A 
ATOM     28 CL   UNL     1       7.248   4.958  14.974  0.00  0.00    +0.000 Cl
ATOM     29  C   UNL     1       4.951   3.957  15.962  0.00  0.00    +0.000 A 
ATOM     30  C   UNL     1       4.071   3.642  17.003  0.00  0.00    +0.000 A 
ENDBRANCH  23  24
ENDBRANCH  17  18
ENDBRANCH  16  17
ENDBRANCH   1  16
TORSDOF 5
ENDMDL
MODEL 9
REMARK VINA RESULT:      -8.4      3.041      4.631
REMARK  Name = 
REMARK  6 active torsions:
REMARK  status: ('A' for Active; 'I' for Inactive)
REMARK    1  A    between atoms: C_1  and  N_2
REMARK    2  A    between atoms: C_11  and  C_12
REMARK    3  A    between atoms: C_12  and  C_13
REMARK    4  A    between atoms: C_13  and  O_14
REMARK    5  A    between atoms: O_14  and  C_15
REMARK    6  A    between atoms: C_20  and  C_21
REMARK                            x       y       z     vdW  Elec       q    Type
REMARK                         _______ _______ _______ _____ _____    ______ ____
ROOT
ATOM      1  C   UNL     1       2.447   8.209  18.319  0.00  0.00    +0.000 C 
ENDROOT
BRANCH   1  12
ATOM      2  C   UNL     1      -2.210  12.298  20.523  0.00  0.00    +0.000 C 
ATOM      3  N   UNL     1      -1.931  11.481  19.363  0.00  0.00    +0.000 N 
ATOM      4  C   UNL     1      -2.730  11.338  18.244  0.00  0.00    +0.000 A 
ATOM      5  C   UNL     1      -3.970  11.900  17.907  0.00  0.00    +0.000 A 
ATOM      6  C   UNL     1      -4.543  11.553  16.680  0.00  0.00    +0.000 A 
ATOM      7  C   UNL     1      -3.902  10.675  15.813  0.00  0.00    +0.000 A 
ATOM      8  C   UNL     1      -2.667  10.117  16.154  0.00  0.00    +0.000 A 
ATOM      9  C   UNL     1      -2.067  10.450  17.389  0.00  0.00    +0.000 A 
ATOM     10  C   UNL     1      -0.850  10.061  18.026  0.00  0.00    +0.000 A 
ATOM     11  C   UNL     1       0.221   9.215  17.697  0.00  0.00    +0.000 A 
ATOM     12  C   UNL     1       1.262   9.080  18.622  0.00  0.00    +0.000 A 
ATOM     13  C   UNL     1       1.189   9.811  19.808  0.00  0.00    +0.000 A 
ATOM     14  N   UNL     1       0.186  10.640  20.167  0.00  0.00    +0.000 NA
ATOM     15  C   UNL     1      -0.796  10.721  19.246  0.00  0.00    +0.000 A 
ENDBRANCH   1  12
BRANCH   1  16
ATOM     16  C   UNL     1       2.031   6.782  17.974  0.00  0.00    +0.000 C 
BRANCH  16  17
ATOM     17  O   UNL     1       2.456   5.941  19.046  0.00  0.00    +0.000 OA
BRANCH  17  18
ATOM     18  C   UNL     1       2.640   4.622  18.685  0.00  0.00    +0.000 A 
ATOM     19  N   UNL     1       1.615   3.752  18.871  0.00  0.00    +0.000 NA
ATOM     20  C   UNL     1       1.826   2.499  18.419  0.00  0.00    +0.000 A 
ATOM     21  C   UNL     1       2.988   2.134  17.768  0.00  0.00    +0.000 A 
ATOM     22  N   UNL     1       4.027   2.985  17.606  0.00  0.00    +0.000 NA
ATOM     23  C   UNL     1       3.865   4.245  18.111  0.00  0.00    +0.000 A 
BRANCH  23  24
ATOM     24  C   UNL     1       5.085   5.084  18.096  0.00  0.00    +0.000 A 
ATOM     25  C   UNL     1       6.053   4.986  19.112  0.00  0.00    +0.000 A 
ATOM     26  C   UNL     1       7.141   5.864  19.173  0.00  0.00    +0.000 A 
ATOM     27  C   UNL     1       7.286   6.857  18.206  0.00  0.00    +0.000 A 
ATOM     28 CL   UNL     1       8.585   7.979  18.312  0.00  0.00    +0.000 Cl
ATOM     29  C   UNL     1       6.368   6.960  17.171  0.00  0.00    +0.000 A 
ATOM     30  C   UNL     1       5.277   6.086  17.123  0.00  0.00    +0.000 A 
ENDBRANCH  23  24
ENDBRANCH  17  18
ENDBRANCH  16  17
ENDBRANCH   1  16
TORSDOF 5
ENDMDL
