MODEL 1
REMARK VINA RESULT:      -5.6      0.000      0.000
REMARK  Name = 
REMARK  5 active torsions:
REMARK  status: ('A' for Active; 'I' for Inactive)
REMARK    1  A    between atoms: N_6  and  C_7
REMARK    2  A    between atoms: C_7  and  O_8
REMARK    3  A    between atoms: O_8  and  C_9
REMARK    4  A    between atoms: C_9  and  C_10
REMARK    5  A    between atoms: C_10  and  O_11
REMARK                            x       y       z     vdW  Elec       q    Type
REMARK                         _______ _______ _______ _____ _____    ______ ____
ROOT
ATOM      1  O   UNL     1       4.707   3.541  20.016  0.00  0.00    +0.000 OA
ATOM      2  C   UNL     1       5.005   3.816  18.859  0.00  0.00    +0.000 A 
ATOM      3  N   UNL     1       6.316   3.970  18.491  0.00  0.00    +0.000 N 
ATOM      4  C   UNL     1       6.775   4.343  17.255  0.00  0.00    +0.000 A 
ATOM      5  O   UNL     1       7.982   4.464  17.060  0.00  0.00    +0.000 OA
ATOM      6  N   UNL     1       5.800   4.552  16.295  0.00  0.00    +0.000 N 
ATOM      7  C   UNL     1       4.457   4.357  16.564  0.00  0.00    +0.000 A 
ATOM      8  C   UNL     1       4.003   4.002  17.773  0.00  0.00    +0.000 A 
ATOM      9  I   UNL     1       2.016   3.729  18.160  0.00  0.00    +0.000 I 
ATOM     10  H   UNL     1       7.009   3.841  19.211  0.00  0.00    +0.000 HD
ENDROOT
BRANCH   6  11
ATOM     11  C   UNL     1       6.213   4.962  14.962  0.00  0.00    +0.000 C 
BRANCH  11  12
ATOM     12  O   UNL     1       6.597   3.799  14.228  0.00  0.00    +0.000 OA
BRANCH  12  13
ATOM     13  C   UNL     1       5.836   3.684  13.017  0.00  0.00    +0.000 C 
BRANCH  13  14
ATOM     14  C   UNL     1       6.791   3.384  11.868  0.00  0.00    +0.000 C 
BRANCH  14  15
ATOM     15  O   UNL     1       6.777   1.989  11.572  0.00  0.00    +0.000 OA
ATOM     16  H   UNL     1       5.841   1.760  11.420  0.00  0.00    +0.000 HD
ENDBRANCH  14  15
ENDBRANCH  13  14
ENDBRANCH  12  13
ENDBRANCH  11  12
ENDBRANCH   6  11
TORSDOF 5
ENDMDL
MODEL 2
REMARK VINA RESULT:      -5.5      3.985      5.700
REMARK  Name = 
REMARK  5 active torsions:
REMARK  status: ('A' for Active; 'I' for Inactive)
REMARK    1  A    between atoms: N_6  and  C_7
REMARK    2  A    between atoms: C_7  and  O_8
REMARK    3  A    between atoms: O_8  and  C_9
REMARK    4  A    between atoms: C_9  and  C_10
REMARK    5  A    between atoms: C_10  and  O_11
REMARK                            x       y       z     vdW  Elec       q    Type
REMARK                         _______ _______ _______ _____ _____    ______ ____
ROOT
ATOM      1  O   UNL     1       6.824   5.223  19.331  0.00  0.00    +0.000 OA
ATOM      2  C   UNL     1       5.830   4.628  18.928  0.00  0.00    +0.000 A 
ATOM      3  N   UNL     1       5.418   3.466  19.525  0.00  0.00    +0.000 N 
ATOM      4  C   UNL     1       4.373   2.674  19.129  0.00  0.00    +0.000 A 
ATOM      5  O   UNL     1       4.118   1.641  19.744  0.00  0.00    +0.000 OA
ATOM      6  N   UNL     1       3.662   3.131  18.032  0.00  0.00    +0.000 N 
ATOM      7  C   UNL     1       3.971   4.326  17.407  0.00  0.00    +0.000 A 
ATOM      8  C   UNL     1       4.998   5.098  17.786  0.00  0.00    +0.000 A 
ATOM      9  I   UNL     1       5.450   6.856  16.848  0.00  0.00    +0.000 I 
ATOM     10  H   UNL     1       5.965   3.136  20.305  0.00  0.00    +0.000 HD
ENDROOT
BRANCH   6  11
ATOM     11  C   UNL     1       2.545   2.335  17.547  0.00  0.00    +0.000 C 
BRANCH  11  12
ATOM     12  O   UNL     1       1.335   3.047  17.804  0.00  0.00    +0.000 OA
BRANCH  12  13
ATOM     13  C   UNL     1       0.678   2.535  18.972  0.00  0.00    +0.000 C 
BRANCH  13  14
ATOM     14  C   UNL     1       0.865   3.531  20.110  0.00  0.00    +0.000 C 
BRANCH  14  15
ATOM     15  O   UNL     1       0.913   2.844  21.359  0.00  0.00    +0.000 OA
ATOM     16  H   UNL     1       0.734   3.520  22.040  0.00  0.00    +0.000 HD
ENDBRANCH  14  15
ENDBRANCH  13  14
ENDBRANCH  12  13
ENDBRANCH  11  12
ENDBRANCH   6  11
TORSDOF 5
ENDMDL
MODEL 3
REMARK VINA RESULT:      -5.5      2.879      5.767
REMARK  Name = 
REMARK  5 active torsions:
REMARK  status: ('A' for Active; 'I' for Inactive)
REMARK    1  A    between atoms: N_6  and  C_7
REMARK    2  A    between atoms: C_7  and  O_8
REMARK    3  A    between atoms: O_8  and  C_9
REMARK    4  A    between atoms: C_9  and  C_10
REMARK    5  A    between atoms: C_10  and  O_11
REMARK                            x       y       z     vdW  Elec       q    Type
REMARK                         _______ _______ _______ _____ _____    ______ ____
ROOT
ATOM      1  O   UNL     1       7.932   4.503  16.785  0.00  0.00    +0.000 OA
ATOM      2  C   UNL     1       6.776   4.273  17.124  0.00  0.00    +0.000 A 
ATOM      3  N   UNL     1       6.442   4.162  18.448  0.00  0.00    +0.000 N 
ATOM      4  C   UNL     1       5.209   3.840  18.952  0.00  0.00    +0.000 A 
ATOM      5  O   UNL     1       5.046   3.754  20.167  0.00  0.00    +0.000 OA
ATOM      6  N   UNL     1       4.214   3.640  18.010  0.00  0.00    +0.000 N 
ATOM      7  C   UNL     1       4.449   3.795  16.656  0.00  0.00    +0.000 A 
ATOM      8  C   UNL     1       5.655   4.100  16.159  0.00  0.00    +0.000 A 
ATOM      9  I   UNL     1       5.990   4.314  14.155  0.00  0.00    +0.000 I 
ATOM     10  H   UNL     1       7.186   4.283  19.117  0.00  0.00    +0.000 HD
ENDROOT
BRANCH   6  11
ATOM     11  C   UNL     1       2.882   3.284  18.472  0.00  0.00    +0.000 C 
BRANCH  11  12
ATOM     12  O   UNL     1       2.193   4.480  18.838  0.00  0.00    +0.000 OA
BRANCH  12  13
ATOM     13  C   UNL     1       1.425   4.283  20.033  0.00  0.00    +0.000 C 
BRANCH  13  14
ATOM     14  C   UNL     1       1.702   2.881  20.564  0.00  0.00    +0.000 C 
BRANCH  14  15
ATOM     15  O   UNL     1       2.053   2.940  21.944  0.00  0.00    +0.000 OA
ATOM     16  H   UNL     1       2.458   2.077  22.151  0.00  0.00    +0.000 HD
ENDBRANCH  14  15
ENDBRANCH  13  14
ENDBRANCH  12  13
ENDBRANCH  11  12
ENDBRANCH   6  11
TORSDOF 5
ENDMDL
MODEL 4
REMARK VINA RESULT:      -5.4      3.429      5.713
REMARK  Name = 
REMARK  5 active torsions:
REMARK  status: ('A' for Active; 'I' for Inactive)
REMARK    1  A    between atoms: N_6  and  C_7
REMARK    2  A    between atoms: C_7  and  O_8
REMARK    3  A    between atoms: O_8  and  C_9
REMARK    4  A    between atoms: C_9  and  C_10
REMARK    5  A    between atoms: C_10  and  O_11
REMARK                            x       y       z     vdW  Elec       q    Type
REMARK                         _______ _______ _______ _____ _____    ______ ____
ROOT
ATOM      1  O   UNL     1       5.908   6.935  16.242  0.00  0.00    +0.000 OA
ATOM      2  C   UNL     1       5.349   5.990  16.787  0.00  0.00    +0.000 A 
ATOM      3  N   UNL     1       4.721   6.147  17.994  0.00  0.00    +0.000 N 
ATOM      4  C   UNL     1       4.125   5.161  18.736  0.00  0.00    +0.000 A 
ATOM      5  O   UNL     1       3.611   5.433  19.818  0.00  0.00    +0.000 OA
ATOM      6  N   UNL     1       4.149   3.896  18.174  0.00  0.00    +0.000 N 
ATOM      7  C   UNL     1       4.706   3.660  16.930  0.00  0.00    +0.000 A 
ATOM      8  C   UNL     1       5.298   4.619  16.206  0.00  0.00    +0.000 A 
ATOM      9  I   UNL     1       6.127   4.254  14.375  0.00  0.00    +0.000 I 
ATOM     10  H   UNL     1       4.740   7.069  18.400  0.00  0.00    +0.000 HD
ENDROOT
BRANCH   6  11
ATOM     11  C   UNL     1       3.545   2.797  18.911  0.00  0.00    +0.000 C 
BRANCH  11  12
ATOM     12  O   UNL     1       2.444   2.293  18.154  0.00  0.00    +0.000 OA
BRANCH  12  13
ATOM     13  C   UNL     1       1.238   3.001  18.472  0.00  0.00    +0.000 C 
BRANCH  13  14
ATOM     14  C   UNL     1       1.047   2.980  19.984  0.00  0.00    +0.000 C 
BRANCH  14  15
ATOM     15  O   UNL     1       0.886   4.309  20.476  0.00  0.00    +0.000 OA
ATOM     16  H   UNL     1       1.417   4.876  19.883  0.00  0.00    +0.000 HD
ENDBRANCH  14  15
ENDBRANCH  13  14
ENDBRANCH  12  13
ENDBRANCH  11  12
ENDBRANCH   6  11
TORSDOF 5
ENDMDL
MODEL 5
REMARK VINA RESULT:      -5.3      3.572      6.074
REMARK  Name = 
REMARK  5 active torsions:
REMARK  status: ('A' for Active; 'I' for Inactive)
REMARK    1  A    between atoms: N_6  and  C_7
REMARK    2  A    between atoms: C_7  and  O_8
REMARK    3  A    between atoms: O_8  and  C_9
REMARK    4  A    between atoms: C_9  and  C_10
REMARK    5  A    between atoms: C_10  and  O_11
REMARK                            x       y       z     vdW  Elec       q    Type
REMARK                         _______ _______ _______ _____ _____    ______ ____
ROOT
ATOM      1  O   UNL     1       6.912   4.743  17.918  0.00  0.00    +0.000 OA
ATOM      2  C   UNL     1       5.738   4.417  18.057  0.00  0.00    +0.000 A 
ATOM      3  N   UNL     1       5.403   3.275  18.736  0.00  0.00    +0.000 N 
ATOM      4  C   UNL     1       4.141   2.766  18.899  0.00  0.00    +0.000 A 
ATOM      5  O   UNL     1       3.978   1.717  19.518  0.00  0.00    +0.000 OA
ATOM      6  N   UNL     1       3.120   3.514  18.337  0.00  0.00    +0.000 N 
ATOM      7  C   UNL     1       3.363   4.712  17.689  0.00  0.00    +0.000 A 
ATOM      8  C   UNL     1       4.596   5.207  17.519  0.00  0.00    +0.000 A 
ATOM      9  I   UNL     1       4.942   6.972  16.550  0.00  0.00    +0.000 I 
ATOM     10  H   UNL     1       6.162   2.730  19.113  0.00  0.00    +0.000 HD
ENDROOT
BRANCH   6  11
ATOM     11  C   UNL     1       1.754   3.029  18.461  0.00  0.00    +0.000 C 
BRANCH  11  12
ATOM     12  O   UNL     1       1.074   3.828  19.430  0.00  0.00    +0.000 OA
BRANCH  12  13
ATOM     13  C   UNL     1       0.874   3.095  20.646  0.00  0.00    +0.000 C 
BRANCH  13  14
ATOM     14  C   UNL     1       1.914   3.548  21.664  0.00  0.00    +0.000 C 
BRANCH  14  15
ATOM     15  O   UNL     1       2.738   2.449  22.044  0.00  0.00    +0.000 OA
ATOM     16  H   UNL     1       3.430   2.824  22.622  0.00  0.00    +0.000 HD
ENDBRANCH  14  15
ENDBRANCH  13  14
ENDBRANCH  12  13
ENDBRANCH  11  12
ENDBRANCH   6  11
TORSDOF 5
ENDMDL
MODEL 6
REMARK VINA RESULT:      -5.3      2.757      5.051
REMARK  Name = 
REMARK  5 active torsions:
REMARK  status: ('A' for Active; 'I' for Inactive)
REMARK    1  A    between atoms: N_6  and  C_7
REMARK    2  A    between atoms: C_7  and  O_8
REMARK    3  A    between atoms: O_8  and  C_9
REMARK    4  A    between atoms: C_9  and  C_10
REMARK    5  A    between atoms: C_10  and  O_11
REMARK                            x       y       z     vdW  Elec       q    Type
REMARK                         _______ _______ _______ _____ _____    ______ ____
ROOT
ATOM      1  O   UNL     1       8.155   5.560  13.461  0.00  0.00    +0.000 OA
ATOM      2  C   UNL     1       7.380   5.247  14.358  0.00  0.00    +0.000 A 
ATOM      3  N   UNL     1       7.477   5.818  15.600  0.00  0.00    +0.000 N 
ATOM      4  C   UNL     1       6.722   5.506  16.700  0.00  0.00    +0.000 A 
ATOM      5  O   UNL     1       6.923   6.083  17.766  0.00  0.00    +0.000 OA
ATOM      6  N   UNL     1       5.755   4.535  16.503  0.00  0.00    +0.000 N 
ATOM      7  C   UNL     1       5.547   3.952  15.266  0.00  0.00    +0.000 A 
ATOM      8  C   UNL     1       6.289   4.248  14.191  0.00  0.00    +0.000 A 
ATOM      9  I   UNL     1       5.978   3.371  12.371  0.00  0.00    +0.000 I 
ATOM     10  H   UNL     1       8.205   6.502  15.731  0.00  0.00    +0.000 HD
ENDROOT
BRANCH   6  11
ATOM     11  C   UNL     1       4.923   4.144  17.630  0.00  0.00    +0.000 C 
BRANCH  11  12
ATOM     12  O   UNL     1       3.664   4.809  17.518  0.00  0.00    +0.000 OA
BRANCH  12  13
ATOM     13  C   UNL     1       2.592   3.945  17.921  0.00  0.00    +0.000 C 
BRANCH  13  14
ATOM     14  C   UNL     1       3.156   2.551  18.167  0.00  0.00    +0.000 C 
BRANCH  14  15
ATOM     15  O   UNL     1       2.140   1.570  17.972  0.00  0.00    +0.000 OA
ATOM     16  H   UNL     1       2.255   0.922  18.693  0.00  0.00    +0.000 HD
ENDBRANCH  14  15
ENDBRANCH  13  14
ENDBRANCH  12  13
ENDBRANCH  11  12
ENDBRANCH   6  11
TORSDOF 5
ENDMDL
MODEL 7
REMARK VINA RESULT:      -5.3      2.844      4.149
REMARK  Name = 
REMARK  5 active torsions:
REMARK  status: ('A' for Active; 'I' for Inactive)
REMARK    1  A    between atoms: N_6  and  C_7
REMARK    2  A    between atoms: C_7  and  O_8
REMARK    3  A    between atoms: O_8  and  C_9
REMARK    4  A    between atoms: C_9  and  C_10
REMARK    5  A    between atoms: C_10  and  O_11
REMARK                            x       y       z     vdW  Elec       q    Type
REMARK                         _______ _______ _______ _____ _____    ______ ____
ROOT
ATOM      1  O   UNL     1       1.436   3.681  17.474  0.00  0.00    +0.000 OA
ATOM      2  C   UNL     1       2.611   3.905  17.744  0.00  0.00    +0.000 A 
ATOM      3  N   UNL     1       3.552   4.003  16.754  0.00  0.00    +0.000 N 
ATOM      4  C   UNL     1       4.900   4.180  16.927  0.00  0.00    +0.000 A 
ATOM      5  O   UNL     1       5.643   4.233  15.949  0.00  0.00    +0.000 OA
ATOM      6  N   UNL     1       5.322   4.295  18.241  0.00  0.00    +0.000 N 
ATOM      7  C   UNL     1       4.431   4.270  19.299  0.00  0.00    +0.000 A 
ATOM      8  C   UNL     1       3.114   4.089  19.134  0.00  0.00    +0.000 A 
ATOM      9  I   UNL     1       1.810   4.043  20.706  0.00  0.00    +0.000 I 
ATOM     10  H   UNL     1       3.230   3.889  15.806  0.00  0.00    +0.000 HD
ENDROOT
BRANCH   6  11
ATOM     11  C   UNL     1       6.742   4.472  18.502  0.00  0.00    +0.000 C 
BRANCH  11  12
ATOM     12  O   UNL     1       6.918   5.667  19.264  0.00  0.00    +0.000 OA
BRANCH  12  13
ATOM     13  C   UNL     1       7.863   6.542  18.631  0.00  0.00    +0.000 C 
BRANCH  13  14
ATOM     14  C   UNL     1       7.187   7.206  17.437  0.00  0.00    +0.000 C 
BRANCH  14  15
ATOM     15  O   UNL     1       7.589   6.567  16.228  0.00  0.00    +0.000 OA
ATOM     16  H   UNL     1       6.922   5.874  16.061  0.00  0.00    +0.000 HD
ENDBRANCH  14  15
ENDBRANCH  13  14
ENDBRANCH  12  13
ENDBRANCH  11  12
ENDBRANCH   6  11
TORSDOF 5
ENDMDL
MODEL 8
REMARK VINA RESULT:      -5.3      2.973      5.810
REMARK  Name = 
REMARK  5 active torsions:
REMARK  status: ('A' for Active; 'I' for Inactive)
REMARK    1  A    between atoms: N_6  and  C_7
REMARK    2  A    between atoms: C_7  and  O_8
REMARK    3  A    between atoms: O_8  and  C_9
REMARK    4  A    between atoms: C_9  and  C_10
REMARK    5  A    between atoms: C_10  and  O_11
REMARK                            x       y       z     vdW  Elec       q    Type
REMARK                         _______ _______ _______ _____ _____    ______ ____
ROOT
ATOM      1  O   UNL     1       7.693   6.036  15.717  0.00  0.00    +0.000 OA
ATOM      2  C   UNL     1       6.857   5.444  16.391  0.00  0.00    +0.000 A 
ATOM      3  N   UNL     1       6.737   5.688  17.734  0.00  0.00    +0.000 N 
ATOM      4  C   UNL     1       5.897   5.047  18.606  0.00  0.00    +0.000 A 
ATOM      5  O   UNL     1       5.901   5.350  19.797  0.00  0.00    +0.000 OA
ATOM      6  N   UNL     1       5.080   4.081  18.044  0.00  0.00    +0.000 N 
ATOM      7  C   UNL     1       5.090   3.815  16.687  0.00  0.00    +0.000 A 
ATOM      8  C   UNL     1       5.916   4.433  15.833  0.00  0.00    +0.000 A 
ATOM      9  I   UNL     1       5.930   4.022  13.831  0.00  0.00    +0.000 I 
ATOM     10  H   UNL     1       7.361   6.375  18.129  0.00  0.00    +0.000 HD
ENDROOT
BRANCH   6  11
ATOM     11  C   UNL     1       4.169   3.351  18.912  0.00  0.00    +0.000 C 
BRANCH  11  12
ATOM     12  O   UNL     1       2.964   4.105  19.044  0.00  0.00    +0.000 OA
BRANCH  12  13
ATOM     13  C   UNL     1       2.006   3.402  19.848  0.00  0.00    +0.000 C 
BRANCH  13  14
ATOM     14  C   UNL     1       2.146   3.868  21.292  0.00  0.00    +0.000 C 
BRANCH  14  15
ATOM     15  O   UNL     1       2.517   2.773  22.126  0.00  0.00    +0.000 OA
ATOM     16  H   UNL     1       2.760   2.048  21.518  0.00  0.00    +0.000 HD
ENDBRANCH  14  15
ENDBRANCH  13  14
ENDBRANCH  12  13
ENDBRANCH  11  12
ENDBRANCH   6  11
TORSDOF 5
ENDMDL
MODEL 9
REMARK VINA RESULT:      -5.3      3.137      4.167
REMARK  Name = 
REMARK  5 active torsions:
REMARK  status: ('A' for Active; 'I' for Inactive)
REMARK    1  A    between atoms: N_6  and  C_7
REMARK    2  A    between atoms: C_7  and  O_8
REMARK    3  A    between atoms: O_8  and  C_9
REMARK    4  A    between atoms: C_9  and  C_10
REMARK    5  A    between atoms: C_10  and  O_11
REMARK                            x       y       z     vdW  Elec       q    Type
REMARK                         _______ _______ _______ _____ _____    ______ ____
ROOT
ATOM      1  O   UNL     1       0.903   2.683  18.150  0.00  0.00    +0.000 OA
ATOM      2  C   UNL     1       2.058   3.084  18.247  0.00  0.00    +0.000 A 
ATOM      3  N   UNL     1       2.792   3.388  17.131  0.00  0.00    +0.000 N 
ATOM      4  C   UNL     1       4.106   3.775  17.102  0.00  0.00    +0.000 A 
ATOM      5  O   UNL     1       4.655   4.002  16.026  0.00  0.00    +0.000 OA
ATOM      6  N   UNL     1       4.721   3.889  18.337  0.00  0.00    +0.000 N 
ATOM      7  C   UNL     1       4.036   3.662  19.518  0.00  0.00    +0.000 A 
ATOM      8  C   UNL     1       2.755   3.275  19.550  0.00  0.00    +0.000 A 
ATOM      9  I   UNL     1       1.759   2.932  21.301  0.00  0.00    +0.000 I 
ATOM     10  H   UNL     1       2.335   3.271  16.240  0.00  0.00    +0.000 HD
ENDROOT
BRANCH   6  11
ATOM     11  C   UNL     1       6.120   4.285  18.383  0.00  0.00    +0.000 C 
BRANCH  11  12
ATOM     12  O   UNL     1       6.196   5.633  18.847  0.00  0.00    +0.000 OA
BRANCH  12  13
ATOM     13  C   UNL     1       6.866   6.466  17.891  0.00  0.00    +0.000 C 
BRANCH  13  14
ATOM     14  C   UNL     1       5.819   7.117  16.995  0.00  0.00    +0.000 C 
BRANCH  14  15
ATOM     15  O   UNL     1       5.903   6.582  15.676  0.00  0.00    +0.000 OA
ATOM     16  H   UNL     1       6.293   7.290  15.128  0.00  0.00    +0.000 HD
ENDBRANCH  14  15
ENDBRANCH  13  14
ENDBRANCH  12  13
ENDBRANCH  11  12
ENDBRANCH   6  11
TORSDOF 5
ENDMDL
