MODEL 1
REMARK VINA RESULT:      -9.7      0.000      0.000
REMARK  Name = 
REMARK  9 active torsions:
REMARK  status: ('A' for Active; 'I' for Inactive)
REMARK    1  A    between atoms: C_1  and  C_2
REMARK    2  A    between atoms: C_2  and  C_3
REMARK    3  A    between atoms: C_2  and  C_4
REMARK    4  A    between atoms: C_7  and  N_8
REMARK    5  A    between atoms: C_9  and  C_11
REMARK    6  A    between atoms: C_15  and  N_16
REMARK    7  A    between atoms: N_16  and  C_17
REMARK    8  A    between atoms: C_23  and  C_24
REMARK    9  A    between atoms: N_27  and  C_28
REMARK                            x       y       z     vdW  Elec       q    Type
REMARK                         _______ _______ _______ _____ _____    ______ ____
ROOT
ATOM      1  C   UNL     1       0.406   9.416  21.526  0.00  0.00    +0.000 A 
ATOM      2  C   UNL     1       0.642   9.954  20.254  0.00  0.00    +0.000 A 
ATOM      3  C   UNL     1       1.330   9.219  19.290  0.00  0.00    +0.000 A 
ATOM      4  C   UNL     1       1.798   7.931  19.572  0.00  0.00    +0.000 A 
ATOM      5  C   UNL     1       1.613   7.363  20.841  0.00  0.00    +0.000 A 
ATOM      6  C   UNL     1       0.882   8.120  21.823  0.00  0.00    +0.000 A 
ENDROOT
BRANCH   1   8
ATOM      7  N   UNL     1      -0.993  11.410  22.005  0.00  0.00    +0.000 N 
ATOM      8  C   UNL     1      -0.270  10.336  22.506  0.00  0.00    +0.000 C 
ATOM      9  O   UNL     1      -0.106  10.080  23.698  0.00  0.00    +0.000 OA
ATOM     10  H   UNL     1      -1.051  11.503  21.000  0.00  0.00    +0.000 HD
BRANCH   7  14
ATOM     11  C   UNL     1      -2.973  14.546  24.150  0.00  0.00    +0.000 A 
ATOM     12  C   UNL     1      -3.541  13.269  24.084  0.00  0.00    +0.000 A 
ATOM     13  C   UNL     1      -2.895  12.223  23.406  0.00  0.00    +0.000 A 
ATOM     14  C   UNL     1      -1.663  12.410  22.774  0.00  0.00    +0.000 A 
ATOM     15  C   UNL     1      -1.066  13.671  22.891  0.00  0.00    +0.000 A 
ATOM     16  C   UNL     1      -1.712  14.729  23.566  0.00  0.00    +0.000 A 
BRANCH  11  18
ATOM     17  C   UNL     1      -2.924  16.968  24.923  0.00  0.00    +0.000 C 
ATOM     18  C   UNL     1      -3.748  15.685  24.796  0.00  0.00    +0.000 C 
ATOM     19  C   UNL     1      -5.060  15.952  24.049  0.00  0.00    +0.000 C 
ENDBRANCH  11  18
ENDBRANCH   7  14
ENDBRANCH   1   8
BRANCH   5  20
ATOM     20  N   UNL     1       2.080   6.055  21.202  0.00  0.00    +0.000 N 
ATOM     21  H   UNL     1       3.107   6.131  21.216  0.00  0.00    +0.000 HD
BRANCH  20  22
ATOM     22  C   UNL     1       1.979   4.800  20.532  0.00  0.00    +0.000 A 
ATOM     23  N   UNL     1       1.772   3.841  21.447  0.00  0.00    +0.000 NA
ATOM     24  C   UNL     1       2.593   2.808  21.352  0.00  0.00    +0.000 A 
ATOM     25  N   UNL     1       3.563   2.678  20.445  0.00  0.00    +0.000 NA
ATOM     26  C   UNL     1       3.488   3.497  19.394  0.00  0.00    +0.000 A 
ATOM     27  C   UNL     1       4.430   3.367  18.393  0.00  0.00    +0.000 A 
ATOM     28  C   UNL     1       4.321   4.022  17.170  0.00  0.00    +0.000 A 
ATOM     29  C   UNL     1       3.111   4.663  16.881  0.00  0.00    +0.000 A 
ATOM     30  C   UNL     1       2.241   4.956  17.949  0.00  0.00    +0.000 A 
ATOM     31  C   UNL     1       2.532   4.490  19.275  0.00  0.00    +0.000 A 
BRANCH  28  32
ATOM     32  C   UNL     1       5.520   4.150  16.351  0.00  0.00    +0.000 A 
ATOM     33  C   UNL     1       6.826   4.484  16.811  0.00  0.00    +0.000 A 
ATOM     34  N   UNL     1       7.689   4.694  15.821  0.00  0.00    +0.000 NA
ATOM     35  N   UNL     1       6.934   4.561  14.719  0.00  0.00    +0.000 N 
ATOM     36  C   UNL     1       7.497   4.956  13.450  0.00  0.00    +0.000 C 
ATOM     37  C   UNL     1       5.647   4.159  14.979  0.00  0.00    +0.000 A 
ENDBRANCH  28  32
ENDBRANCH  20  22
ENDBRANCH   5  20
TORSDOF 6
ENDMDL
MODEL 2
REMARK VINA RESULT:      -9.3      0.978      1.311
REMARK  Name = 
REMARK  9 active torsions:
REMARK  status: ('A' for Active; 'I' for Inactive)
REMARK    1  A    between atoms: C_1  and  C_2
REMARK    2  A    between atoms: C_2  and  C_3
REMARK    3  A    between atoms: C_2  and  C_4
REMARK    4  A    between atoms: C_7  and  N_8
REMARK    5  A    between atoms: C_9  and  C_11
REMARK    6  A    between atoms: C_15  and  N_16
REMARK    7  A    between atoms: N_16  and  C_17
REMARK    8  A    between atoms: C_23  and  C_24
REMARK    9  A    between atoms: N_27  and  C_28
REMARK                            x       y       z     vdW  Elec       q    Type
REMARK                         _______ _______ _______ _____ _____    ______ ____
ROOT
ATOM      1  C   UNL     1       0.498   9.586  20.039  0.00  0.00    +0.000 A 
ATOM      2  C   UNL     1       1.265   9.869  18.901  0.00  0.00    +0.000 A 
ATOM      3  C   UNL     1       2.168   8.930  18.405  0.00  0.00    +0.000 A 
ATOM      4  C   UNL     1       2.326   7.688  19.029  0.00  0.00    +0.000 A 
ATOM      5  C   UNL     1       1.602   7.372  20.188  0.00  0.00    +0.000 A 
ATOM      6  C   UNL     1       0.655   8.338  20.682  0.00  0.00    +0.000 A 
ENDROOT
BRANCH   1   8
ATOM      7  N   UNL     1      -0.238  11.117  21.850  0.00  0.00    +0.000 N 
ATOM      8  C   UNL     1      -0.375  10.709  20.530  0.00  0.00    +0.000 C 
ATOM      9  O   UNL     1      -1.178  11.170  19.720  0.00  0.00    +0.000 OA
ATOM     10  H   UNL     1       0.466  10.654  22.409  0.00  0.00    +0.000 HD
BRANCH   7  14
ATOM     11  C   UNL     1      -2.565  14.019  23.975  0.00  0.00    +0.000 A 
ATOM     12  C   UNL     1      -1.333  14.375  23.416  0.00  0.00    +0.000 A 
ATOM     13  C   UNL     1      -0.568  13.444  22.695  0.00  0.00    +0.000 A 
ATOM     14  C   UNL     1      -1.002  12.130  22.505  0.00  0.00    +0.000 A 
ATOM     15  C   UNL     1      -2.261  11.789  23.012  0.00  0.00    +0.000 A 
ATOM     16  C   UNL     1      -3.034  12.718  23.742  0.00  0.00    +0.000 A 
BRANCH  11  18
ATOM     17  C   UNL     1      -2.461  16.215  25.251  0.00  0.00    +0.000 C 
ATOM     18  C   UNL     1      -3.319  15.017  24.843  0.00  0.00    +0.000 C 
ATOM     19  C   UNL     1      -4.609  15.478  24.156  0.00  0.00    +0.000 C 
ENDBRANCH  11  18
ENDBRANCH   7  14
ENDBRANCH   1   8
BRANCH   5  20
ATOM     20  N   UNL     1       1.725   6.125  20.888  0.00  0.00    +0.000 N 
ATOM     21  H   UNL     1       2.635   6.176  21.368  0.00  0.00    +0.000 HD
BRANCH  20  22
ATOM     22  C   UNL     1       1.822   4.784  20.413  0.00  0.00    +0.000 A 
ATOM     23  N   UNL     1       1.721   3.950  21.459  0.00  0.00    +0.000 NA
ATOM     24  C   UNL     1       2.680   3.042  21.531  0.00  0.00    +0.000 A 
ATOM     25  N   UNL     1       3.688   2.920  20.665  0.00  0.00    +0.000 NA
ATOM     26  C   UNL     1       3.534   3.556  19.501  0.00  0.00    +0.000 A 
ATOM     27  C   UNL     1       4.518   3.416  18.543  0.00  0.00    +0.000 A 
ATOM     28  C   UNL     1       4.358   3.861  17.233  0.00  0.00    +0.000 A 
ATOM     29  C   UNL     1       3.081   4.273  16.837  0.00  0.00    +0.000 A 
ATOM     30  C   UNL     1       2.144   4.594  17.839  0.00  0.00    +0.000 A 
ATOM     31  C   UNL     1       2.454   4.374  19.223  0.00  0.00    +0.000 A 
BRANCH  28  32
ATOM     32  C   UNL     1       5.553   4.036  16.418  0.00  0.00    +0.000 A 
ATOM     33  C   UNL     1       6.838   4.448  16.879  0.00  0.00    +0.000 A 
ATOM     34  N   UNL     1       7.695   4.683  15.889  0.00  0.00    +0.000 NA
ATOM     35  N   UNL     1       6.954   4.491  14.786  0.00  0.00    +0.000 N 
ATOM     36  C   UNL     1       7.504   4.890  13.513  0.00  0.00    +0.000 C 
ATOM     37  C   UNL     1       5.689   4.026  15.047  0.00  0.00    +0.000 A 
ENDBRANCH  28  32
ENDBRANCH  20  22
ENDBRANCH   5  20
TORSDOF 6
ENDMDL
MODEL 3
REMARK VINA RESULT:      -8.9      0.855      1.265
REMARK  Name = 
REMARK  9 active torsions:
REMARK  status: ('A' for Active; 'I' for Inactive)
REMARK    1  A    between atoms: C_1  and  C_2
REMARK    2  A    between atoms: C_2  and  C_3
REMARK    3  A    between atoms: C_2  and  C_4
REMARK    4  A    between atoms: C_7  and  N_8
REMARK    5  A    between atoms: C_9  and  C_11
REMARK    6  A    between atoms: C_15  and  N_16
REMARK    7  A    between atoms: N_16  and  C_17
REMARK    8  A    between atoms: C_23  and  C_24
REMARK    9  A    between atoms: N_27  and  C_28
REMARK                            x       y       z     vdW  Elec       q    Type
REMARK                         _______ _______ _______ _____ _____    ______ ____
ROOT
ATOM      1  C   UNL     1       0.673   9.508  20.761  0.00  0.00    +0.000 A 
ATOM      2  C   UNL     1       1.138   9.835  19.480  0.00  0.00    +0.000 A 
ATOM      3  C   UNL     1       1.815   8.890  18.710  0.00  0.00    +0.000 A 
ATOM      4  C   UNL     1       2.043   7.599  19.197  0.00  0.00    +0.000 A 
ATOM      5  C   UNL     1       1.624   7.235  20.485  0.00  0.00    +0.000 A 
ATOM      6  C   UNL     1       0.905   8.209  21.266  0.00  0.00    +0.000 A 
ENDROOT
BRANCH   1   8
ATOM      7  N   UNL     1      -0.817  11.491  20.846  0.00  0.00    +0.000 N 
ATOM      8  C   UNL     1       0.035  10.633  21.528  0.00  0.00    +0.000 C 
ATOM      9  O   UNL     1       0.342  10.728  22.715  0.00  0.00    +0.000 OA
ATOM     10  H   UNL     1      -0.988  11.296  19.868  0.00  0.00    +0.000 HD
BRANCH   7  14
ATOM     11  C   UNL     1      -2.863  14.798  22.643  0.00  0.00    +0.000 A 
ATOM     12  C   UNL     1      -1.570  14.961  22.136  0.00  0.00    +0.000 A 
ATOM     13  C   UNL     1      -0.893  13.895  21.521  0.00  0.00    +0.000 A 
ATOM     14  C   UNL     1      -1.479  12.634  21.390  0.00  0.00    +0.000 A 
ATOM     15  C   UNL     1      -2.795  12.486  21.844  0.00  0.00    +0.000 A 
ATOM     16  C   UNL     1      -3.480  13.551  22.467  0.00  0.00    +0.000 A 
BRANCH  11  18
ATOM     17  C   UNL     1      -3.660  15.661  24.899  0.00  0.00    +0.000 C 
ATOM     18  C   UNL     1      -3.527  15.939  23.401  0.00  0.00    +0.000 C 
ATOM     19  C   UNL     1      -2.794  17.263  23.155  0.00  0.00    +0.000 C 
ENDBRANCH  11  18
ENDBRANCH   7  14
ENDBRANCH   1   8
BRANCH   5  20
ATOM     20  N   UNL     1       1.838   5.935  21.053  0.00  0.00    +0.000 N 
ATOM     21  H   UNL     1       2.807   5.951  21.403  0.00  0.00    +0.000 HD
BRANCH  20  22
ATOM     22  C   UNL     1       1.859   4.639  20.460  0.00  0.00    +0.000 A 
ATOM     23  N   UNL     1       1.709   3.721  21.426  0.00  0.00    +0.000 NA
ATOM     24  C   UNL     1       2.614   2.757  21.413  0.00  0.00    +0.000 A 
ATOM     25  N   UNL     1       3.615   2.656  20.536  0.00  0.00    +0.000 NA
ATOM     26  C   UNL     1       3.500   3.403  19.435  0.00  0.00    +0.000 A 
ATOM     27  C   UNL     1       4.475   3.293  18.464  0.00  0.00    +0.000 A 
ATOM     28  C   UNL     1       4.344   3.863  17.201  0.00  0.00    +0.000 A 
ATOM     29  C   UNL     1       3.093   4.382  16.848  0.00  0.00    +0.000 A 
ATOM     30  C   UNL     1       2.174   4.663  17.878  0.00  0.00    +0.000 A 
ATOM     31  C   UNL     1       2.468   4.303  19.235  0.00  0.00    +0.000 A 
BRANCH  28  32
ATOM     32  C   UNL     1       5.549   4.043  16.401  0.00  0.00    +0.000 A 
ATOM     33  C   UNL     1       6.840   4.404  16.886  0.00  0.00    +0.000 A 
ATOM     34  N   UNL     1       7.709   4.659  15.912  0.00  0.00    +0.000 NA
ATOM     35  N   UNL     1       6.971   4.531  14.797  0.00  0.00    +0.000 N 
ATOM     36  C   UNL     1       7.539   4.969  13.546  0.00  0.00    +0.000 C 
ATOM     37  C   UNL     1       5.694   4.087  15.031  0.00  0.00    +0.000 A 
ENDBRANCH  28  32
ENDBRANCH  20  22
ENDBRANCH   5  20
TORSDOF 6
ENDMDL
MODEL 4
REMARK VINA RESULT:      -8.9      1.075      1.368
REMARK  Name = 
REMARK  9 active torsions:
REMARK  status: ('A' for Active; 'I' for Inactive)
REMARK    1  A    between atoms: C_1  and  C_2
REMARK    2  A    between atoms: C_2  and  C_3
REMARK    3  A    between atoms: C_2  and  C_4
REMARK    4  A    between atoms: C_7  and  N_8
REMARK    5  A    between atoms: C_9  and  C_11
REMARK    6  A    between atoms: C_15  and  N_16
REMARK    7  A    between atoms: N_16  and  C_17
REMARK    8  A    between atoms: C_23  and  C_24
REMARK    9  A    between atoms: N_27  and  C_28
REMARK                            x       y       z     vdW  Elec       q    Type
REMARK                         _______ _______ _______ _____ _____    ______ ____
ROOT
ATOM      1  C   UNL     1       0.985   9.328  20.372  0.00  0.00    +0.000 A 
ATOM      2  C   UNL     1       1.427   9.577  19.065  0.00  0.00    +0.000 A 
ATOM      3  C   UNL     1       2.044   8.571  18.323  0.00  0.00    +0.000 A 
ATOM      4  C   UNL     1       2.234   7.296  18.864  0.00  0.00    +0.000 A 
ATOM      5  C   UNL     1       1.837   7.008  20.178  0.00  0.00    +0.000 A 
ATOM      6  C   UNL     1       1.180   8.046  20.931  0.00  0.00    +0.000 A 
ENDROOT
BRANCH   1   8
ATOM      7  N   UNL     1      -0.957  10.721  21.043  0.00  0.00    +0.000 N 
ATOM      8  C   UNL     1       0.415  10.514  21.101  0.00  0.00    +0.000 C 
ATOM      9  O   UNL     1       1.222  11.238  21.682  0.00  0.00    +0.000 OA
ATOM     10  H   UNL     1      -1.508  10.044  20.533  0.00  0.00    +0.000 HD
BRANCH   7  14
ATOM     11  C   UNL     1      -3.256  13.954  22.660  0.00  0.00    +0.000 A 
ATOM     12  C   UNL     1      -2.728  12.973  23.506  0.00  0.00    +0.000 A 
ATOM     13  C   UNL     1      -1.951  11.919  22.996  0.00  0.00    +0.000 A 
ATOM     14  C   UNL     1      -1.673  11.807  21.633  0.00  0.00    +0.000 A 
ATOM     15  C   UNL     1      -2.151  12.821  20.793  0.00  0.00    +0.000 A 
ATOM     16  C   UNL     1      -2.937  13.880  21.297  0.00  0.00    +0.000 A 
BRANCH  11  18
ATOM     17  C   UNL     1      -5.580  14.483  23.548  0.00  0.00    +0.000 C 
ATOM     18  C   UNL     1      -4.184  15.020  23.226  0.00  0.00    +0.000 C 
ATOM     19  C   UNL     1      -3.562  15.694  24.455  0.00  0.00    +0.000 C 
ENDBRANCH  11  18
ENDBRANCH   7  14
ENDBRANCH   1   8
BRANCH   5  20
ATOM     20  N   UNL     1       2.015   5.728  20.801  0.00  0.00    +0.000 N 
ATOM     21  H   UNL     1       2.920   5.792  21.290  0.00  0.00    +0.000 HD
BRANCH  20  22
ATOM     22  C   UNL     1       2.177   4.425  20.247  0.00  0.00    +0.000 A 
ATOM     23  N   UNL     1       2.193   3.532  21.248  0.00  0.00    +0.000 NA
ATOM     24  C   UNL     1       3.215   2.692  21.216  0.00  0.00    +0.000 A 
ATOM     25  N   UNL     1       4.177   2.688  20.291  0.00  0.00    +0.000 NA
ATOM     26  C   UNL     1       3.914   3.373  19.176  0.00  0.00    +0.000 A 
ATOM     27  C   UNL     1       4.847   3.354  18.159  0.00  0.00    +0.000 A 
ATOM     28  C   UNL     1       4.582   3.855  16.888  0.00  0.00    +0.000 A 
ATOM     29  C   UNL     1       3.259   4.195  16.585  0.00  0.00    +0.000 A 
ATOM     30  C   UNL     1       2.362   4.394  17.653  0.00  0.00    +0.000 A 
ATOM     31  C   UNL     1       2.765   4.124  19.003  0.00  0.00    +0.000 A 
BRANCH  28  32
ATOM     32  C   UNL     1       5.714   4.159  16.021  0.00  0.00    +0.000 A 
ATOM     33  C   UNL     1       6.823   4.995  16.340  0.00  0.00    +0.000 A 
ATOM     34  N   UNL     1       7.618   5.224  15.300  0.00  0.00    +0.000 NA
ATOM     35  N   UNL     1       6.996   4.595  14.290  0.00  0.00    +0.000 N 
ATOM     36  C   UNL     1       7.462   4.831  12.945  0.00  0.00    +0.000 C 
ATOM     37  C   UNL     1       5.895   3.877  14.684  0.00  0.00    +0.000 A 
ENDBRANCH  28  32
ENDBRANCH  20  22
ENDBRANCH   5  20
TORSDOF 6
ENDMDL
MODEL 5
REMARK VINA RESULT:      -8.4      4.833      9.141
REMARK  Name = 
REMARK  9 active torsions:
REMARK  status: ('A' for Active; 'I' for Inactive)
REMARK    1  A    between atoms: C_1  and  C_2
REMARK    2  A    between atoms: C_2  and  C_3
REMARK    3  A    between atoms: C_2  and  C_4
REMARK    4  A    between atoms: C_7  and  N_8
REMARK    5  A    between atoms: C_9  and  C_11
REMARK    6  A    between atoms: C_15  and  N_16
REMARK    7  A    between atoms: N_16  and  C_17
REMARK    8  A    between atoms: C_23  and  C_24
REMARK    9  A    between atoms: N_27  and  C_28
REMARK                            x       y       z     vdW  Elec       q    Type
REMARK                         _______ _______ _______ _____ _____    ______ ____
ROOT
ATOM      1  C   UNL     1       7.109   5.963  17.033  0.00  0.00    +0.000 A 
ATOM      2  C   UNL     1       7.469   5.898  15.680  0.00  0.00    +0.000 A 
ATOM      3  C   UNL     1       6.992   4.869  14.870  0.00  0.00    +0.000 A 
ATOM      4  C   UNL     1       6.145   3.884  15.387  0.00  0.00    +0.000 A 
ATOM      5  C   UNL     1       5.782   3.890  16.742  0.00  0.00    +0.000 A 
ATOM      6  C   UNL     1       6.261   4.968  17.568  0.00  0.00    +0.000 A 
ENDROOT
BRANCH   1   8
ATOM      7  N   UNL     1       7.668   8.363  17.336  0.00  0.00    +0.000 N 
ATOM      8  C   UNL     1       7.756   7.066  17.825  0.00  0.00    +0.000 C 
ATOM      9  O   UNL     1       8.347   6.729  18.850  0.00  0.00    +0.000 OA
ATOM     10  H   UNL     1       7.146   8.502  16.481  0.00  0.00    +0.000 HD
BRANCH   7  14
ATOM     11  C   UNL     1       9.599  11.754  19.103  0.00  0.00    +0.000 A 
ATOM     12  C   UNL     1       8.778  11.915  17.982  0.00  0.00    +0.000 A 
ATOM     13  C   UNL     1       8.117  10.819  17.404  0.00  0.00    +0.000 A 
ATOM     14  C   UNL     1       8.249   9.528  17.921  0.00  0.00    +0.000 A 
ATOM     15  C   UNL     1       9.023   9.375  19.078  0.00  0.00    +0.000 A 
ATOM     16  C   UNL     1       9.694  10.471  19.661  0.00  0.00    +0.000 A 
BRANCH  11  18
ATOM     17  C   UNL     1      11.021  13.783  18.531  0.00  0.00    +0.000 C 
ATOM     18  C   UNL     1      10.388  12.940  19.640  0.00  0.00    +0.000 C 
ATOM     19  C   UNL     1       9.519  13.808  20.557  0.00  0.00    +0.000 C 
ENDBRANCH  11  18
ENDBRANCH   7  14
ENDBRANCH   1   8
BRANCH   5  20
ATOM     20  N   UNL     1       4.931   2.902  17.342  0.00  0.00    +0.000 N 
ATOM     21  H   UNL     1       4.454   2.444  16.552  0.00  0.00    +0.000 HD
BRANCH  20  22
ATOM     22  C   UNL     1       3.807   3.030  18.209  0.00  0.00    +0.000 A 
ATOM     23  N   UNL     1       2.994   1.981  18.015  0.00  0.00    +0.000 NA
ATOM     24  C   UNL     1       1.728   2.300  17.800  0.00  0.00    +0.000 A 
ATOM     25  N   UNL     1       1.245   3.544  17.768  0.00  0.00    +0.000 NA
ATOM     26  C   UNL     1       2.034   4.487  18.288  0.00  0.00    +0.000 A 
ATOM     27  C   UNL     1       1.562   5.783  18.337  0.00  0.00    +0.000 A 
ATOM     28  C   UNL     1       2.212   6.792  19.042  0.00  0.00    +0.000 A 
ATOM     29  C   UNL     1       3.261   6.422  19.891  0.00  0.00    +0.000 A 
ATOM     30  C   UNL     1       3.858   5.160  19.701  0.00  0.00    +0.000 A 
ATOM     31  C   UNL     1       3.314   4.233  18.750  0.00  0.00    +0.000 A 
BRANCH  28  32
ATOM     32  C   UNL     1       1.882   8.175  18.720  0.00  0.00    +0.000 A 
ATOM     33  C   UNL     1       2.432   8.950  17.658  0.00  0.00    +0.000 A 
ATOM     34  N   UNL     1       2.071  10.229  17.707  0.00  0.00    +0.000 NA
ATOM     35  N   UNL     1       1.343  10.303  18.832  0.00  0.00    +0.000 N 
ATOM     36  C   UNL     1       0.979  11.608  19.329  0.00  0.00    +0.000 C 
ATOM     37  C   UNL     1       1.134   9.087  19.433  0.00  0.00    +0.000 A 
ENDBRANCH  28  32
ENDBRANCH  20  22
ENDBRANCH   5  20
TORSDOF 6
ENDMDL
MODEL 6
REMARK VINA RESULT:      -8.4      4.439     10.532
REMARK  Name = 
REMARK  9 active torsions:
REMARK  status: ('A' for Active; 'I' for Inactive)
REMARK    1  A    between atoms: C_1  and  C_2
REMARK    2  A    between atoms: C_2  and  C_3
REMARK    3  A    between atoms: C_2  and  C_4
REMARK    4  A    between atoms: C_7  and  N_8
REMARK    5  A    between atoms: C_9  and  C_11
REMARK    6  A    between atoms: C_15  and  N_16
REMARK    7  A    between atoms: N_16  and  C_17
REMARK    8  A    between atoms: C_23  and  C_24
REMARK    9  A    between atoms: N_27  and  C_28
REMARK                            x       y       z     vdW  Elec       q    Type
REMARK                         _______ _______ _______ _____ _____    ______ ____
ROOT
ATOM      1  C   UNL     1       0.847   9.287  20.303  0.00  0.00    +0.000 A 
ATOM      2  C   UNL     1       0.338   8.461  21.313  0.00  0.00    +0.000 A 
ATOM      3  C   UNL     1      -0.271   9.012  22.440  0.00  0.00    +0.000 A 
ATOM      4  C   UNL     1      -0.388  10.398  22.585  0.00  0.00    +0.000 A 
ATOM      5  C   UNL     1       0.134  11.266  21.615  0.00  0.00    +0.000 A 
ATOM      6  C   UNL     1       0.742  10.689  20.444  0.00  0.00    +0.000 A 
ENDROOT
BRANCH   1   8
ATOM      7  N   UNL     1       2.211   7.390  19.467  0.00  0.00    +0.000 N 
ATOM      8  C   UNL     1       1.558   8.581  19.181  0.00  0.00    +0.000 C 
ATOM      9  O   UNL     1       1.531   9.135  18.083  0.00  0.00    +0.000 OA
ATOM     10  H   UNL     1       2.150   7.042  20.415  0.00  0.00    +0.000 HD
BRANCH   7  14
ATOM     11  C   UNL     1       4.667   5.105  16.803  0.00  0.00    +0.000 A 
ATOM     12  C   UNL     1       3.590   4.501  17.460  0.00  0.00    +0.000 A 
ATOM     13  C   UNL     1       2.759   5.240  18.318  0.00  0.00    +0.000 A 
ATOM     14  C   UNL     1       2.970   6.601  18.549  0.00  0.00    +0.000 A 
ATOM     15  C   UNL     1       4.011   7.219  17.846  0.00  0.00    +0.000 A 
ATOM     16  C   UNL     1       4.854   6.482  16.986  0.00  0.00    +0.000 A 
BRANCH  11  18
ATOM     17  C   UNL     1       5.448   4.484  14.463  0.00  0.00    +0.000 C 
ATOM     18  C   UNL     1       5.614   4.255  15.967  0.00  0.00    +0.000 C 
ATOM     19  C   UNL     1       7.071   4.474  16.393  0.00  0.00    +0.000 C 
ENDBRANCH  11  18
ENDBRANCH   7  14
ENDBRANCH   1   8
BRANCH   5  20
ATOM     20  N   UNL     1       0.063  12.697  21.707  0.00  0.00    +0.000 N 
ATOM     21  H   UNL     1      -0.881  12.895  22.068  0.00  0.00    +0.000 HD
BRANCH  20  22
ATOM     22  C   UNL     1       0.113  13.709  20.705  0.00  0.00    +0.000 A 
ATOM     23  N   UNL     1      -0.878  13.494  19.828  0.00  0.00    +0.000 NA
ATOM     24  C   UNL     1      -0.497  13.482  18.561  0.00  0.00    +0.000 A 
ATOM     25  N   UNL     1       0.755  13.662  18.134  0.00  0.00    +0.000 NA
ATOM     26  C   UNL     1       1.601  14.188  19.023  0.00  0.00    +0.000 A 
ATOM     27  C   UNL     1       2.894  14.453  18.619  0.00  0.00    +0.000 A 
ATOM     28  C   UNL     1       3.787  15.186  19.395  0.00  0.00    +0.000 A 
ATOM     29  C   UNL     1       3.282  15.845  20.522  0.00  0.00    +0.000 A 
ATOM     30  C   UNL     1       2.037  15.429  21.034  0.00  0.00    +0.000 A 
ATOM     31  C   UNL     1       1.253  14.449  20.336  0.00  0.00    +0.000 A 
BRANCH  28  32
ATOM     32  C   UNL     1       5.208  15.079  19.091  0.00  0.00    +0.000 A 
ATOM     33  C   UNL     1       5.780  14.752  17.827  0.00  0.00    +0.000 A 
ATOM     34  N   UNL     1       7.095  14.563  17.885  0.00  0.00    +0.000 NA
ATOM     35  N   UNL     1       7.371  14.699  19.192  0.00  0.00    +0.000 N 
ATOM     36  C   UNL     1       8.684  14.324  19.658  0.00  0.00    +0.000 C 
ATOM     37  C   UNL     1       6.291  15.085  19.945  0.00  0.00    +0.000 A 
ENDBRANCH  28  32
ENDBRANCH  20  22
ENDBRANCH   5  20
TORSDOF 6
ENDMDL
MODEL 7
REMARK VINA RESULT:      -8.3      4.224     10.627
REMARK  Name = 
REMARK  9 active torsions:
REMARK  status: ('A' for Active; 'I' for Inactive)
REMARK    1  A    between atoms: C_1  and  C_2
REMARK    2  A    between atoms: C_2  and  C_3
REMARK    3  A    between atoms: C_2  and  C_4
REMARK    4  A    between atoms: C_7  and  N_8
REMARK    5  A    between atoms: C_9  and  C_11
REMARK    6  A    between atoms: C_15  and  N_16
REMARK    7  A    between atoms: N_16  and  C_17
REMARK    8  A    between atoms: C_23  and  C_24
REMARK    9  A    between atoms: N_27  and  C_28
REMARK                            x       y       z     vdW  Elec       q    Type
REMARK                         _______ _______ _______ _____ _____    ______ ____
ROOT
ATOM      1  C   UNL     1      -1.680  12.044  23.183  0.00  0.00    +0.000 A 
ATOM      2  C   UNL     1      -0.960  13.214  23.463  0.00  0.00    +0.000 A 
ATOM      3  C   UNL     1      -1.607  14.337  23.976  0.00  0.00    +0.000 A 
ATOM      4  C   UNL     1      -2.983  14.320  24.224  0.00  0.00    +0.000 A 
ATOM      5  C   UNL     1      -3.750  13.183  23.931  0.00  0.00    +0.000 A 
ATOM      6  C   UNL     1      -3.072  12.019  23.422  0.00  0.00    +0.000 A 
ENDROOT
BRANCH   1   8
ATOM      7  N   UNL     1      -0.383  11.128  21.275  0.00  0.00    +0.000 N 
ATOM      8  C   UNL     1      -0.890  10.930  22.552  0.00  0.00    +0.000 C 
ATOM      9  O   UNL     1      -0.774   9.900  23.214  0.00  0.00    +0.000 OA
ATOM     10  H   UNL     1      -0.548  12.028  20.844  0.00  0.00    +0.000 HD
BRANCH   7  14
ATOM     11  C   UNL     1       1.724   8.124  19.063  0.00  0.00    +0.000 A 
ATOM     12  C   UNL     1       1.108   9.189  18.396  0.00  0.00    +0.000 A 
ATOM     13  C   UNL     1       0.435  10.196  19.106  0.00  0.00    +0.000 A 
ATOM     14  C   UNL     1       0.351  10.179  20.500  0.00  0.00    +0.000 A 
ATOM     15  C   UNL     1       1.017   9.146  21.172  0.00  0.00    +0.000 A 
ATOM     16  C   UNL     1       1.692   8.128  20.465  0.00  0.00    +0.000 A 
BRANCH  11  18
ATOM     17  C   UNL     1       3.720   7.358  17.687  0.00  0.00    +0.000 C 
ATOM     18  C   UNL     1       2.351   6.992  18.262  0.00  0.00    +0.000 C 
ATOM     19  C   UNL     1       2.436   5.709  19.097  0.00  0.00    +0.000 C 
ENDBRANCH  11  18
ENDBRANCH   7  14
ENDBRANCH   1   8
BRANCH   5  20
ATOM     20  N   UNL     1      -5.167  13.102  24.146  0.00  0.00    +0.000 N 
ATOM     21  H   UNL     1      -5.324  12.165  24.544  0.00  0.00    +0.000 HD
BRANCH  20  22
ATOM     22  C   UNL     1      -6.261  13.120  23.232  0.00  0.00    +0.000 A 
ATOM     23  N   UNL     1      -7.325  12.559  23.825  0.00  0.00    +0.000 NA
ATOM     24  C   UNL     1      -7.912  11.611  23.113  0.00  0.00    +0.000 A 
ATOM     25  N   UNL     1      -7.522  11.208  21.902  0.00  0.00    +0.000 NA
ATOM     26  C   UNL     1      -6.684  12.024  21.260  0.00  0.00    +0.000 A 
ATOM     27  C   UNL     1      -6.294  11.688  19.979  0.00  0.00    +0.000 A 
ATOM     28  C   UNL     1      -5.598  12.565  19.152  0.00  0.00    +0.000 A 
ATOM     29  C   UNL     1      -5.477  13.895  19.569  0.00  0.00    +0.000 A 
ATOM     30  C   UNL     1      -5.697  14.190  20.929  0.00  0.00    +0.000 A 
ATOM     31  C   UNL     1      -6.162  13.172  21.828  0.00  0.00    +0.000 A 
BRANCH  28  32
ATOM     32  C   UNL     1      -4.892  12.010  18.004  0.00  0.00    +0.000 A 
ATOM     33  C   UNL     1      -5.439  11.770  16.710  0.00  0.00    +0.000 A 
ATOM     34  N   UNL     1      -4.612  11.104  15.910  0.00  0.00    +0.000 NA
ATOM     35  N   UNL     1      -3.555  10.852  16.699  0.00  0.00    +0.000 N 
ATOM     36  C   UNL     1      -2.549   9.933  16.224  0.00  0.00    +0.000 C 
ATOM     37  C   UNL     1      -3.639  11.440  17.936  0.00  0.00    +0.000 A 
ENDBRANCH  28  32
ENDBRANCH  20  22
ENDBRANCH   5  20
TORSDOF 6
ENDMDL
MODEL 8
REMARK VINA RESULT:      -8.2      4.490     10.970
REMARK  Name = 
REMARK  9 active torsions:
REMARK  status: ('A' for Active; 'I' for Inactive)
REMARK    1  A    between atoms: C_1  and  C_2
REMARK    2  A    between atoms: C_2  and  C_3
REMARK    3  A    between atoms: C_2  and  C_4
REMARK    4  A    between atoms: C_7  and  N_8
REMARK    5  A    between atoms: C_9  and  C_11
REMARK    6  A    between atoms: C_15  and  N_16
REMARK    7  A    between atoms: N_16  and  C_17
REMARK    8  A    between atoms: C_23  and  C_24
REMARK    9  A    between atoms: N_27  and  C_28
REMARK                            x       y       z     vdW  Elec       q    Type
REMARK                         _______ _______ _______ _____ _____    ______ ____
ROOT
ATOM      1  C   UNL     1       1.146   9.406  19.376  0.00  0.00    +0.000 A 
ATOM      2  C   UNL     1       1.000   8.787  20.625  0.00  0.00    +0.000 A 
ATOM      3  C   UNL     1       0.294   9.416  21.649  0.00  0.00    +0.000 A 
ATOM      4  C   UNL     1      -0.283  10.675  21.453  0.00  0.00    +0.000 A 
ATOM      5  C   UNL     1      -0.137  11.348  20.231  0.00  0.00    +0.000 A 
ATOM      6  C   UNL     1       0.574  10.682  19.170  0.00  0.00    +0.000 A 
ENDROOT
BRANCH   1   8
ATOM      7  N   UNL     1       2.558   7.458  18.766  0.00  0.00    +0.000 N 
ATOM      8  C   UNL     1       2.001   8.670  18.381  0.00  0.00    +0.000 C 
ATOM      9  O   UNL     1       2.168   9.219  17.293  0.00  0.00    +0.000 OA
ATOM     10  H   UNL     1       2.336   7.117  19.692  0.00  0.00    +0.000 HD
BRANCH   7  14
ATOM     11  C   UNL     1       4.986   4.915  16.318  0.00  0.00    +0.000 A 
ATOM     12  C   UNL     1       5.293   6.274  16.444  0.00  0.00    +0.000 A 
ATOM     13  C   UNL     1       4.523   7.118  17.262  0.00  0.00    +0.000 A 
ATOM     14  C   UNL     1       3.426   6.639  17.980  0.00  0.00    +0.000 A 
ATOM     15  C   UNL     1       3.153   5.268  17.902  0.00  0.00    +0.000 A 
ATOM     16  C   UNL     1       3.920   4.415  17.079  0.00  0.00    +0.000 A 
BRANCH  11  18
ATOM     17  C   UNL     1       5.190   4.076  13.927  0.00  0.00    +0.000 C 
ATOM     18  C   UNL     1       5.770   4.050  15.342  0.00  0.00    +0.000 C 
ATOM     19  C   UNL     1       7.253   4.440  15.330  0.00  0.00    +0.000 C 
ENDBRANCH  11  18
ENDBRANCH   7  14
ENDBRANCH   1   8
BRANCH   5  20
ATOM     20  N   UNL     1      -0.689  12.646  19.966  0.00  0.00    +0.000 N 
ATOM     21  H   UNL     1      -0.615  12.765  18.946  0.00  0.00    +0.000 HD
BRANCH  20  22
ATOM     22  C   UNL     1      -0.261  13.949  20.354  0.00  0.00    +0.000 A 
ATOM     23  N   UNL     1      -1.239  14.823  20.076  0.00  0.00    +0.000 NA
ATOM     24  C   UNL     1      -0.848  15.880  19.384  0.00  0.00    +0.000 A 
ATOM     25  N   UNL     1       0.400  16.109  18.970  0.00  0.00    +0.000 NA
ATOM     26  C   UNL     1       1.350  15.379  19.559  0.00  0.00    +0.000 A 
ATOM     27  C   UNL     1       2.666  15.616  19.216  0.00  0.00    +0.000 A 
ATOM     28  C   UNL     1       3.735  15.063  19.915  0.00  0.00    +0.000 A 
ATOM     29  C   UNL     1       3.457  14.418  21.126  0.00  0.00    +0.000 A 
ATOM     30  C   UNL     1       2.130  14.015  21.376  0.00  0.00    +0.000 A 
ATOM     31  C   UNL     1       1.076  14.376  20.472  0.00  0.00    +0.000 A 
BRANCH  28  32
ATOM     32  C   UNL     1       5.038  15.033  19.264  0.00  0.00    +0.000 A 
ATOM     33  C   UNL     1       5.286  14.809  17.878  0.00  0.00    +0.000 A 
ATOM     34  N   UNL     1       6.579  14.671  17.597  0.00  0.00    +0.000 NA
ATOM     35  N   UNL     1       7.167  14.737  18.802  0.00  0.00    +0.000 N 
ATOM     36  C   UNL     1       8.563  14.389  18.904  0.00  0.00    +0.000 C 
ATOM     37  C   UNL     1       6.298  15.032  19.823  0.00  0.00    +0.000 A 
ENDBRANCH  28  32
ENDBRANCH  20  22
ENDBRANCH   5  20
TORSDOF 6
ENDMDL
MODEL 9
REMARK VINA RESULT:      -8.2      1.969      2.157
REMARK  Name = 
REMARK  9 active torsions:
REMARK  status: ('A' for Active; 'I' for Inactive)
REMARK    1  A    between atoms: C_1  and  C_2
REMARK    2  A    between atoms: C_2  and  C_3
REMARK    3  A    between atoms: C_2  and  C_4
REMARK    4  A    between atoms: C_7  and  N_8
REMARK    5  A    between atoms: C_9  and  C_11
REMARK    6  A    between atoms: C_15  and  N_16
REMARK    7  A    between atoms: N_16  and  C_17
REMARK    8  A    between atoms: C_23  and  C_24
REMARK    9  A    between atoms: N_27  and  C_28
REMARK                            x       y       z     vdW  Elec       q    Type
REMARK                         _______ _______ _______ _____ _____    ______ ____
ROOT
ATOM      1  C   UNL     1       0.906   9.685  20.097  0.00  0.00    +0.000 A 
ATOM      2  C   UNL     1       1.552   9.843  18.863  0.00  0.00    +0.000 A 
ATOM      3  C   UNL     1       2.229   8.775  18.277  0.00  0.00    +0.000 A 
ATOM      4  C   UNL     1       2.277   7.526  18.904  0.00  0.00    +0.000 A 
ATOM      5  C   UNL     1       1.672   7.328  20.154  0.00  0.00    +0.000 A 
ATOM      6  C   UNL     1       0.956   8.430  20.743  0.00  0.00    +0.000 A 
ENDROOT
BRANCH   1   8
ATOM      7  N   UNL     1       0.676  12.156  20.149  0.00  0.00    +0.000 N 
ATOM      8  C   UNL     1       0.286  10.930  20.670  0.00  0.00    +0.000 C 
ATOM      9  O   UNL     1      -0.513  10.768  21.591  0.00  0.00    +0.000 OA
ATOM     10  H   UNL     1       1.341  12.147  19.387  0.00  0.00    +0.000 HD
BRANCH   7  14
ATOM     11  C   UNL     1      -0.855  15.950  21.420  0.00  0.00    +0.000 A 
ATOM     12  C   UNL     1       0.079  15.267  22.206  0.00  0.00    +0.000 A 
ATOM     13  C   UNL     1       0.611  14.035  21.794  0.00  0.00    +0.000 A 
ATOM     14  C   UNL     1       0.233  13.441  20.588  0.00  0.00    +0.000 A 
ATOM     15  C   UNL     1      -0.657  14.151  19.773  0.00  0.00    +0.000 A 
ATOM     16  C   UNL     1      -1.199  15.388  20.183  0.00  0.00    +0.000 A 
BRANCH  11  18
ATOM     17  C   UNL     1      -0.765  17.803  23.160  0.00  0.00    +0.000 C 
ATOM     18  C   UNL     1      -1.495  17.228  21.944  0.00  0.00    +0.000 C 
ATOM     19  C   UNL     1      -1.615  18.279  20.834  0.00  0.00    +0.000 C 
ENDBRANCH  11  18
ENDBRANCH   7  14
ENDBRANCH   1   8
BRANCH   5  20
ATOM     20  N   UNL     1       1.695   6.079  20.861  0.00  0.00    +0.000 N 
ATOM     21  H   UNL     1       2.552   6.111  21.431  0.00  0.00    +0.000 HD
BRANCH  20  22
ATOM     22  C   UNL     1       1.810   4.736  20.397  0.00  0.00    +0.000 A 
ATOM     23  N   UNL     1       1.718   3.909  21.449  0.00  0.00    +0.000 NA
ATOM     24  C   UNL     1       2.688   3.014  21.528  0.00  0.00    +0.000 A 
ATOM     25  N   UNL     1       3.699   2.898  20.664  0.00  0.00    +0.000 NA
ATOM     26  C   UNL     1       3.538   3.523  19.496  0.00  0.00    +0.000 A 
ATOM     27  C   UNL     1       4.524   3.388  18.539  0.00  0.00    +0.000 A 
ATOM     28  C   UNL     1       4.361   3.821  17.227  0.00  0.00    +0.000 A 
ATOM     29  C   UNL     1       3.078   4.214  16.826  0.00  0.00    +0.000 A 
ATOM     30  C   UNL     1       2.136   4.530  17.824  0.00  0.00    +0.000 A 
ATOM     31  C   UNL     1       2.447   4.325  19.210  0.00  0.00    +0.000 A 
BRANCH  28  32
ATOM     32  C   UNL     1       5.554   4.005  16.411  0.00  0.00    +0.000 A 
ATOM     33  C   UNL     1       6.848   4.377  16.879  0.00  0.00    +0.000 A 
ATOM     34  N   UNL     1       7.704   4.633  15.894  0.00  0.00    +0.000 NA
ATOM     35  N   UNL     1       6.954   4.495  14.788  0.00  0.00    +0.000 N 
ATOM     36  C   UNL     1       7.504   4.931  13.528  0.00  0.00    +0.000 C 
ATOM     37  C   UNL     1       5.682   4.044  15.040  0.00  0.00    +0.000 A 
ENDBRANCH  28  32
ENDBRANCH  20  22
ENDBRANCH   5  20
TORSDOF 6
ENDMDL
