MODEL 1
REMARK VINA RESULT:      -8.3      0.000      0.000
REMARK  Name = 
REMARK  4 active torsions:
REMARK  status: ('A' for Active; 'I' for Inactive)
REMARK    1  A    between atoms: N_2  and  C_4
REMARK    2  A    between atoms: C_6  and  C_7
REMARK    3  A    between atoms: N_8  and  C_9
REMARK    4  A    between atoms: C_14  and  O_15
REMARK                            x       y       z     vdW  Elec       q    Type
REMARK                         _______ _______ _______ _____ _____    ______ ____
ROOT
ATOM      1  C   UNL     1       1.691   8.359  19.017  0.00  0.00    +0.000 C 
ATOM      2  N   UNL     1       2.195   7.336  19.632  0.00  0.00    +0.000 NA
ENDROOT
BRANCH   2   3
ATOM      3  C   UNL     1       2.729   6.275  18.851  0.00  0.00    +0.000 A 
ATOM      4  C   UNL     1       3.697   6.542  17.870  0.00  0.00    +0.000 A 
ATOM      5  C   UNL     1       4.238   5.524  17.099  0.00  0.00    +0.000 A 
ATOM      6  C   UNL     1       3.856   4.207  17.326  0.00  0.00    +0.000 A 
ATOM      7  C   UNL     1       2.928   3.869  18.336  0.00  0.00    +0.000 A 
ATOM      8  C   UNL     1       2.548   2.534  18.630  0.00  0.00    +0.000 A 
ATOM      9  C   UNL     1       1.631   2.236  19.633  0.00  0.00    +0.000 A 
ATOM     10  C   UNL     1       1.058   3.261  20.370  0.00  0.00    +0.000 A 
ATOM     11  C   UNL     1       1.412   4.586  20.104  0.00  0.00    +0.000 A 
ATOM     12  C   UNL     1       2.350   4.924  19.102  0.00  0.00    +0.000 A 
BRANCH   8  13
ATOM     13  O   UNL     1       3.048   1.436  17.977  0.00  0.00    +0.000 OA
ATOM     14  H   UNL     1       2.488   0.667  18.150  0.00  0.00    +0.000 HD
ENDBRANCH   8  13
ENDBRANCH   2   3
BRANCH   1  17
ATOM     15  C   UNL     1       0.186  10.487  21.721  0.00  0.00    +0.000 A 
ATOM     16  C   UNL     1       0.669   9.367  21.029  0.00  0.00    +0.000 A 
ATOM     17  C   UNL     1       1.167   9.539  19.735  0.00  0.00    +0.000 A 
ATOM     18  C   UNL     1       1.159  10.805  19.141  0.00  0.00    +0.000 A 
ATOM     19  C   UNL     1       0.674  11.911  19.851  0.00  0.00    +0.000 A 
ATOM     20  C   UNL     1       0.188  11.761  21.154  0.00  0.00    +0.000 A 
ATOM     21 CL   UNL     1      -0.410  13.165  21.957  0.00  0.00    +0.000 Cl
BRANCH  15  23
ATOM     22  O   UNL     1      -1.500  10.643  23.258  0.00  0.00    +0.000 OA
ATOM     23  N   UNL     1      -0.336  10.272  23.052  0.00  0.00    +0.000 N 
ATOM     24  O   UNL     1       0.387   9.675  23.858  0.00  0.00    +0.000 OA
ENDBRANCH  15  23
ENDBRANCH   1  17
TORSDOF 4
ENDMDL
MODEL 2
REMARK VINA RESULT:      -8.0      1.258      1.364
REMARK  Name = 
REMARK  4 active torsions:
REMARK  status: ('A' for Active; 'I' for Inactive)
REMARK    1  A    between atoms: N_2  and  C_4
REMARK    2  A    between atoms: C_6  and  C_7
REMARK    3  A    between atoms: N_8  and  C_9
REMARK    4  A    between atoms: C_14  and  O_15
REMARK                            x       y       z     vdW  Elec       q    Type
REMARK                         _______ _______ _______ _____ _____    ______ ____
ROOT
ATOM      1  C   UNL     1       2.400   7.653  18.903  0.00  0.00    +0.000 C 
ATOM      2  N   UNL     1       2.135   6.773  17.990  0.00  0.00    +0.000 NA
ENDROOT
BRANCH   2   3
ATOM      3  C   UNL     1       3.063   5.718  17.781  0.00  0.00    +0.000 A 
ATOM      4  C   UNL     1       4.356   6.000  17.311  0.00  0.00    +0.000 A 
ATOM      5  C   UNL     1       5.282   4.989  17.105  0.00  0.00    +0.000 A 
ATOM      6  C   UNL     1       4.951   3.675  17.411  0.00  0.00    +0.000 A 
ATOM      7  C   UNL     1       3.686   3.334  17.940  0.00  0.00    +0.000 A 
ATOM      8  C   UNL     1       3.326   2.012  18.309  0.00  0.00    +0.000 A 
ATOM      9  C   UNL     1       2.070   1.711  18.829  0.00  0.00    +0.000 A 
ATOM     10  C   UNL     1       1.131   2.719  18.989  0.00  0.00    +0.000 A 
ATOM     11  C   UNL     1       1.456   4.030  18.635  0.00  0.00    +0.000 A 
ATOM     12  C   UNL     1       2.726   4.374  18.117  0.00  0.00    +0.000 A 
BRANCH   8  13
ATOM     13  O   UNL     1       4.167   0.934  18.204  0.00  0.00    +0.000 OA
ATOM     14  H   UNL     1       4.954   1.075  18.749  0.00  0.00    +0.000 HD
ENDBRANCH   8  13
ENDBRANCH   2   3
BRANCH   1  17
ATOM     15  C   UNL     1       0.177   9.939  20.890  0.00  0.00    +0.000 A 
ATOM     16  C   UNL     1       1.045   8.886  20.562  0.00  0.00    +0.000 A 
ATOM     17  C   UNL     1       1.472   8.753  19.239  0.00  0.00    +0.000 A 
ATOM     18  C   UNL     1       1.020   9.645  18.261  0.00  0.00    +0.000 A 
ATOM     19  C   UNL     1       0.156  10.691  18.609  0.00  0.00    +0.000 A 
ATOM     20  C   UNL     1      -0.269  10.851  19.932  0.00  0.00    +0.000 A 
ATOM     21 CL   UNL     1      -1.348  12.150  20.282  0.00  0.00    +0.000 Cl
BRANCH  15  23
ATOM     22  O   UNL     1      -0.761   9.023  22.763  0.00  0.00    +0.000 OA
ATOM     23  N   UNL     1      -0.258  10.039  22.264  0.00  0.00    +0.000 N 
ATOM     24  O   UNL     1      -0.032  11.101  22.857  0.00  0.00    +0.000 OA
ENDBRANCH  15  23
ENDBRANCH   1  17
TORSDOF 4
ENDMDL
MODEL 3
REMARK VINA RESULT:      -7.9      3.718      8.102
REMARK  Name = 
REMARK  4 active torsions:
REMARK  status: ('A' for Active; 'I' for Inactive)
REMARK    1  A    between atoms: N_2  and  C_4
REMARK    2  A    between atoms: C_6  and  C_7
REMARK    3  A    between atoms: N_8  and  C_9
REMARK    4  A    between atoms: C_14  and  O_15
REMARK                            x       y       z     vdW  Elec       q    Type
REMARK                         _______ _______ _______ _____ _____    ______ ____
ROOT
ATOM      1  C   UNL     1       1.915   8.243  18.764  0.00  0.00    +0.000 C 
ATOM      2  N   UNL     1       1.195   9.066  18.070  0.00  0.00    +0.000 NA
ENDROOT
BRANCH   2   3
ATOM      3  C   UNL     1       0.433  10.045  18.764  0.00  0.00    +0.000 A 
ATOM      4  C   UNL     1       1.007  10.760  19.827  0.00  0.00    +0.000 A 
ATOM      5  C   UNL     1       0.288  11.724  20.516  0.00  0.00    +0.000 A 
ATOM      6  C   UNL     1      -1.010  12.030  20.125  0.00  0.00    +0.000 A 
ATOM      7  C   UNL     1      -1.624  11.385  19.028  0.00  0.00    +0.000 A 
ATOM      8  C   UNL     1      -2.928  11.701  18.568  0.00  0.00    +0.000 A 
ATOM      9  C   UNL     1      -3.503  11.047  17.482  0.00  0.00    +0.000 A 
ATOM     10  C   UNL     1      -2.797  10.050  16.826  0.00  0.00    +0.000 A 
ATOM     11  C   UNL     1      -1.510   9.716  17.255  0.00  0.00    +0.000 A 
ATOM     12  C   UNL     1      -0.891  10.370  18.346  0.00  0.00    +0.000 A 
BRANCH   8  13
ATOM     13  O   UNL     1      -3.722  12.669  19.128  0.00  0.00    +0.000 OA
ATOM     14  H   UNL     1      -3.209  13.478  19.265  0.00  0.00    +0.000 HD
ENDBRANCH   8  13
ENDBRANCH   2   3
BRANCH   1  17
ATOM     15  C   UNL     1       3.284   4.914  17.689  0.00  0.00    +0.000 A 
ATOM     16  C   UNL     1       2.467   5.879  18.296  0.00  0.00    +0.000 A 
ATOM     17  C   UNL     1       2.789   7.229  18.137  0.00  0.00    +0.000 A 
ATOM     18  C   UNL     1       3.920   7.601  17.402  0.00  0.00    +0.000 A 
ATOM     19  C   UNL     1       4.721   6.621  16.802  0.00  0.00    +0.000 A 
ATOM     20  C   UNL     1       4.405   5.265  16.936  0.00  0.00    +0.000 A 
ATOM     21 CL   UNL     1       5.448   4.116  16.184  0.00  0.00    +0.000 Cl
BRANCH  15  23
ATOM     22  O   UNL     1       2.207   3.009  17.024  0.00  0.00    +0.000 OA
ATOM     23  N   UNL     1       2.932   3.526  17.886  0.00  0.00    +0.000 N 
ATOM     24  O   UNL     1       3.434   2.943  18.854  0.00  0.00    +0.000 OA
ENDBRANCH  15  23
ENDBRANCH   1  17
TORSDOF 4
ENDMDL
MODEL 4
REMARK VINA RESULT:      -7.9      1.942      2.233
REMARK  Name = 
REMARK  4 active torsions:
REMARK  status: ('A' for Active; 'I' for Inactive)
REMARK    1  A    between atoms: N_2  and  C_4
REMARK    2  A    between atoms: C_6  and  C_7
REMARK    3  A    between atoms: N_8  and  C_9
REMARK    4  A    between atoms: C_14  and  O_15
REMARK                            x       y       z     vdW  Elec       q    Type
REMARK                         _______ _______ _______ _____ _____    ______ ____
ROOT
ATOM      1  C   UNL     1       2.192   7.520  19.889  0.00  0.00    +0.000 C 
ATOM      2  N   UNL     1       2.092   7.190  18.640  0.00  0.00    +0.000 NA
ENDROOT
BRANCH   2   3
ATOM      3  C   UNL     1       2.931   6.155  18.147  0.00  0.00    +0.000 A 
ATOM      4  C   UNL     1       4.111   6.474  17.456  0.00  0.00    +0.000 A 
ATOM      5  C   UNL     1       4.950   5.484  16.970  0.00  0.00    +0.000 A 
ATOM      6  C   UNL     1       4.651   4.147  17.206  0.00  0.00    +0.000 A 
ATOM      7  C   UNL     1       3.507   3.763  17.942  0.00  0.00    +0.000 A 
ATOM      8  C   UNL     1       3.193   2.413  18.245  0.00  0.00    +0.000 A 
ATOM      9  C   UNL     1       2.058   2.069  18.974  0.00  0.00    +0.000 A 
ATOM     10  C   UNL     1       1.197   3.062  19.418  0.00  0.00    +0.000 A 
ATOM     11  C   UNL     1       1.481   4.400  19.136  0.00  0.00    +0.000 A 
ATOM     12  C   UNL     1       2.631   4.786  18.409  0.00  0.00    +0.000 A 
BRANCH   8  13
ATOM     13  O   UNL     1       3.967   1.345  17.868  0.00  0.00    +0.000 OA
ATOM     14  H   UNL     1       3.408   0.648  17.498  0.00  0.00    +0.000 HD
ENDBRANCH   8  13
ENDBRANCH   2   3
BRANCH   1  17
ATOM     15  C   UNL     1      -0.148  10.432  20.275  0.00  0.00    +0.000 A 
ATOM     16  C   UNL     1       0.690   9.472  19.689  0.00  0.00    +0.000 A 
ATOM     17  C   UNL     1       1.324   8.540  20.513  0.00  0.00    +0.000 A 
ATOM     18  C   UNL     1       1.139   8.585  21.899  0.00  0.00    +0.000 A 
ATOM     19  C   UNL     1       0.296   9.550  22.464  0.00  0.00    +0.000 A 
ATOM     20  C   UNL     1      -0.362  10.481  21.653  0.00  0.00    +0.000 A 
ATOM     21 CL   UNL     1      -1.368  11.651  22.423  0.00  0.00    +0.000 Cl
BRANCH  15  23
ATOM     22  O   UNL     1      -0.099  12.377  19.074  0.00  0.00    +0.000 OA
ATOM     23  N   UNL     1      -0.778  11.392  19.397  0.00  0.00    +0.000 N 
ATOM     24  O   UNL     1      -1.910  11.124  18.979  0.00  0.00    +0.000 OA
ENDBRANCH  15  23
ENDBRANCH   1  17
TORSDOF 4
ENDMDL
MODEL 5
REMARK VINA RESULT:      -7.8      1.097      1.097
REMARK  Name = 
REMARK  4 active torsions:
REMARK  status: ('A' for Active; 'I' for Inactive)
REMARK    1  A    between atoms: N_2  and  C_4
REMARK    2  A    between atoms: C_6  and  C_7
REMARK    3  A    between atoms: N_8  and  C_9
REMARK    4  A    between atoms: C_14  and  O_15
REMARK                            x       y       z     vdW  Elec       q    Type
REMARK                         _______ _______ _______ _____ _____    ______ ____
ROOT
ATOM      1  C   UNL     1       1.855   8.286  19.172  0.00  0.00    +0.000 C 
ATOM      2  N   UNL     1       2.005   7.162  19.800  0.00  0.00    +0.000 NA
ENDROOT
BRANCH   2   3
ATOM      3  C   UNL     1       2.871   6.186  19.238  0.00  0.00    +0.000 A 
ATOM      4  C   UNL     1       3.678   6.512  18.136  0.00  0.00    +0.000 A 
ATOM      5  C   UNL     1       4.536   5.581  17.573  0.00  0.00    +0.000 A 
ATOM      6  C   UNL     1       4.643   4.313  18.131  0.00  0.00    +0.000 A 
ATOM      7  C   UNL     1       3.899   3.942  19.274  0.00  0.00    +0.000 A 
ATOM      8  C   UNL     1       4.015   2.675  19.902  0.00  0.00    +0.000 A 
ATOM      9  C   UNL     1       3.268   2.342  21.028  0.00  0.00    +0.000 A 
ATOM     10  C   UNL     1       2.376   3.262  21.560  0.00  0.00    +0.000 A 
ATOM     11  C   UNL     1       2.240   4.518  20.964  0.00  0.00    +0.000 A 
ATOM     12  C   UNL     1       2.993   4.894  19.827  0.00  0.00    +0.000 A 
BRANCH   8  13
ATOM     13  O   UNL     1       4.865   1.686  19.475  0.00  0.00    +0.000 OA
ATOM     14  H   UNL     1       5.631   1.634  20.063  0.00  0.00    +0.000 HD
ENDBRANCH   8  13
ENDBRANCH   2   3
BRANCH   1  17
ATOM     15  C   UNL     1      -0.107  10.416  21.565  0.00  0.00    +0.000 A 
ATOM     16  C   UNL     1       0.667   9.364  21.053  0.00  0.00    +0.000 A 
ATOM     17  C   UNL     1       1.025   9.387  19.703  0.00  0.00    +0.000 A 
ATOM     18  C   UNL     1       0.597  10.434  18.880  0.00  0.00    +0.000 A 
ATOM     19  C   UNL     1      -0.173  11.476  19.412  0.00  0.00    +0.000 A 
ATOM     20  C   UNL     1      -0.527  11.478  20.765  0.00  0.00    +0.000 A 
ATOM     21 CL   UNL     1      -1.492  12.786  21.343  0.00  0.00    +0.000 Cl
BRANCH  15  23
ATOM     22  O   UNL     1      -1.596  10.783  23.261  0.00  0.00    +0.000 OA
ATOM     23  N   UNL     1      -0.474  10.353  22.962  0.00  0.00    +0.000 N 
ATOM     24  O   UNL     1       0.325   9.814  23.736  0.00  0.00    +0.000 OA
ENDBRANCH  15  23
ENDBRANCH   1  17
TORSDOF 4
ENDMDL
MODEL 6
REMARK VINA RESULT:      -7.8      1.697      1.775
REMARK  Name = 
REMARK  4 active torsions:
REMARK  status: ('A' for Active; 'I' for Inactive)
REMARK    1  A    between atoms: N_2  and  C_4
REMARK    2  A    between atoms: C_6  and  C_7
REMARK    3  A    between atoms: N_8  and  C_9
REMARK    4  A    between atoms: C_14  and  O_15
REMARK                            x       y       z     vdW  Elec       q    Type
REMARK                         _______ _______ _______ _____ _____    ______ ____
ROOT
ATOM      1  C   UNL     1       1.709   8.585  18.593  0.00  0.00    +0.000 C 
ATOM      2  N   UNL     1       1.819   7.497  19.289  0.00  0.00    +0.000 NA
ENDROOT
BRANCH   2   3
ATOM      3  C   UNL     1       2.817   6.556  18.916  0.00  0.00    +0.000 A 
ATOM      4  C   UNL     1       3.787   6.901  17.961  0.00  0.00    +0.000 A 
ATOM      5  C   UNL     1       4.775   6.004  17.585  0.00  0.00    +0.000 A 
ATOM      6  C   UNL     1       4.843   4.756  18.191  0.00  0.00    +0.000 A 
ATOM      7  C   UNL     1       3.929   4.371  19.197  0.00  0.00    +0.000 A 
ATOM      8  C   UNL     1       3.994   3.125  19.873  0.00  0.00    +0.000 A 
ATOM      9  C   UNL     1       3.077   2.778  20.862  0.00  0.00    +0.000 A 
ATOM     10  C   UNL     1       2.063   3.660  21.203  0.00  0.00    +0.000 A 
ATOM     11  C   UNL     1       1.974   4.894  20.555  0.00  0.00    +0.000 A 
ATOM     12  C   UNL     1       2.895   5.285  19.555  0.00  0.00    +0.000 A 
BRANCH   8  13
ATOM     13  O   UNL     1       4.951   2.173  19.631  0.00  0.00    +0.000 OA
ATOM     14  H   UNL     1       5.034   2.024  18.679  0.00  0.00    +0.000 HD
ENDBRANCH   8  13
ENDBRANCH   2   3
BRANCH   1  17
ATOM     15  C   UNL     1      -0.016  11.336  20.481  0.00  0.00    +0.000 A 
ATOM     16  C   UNL     1       0.885  10.311  20.159  0.00  0.00    +0.000 A 
ATOM     17  C   UNL     1       0.746   9.652  18.935  0.00  0.00    +0.000 A 
ATOM     18  C   UNL     1      -0.291  10.000  18.063  0.00  0.00    +0.000 A 
ATOM     19  C   UNL     1      -1.179  11.029  18.402  0.00  0.00    +0.000 A 
ATOM     20  C   UNL     1      -1.045  11.712  19.616  0.00  0.00    +0.000 A 
ATOM     21 CL   UNL     1      -2.188  12.953  19.973  0.00  0.00    +0.000 Cl
BRANCH  15  23
ATOM     22  O   UNL     1      -0.291  11.383  22.750  0.00  0.00    +0.000 OA
ATOM     23  N   UNL     1       0.146  11.987  21.761  0.00  0.00    +0.000 N 
ATOM     24  O   UNL     1       0.767  13.056  21.781  0.00  0.00    +0.000 OA
ENDBRANCH  15  23
ENDBRANCH   1  17
TORSDOF 4
ENDMDL
MODEL 7
REMARK VINA RESULT:      -7.8      2.055      2.340
REMARK  Name = 
REMARK  4 active torsions:
REMARK  status: ('A' for Active; 'I' for Inactive)
REMARK    1  A    between atoms: N_2  and  C_4
REMARK    2  A    between atoms: C_6  and  C_7
REMARK    3  A    between atoms: N_8  and  C_9
REMARK    4  A    between atoms: C_14  and  O_15
REMARK                            x       y       z     vdW  Elec       q    Type
REMARK                         _______ _______ _______ _____ _____    ______ ____
ROOT
ATOM      1  C   UNL     1       1.333   8.473  20.115  0.00  0.00    +0.000 C 
ATOM      2  N   UNL     1       1.601   7.270  20.513  0.00  0.00    +0.000 NA
ENDROOT
BRANCH   2   3
ATOM      3  C   UNL     1       2.441   6.461  19.700  0.00  0.00    +0.000 A 
ATOM      4  C   UNL     1       3.092   7.019  18.588  0.00  0.00    +0.000 A 
ATOM      5  C   UNL     1       3.922   6.254  17.783  0.00  0.00    +0.000 A 
ATOM      6  C   UNL     1       4.157   4.922  18.101  0.00  0.00    +0.000 A 
ATOM      7  C   UNL     1       3.575   4.318  19.238  0.00  0.00    +0.000 A 
ATOM      8  C   UNL     1       3.828   2.976  19.623  0.00  0.00    +0.000 A 
ATOM      9  C   UNL     1       3.239   2.412  20.751  0.00  0.00    +0.000 A 
ATOM     10  C   UNL     1       2.373   3.168  21.527  0.00  0.00    +0.000 A 
ATOM     11  C   UNL     1       2.105   4.493  21.174  0.00  0.00    +0.000 A 
ATOM     12  C   UNL     1       2.696   5.101  20.042  0.00  0.00    +0.000 A 
BRANCH   8  13
ATOM     13  O   UNL     1       4.668   2.132  18.943  0.00  0.00    +0.000 OA
ATOM     14  H   UNL     1       5.260   2.643  18.374  0.00  0.00    +0.000 HD
ENDBRANCH   8  13
ENDBRANCH   2   3
BRANCH   1  17
ATOM     15  C   UNL     1      -0.835  11.402  21.027  0.00  0.00    +0.000 A 
ATOM     16  C   UNL     1      -0.050  10.516  20.275  0.00  0.00    +0.000 A 
ATOM     17  C   UNL     1       0.520   9.413  20.915  0.00  0.00    +0.000 A 
ATOM     18  C   UNL     1       0.324   9.216  22.286  0.00  0.00    +0.000 A 
ATOM     19  C   UNL     1      -0.467  10.111  23.018  0.00  0.00    +0.000 A 
ATOM     20  C   UNL     1      -1.060  11.212  22.391  0.00  0.00    +0.000 A 
ATOM     21 CL   UNL     1      -2.003  12.280  23.361  0.00  0.00    +0.000 Cl
BRANCH  15  23
ATOM     22  O   UNL     1      -2.520  12.388  19.836  0.00  0.00    +0.000 OA
ATOM     23  N   UNL     1      -1.398  12.541  20.338  0.00  0.00    +0.000 N 
ATOM     24  O   UNL     1      -0.753  13.596  20.362  0.00  0.00    +0.000 OA
ENDBRANCH  15  23
ENDBRANCH   1  17
TORSDOF 4
ENDMDL
MODEL 8
REMARK VINA RESULT:      -7.8      1.790      2.143
REMARK  Name = 
REMARK  4 active torsions:
REMARK  status: ('A' for Active; 'I' for Inactive)
REMARK    1  A    between atoms: N_2  and  C_4
REMARK    2  A    between atoms: C_6  and  C_7
REMARK    3  A    between atoms: N_8  and  C_9
REMARK    4  A    between atoms: C_14  and  O_15
REMARK                            x       y       z     vdW  Elec       q    Type
REMARK                         _______ _______ _______ _____ _____    ______ ____
ROOT
ATOM      1  C   UNL     1       1.459   8.288  19.667  0.00  0.00    +0.000 C 
ATOM      2  N   UNL     1       1.849   7.150  20.147  0.00  0.00    +0.000 NA
ENDROOT
BRANCH   2   3
ATOM      3  C   UNL     1       2.487   6.231  19.271  0.00  0.00    +0.000 A 
ATOM      4  C   UNL     1       3.447   6.686  18.352  0.00  0.00    +0.000 A 
ATOM      5  C   UNL     1       4.088   5.809  17.490  0.00  0.00    +0.000 A 
ATOM      6  C   UNL     1       3.818   4.448  17.561  0.00  0.00    +0.000 A 
ATOM      7  C   UNL     1       2.904   3.923  18.501  0.00  0.00    +0.000 A 
ATOM      8  C   UNL     1       2.637   2.536  18.637  0.00  0.00    +0.000 A 
ATOM      9  C   UNL     1       1.730   2.051  19.576  0.00  0.00    +0.000 A 
ATOM     10  C   UNL     1       1.056   2.936  20.404  0.00  0.00    +0.000 A 
ATOM     11  C   UNL     1       1.299   4.308  20.295  0.00  0.00    +0.000 A 
ATOM     12  C   UNL     1       2.223   4.833  19.361  0.00  0.00    +0.000 A 
BRANCH   8  13
ATOM     13  O   UNL     1       3.242   1.563  17.883  0.00  0.00    +0.000 OA
ATOM     14  H   UNL     1       2.770   1.454  17.046  0.00  0.00    +0.000 HD
ENDBRANCH   8  13
ENDBRANCH   2   3
BRANCH   1  17
ATOM     15  C   UNL     1       0.058  11.601  20.750  0.00  0.00    +0.000 A 
ATOM     16  C   UNL     1       0.659  10.608  19.962  0.00  0.00    +0.000 A 
ATOM     17  C   UNL     1       0.842   9.335  20.507  0.00  0.00    +0.000 A 
ATOM     18  C   UNL     1       0.450   9.071  21.824  0.00  0.00    +0.000 A 
ATOM     19  C   UNL     1      -0.151  10.076  22.593  0.00  0.00    +0.000 A 
ATOM     20  C   UNL     1      -0.358  11.352  22.058  0.00  0.00    +0.000 A 
ATOM     21 CL   UNL     1      -1.086  12.543  23.072  0.00  0.00    +0.000 Cl
BRANCH  15  23
ATOM     22  O   UNL     1       0.847  13.697  20.287  0.00  0.00    +0.000 OA
ATOM     23  N   UNL     1      -0.103  12.911  20.161  0.00  0.00    +0.000 N 
ATOM     24  O   UNL     1      -1.138  13.124  19.519  0.00  0.00    +0.000 OA
ENDBRANCH  15  23
ENDBRANCH   1  17
TORSDOF 4
ENDMDL
MODEL 9
REMARK VINA RESULT:      -7.8      2.289      3.623
REMARK  Name = 
REMARK  4 active torsions:
REMARK  status: ('A' for Active; 'I' for Inactive)
REMARK    1  A    between atoms: N_2  and  C_4
REMARK    2  A    between atoms: C_6  and  C_7
REMARK    3  A    between atoms: N_8  and  C_9
REMARK    4  A    between atoms: C_14  and  O_15
REMARK                            x       y       z     vdW  Elec       q    Type
REMARK                         _______ _______ _______ _____ _____    ______ ____
ROOT
ATOM      1  C   UNL     1       1.999   7.163  19.857  0.00  0.00    +0.000 C 
ATOM      2  N   UNL     1       2.194   6.956  18.593  0.00  0.00    +0.000 NA
ENDROOT
BRANCH   2   3
ATOM      3  C   UNL     1       2.687   5.687  18.186  0.00  0.00    +0.000 A 
ATOM      4  C   UNL     1       1.953   4.523  18.466  0.00  0.00    +0.000 A 
ATOM      5  C   UNL     1       2.409   3.274  18.074  0.00  0.00    +0.000 A 
ATOM      6  C   UNL     1       3.589   3.164  17.350  0.00  0.00    +0.000 A 
ATOM      7  C   UNL     1       4.345   4.303  16.989  0.00  0.00    +0.000 A 
ATOM      8  C   UNL     1       5.528   4.237  16.210  0.00  0.00    +0.000 A 
ATOM      9  C   UNL     1       6.249   5.380  15.871  0.00  0.00    +0.000 A 
ATOM     10  C   UNL     1       5.813   6.623  16.305  0.00  0.00    +0.000 A 
ATOM     11  C   UNL     1       4.650   6.719  17.073  0.00  0.00    +0.000 A 
ATOM     12  C   UNL     1       3.888   5.581  17.424  0.00  0.00    +0.000 A 
BRANCH   8  13
ATOM     13  O   UNL     1       6.056   3.071  15.718  0.00  0.00    +0.000 OA
ATOM     14  H   UNL     1       6.840   2.823  16.227  0.00  0.00    +0.000 HD
ENDBRANCH   8  13
ENDBRANCH   2   3
BRANCH   1  17
ATOM     15  C   UNL     1       0.576  10.638  19.958  0.00  0.00    +0.000 A 
ATOM     16  C   UNL     1       1.129   9.444  19.471  0.00  0.00    +0.000 A 
ATOM     17  C   UNL     1       1.432   8.425  20.377  0.00  0.00    +0.000 A 
ATOM     18  C   UNL     1       1.205   8.608  21.745  0.00  0.00    +0.000 A 
ATOM     19  C   UNL     1       0.648   9.807  22.210  0.00  0.00    +0.000 A 
ATOM     20  C   UNL     1       0.323  10.832  21.316  0.00  0.00    +0.000 A 
ATOM     21 CL   UNL     1      -0.341  12.286  21.965  0.00  0.00    +0.000 Cl
BRANCH  15  23
ATOM     22  O   UNL     1       1.240  12.393  18.652  0.00  0.00    +0.000 OA
ATOM     23  N   UNL     1       0.289  11.678  18.997  0.00  0.00    +0.000 N 
ATOM     24  O   UNL     1      -0.859  11.731  18.541  0.00  0.00    +0.000 OA
ENDBRANCH  15  23
ENDBRANCH   1  17
TORSDOF 4
ENDMDL
