MODEL 1
REMARK VINA RESULT:      -8.8      0.000      0.000
REMARK  Name = 
REMARK  9 active torsions:
REMARK  status: ('A' for Active; 'I' for Inactive)
REMARK    1  A    between atoms: C_2  and  O_3
REMARK    2  A    between atoms: C_2  and  C_4
REMARK    3  A    between atoms: C_4  and  N_5
REMARK    4  A    between atoms: N_8  and  C_9
REMARK    5  A    between atoms: C_9  and  C_10
REMARK    6  A    between atoms: C_13  and  C_14
REMARK    7  A    between atoms: C_14  and  C_15
REMARK    8  A    between atoms: C_15  and  O_17
REMARK    9  A    between atoms: O_17  and  C_18
REMARK                            x       y       z     vdW  Elec       q    Type
REMARK                         _______ _______ _______ _____ _____    ______ ____
ROOT
ATOM      1  N   UNL     1      -4.467  11.530  18.148  0.00  0.00    +0.000 N 
ATOM      2  N   UNL     1      -3.315  11.978  18.756  0.00  0.00    +0.000 NA
ATOM      3  C   UNL     1      -3.389  12.410  19.974  0.00  0.00    +0.000 A 
ATOM      4  N   UNL     1      -2.377  12.918  20.774  0.00  0.00    +0.000 N 
ATOM      5  C   UNL     1      -2.930  13.215  22.020  0.00  0.00    +0.000 A 
ATOM      6  C   UNL     1      -2.362  13.704  23.178  0.00  0.00    +0.000 A 
ATOM      7  C   UNL     1      -3.197  13.921  24.283  0.00  0.00    +0.000 A 
ATOM      8  C   UNL     1      -4.577  13.649  24.218  0.00  0.00    +0.000 A 
ATOM      9  C   UNL     1      -5.149  13.139  23.052  0.00  0.00    +0.000 A 
ATOM     10  C   UNL     1      -4.309  12.927  21.977  0.00  0.00    +0.000 A 
ATOM     11  N   UNL     1      -4.581  12.420  20.695  0.00  0.00    +0.000 N 
ATOM     12  C   UNL     1      -5.789  11.994  20.208  0.00  0.00    +0.000 A 
ATOM     13  O   UNL     1      -6.856  11.989  20.808  0.00  0.00    +0.000 OA
ATOM     14  C   UNL     1      -5.720  11.483  18.765  0.00  0.00    +0.000 A 
ATOM     15  O   UNL     1      -6.723  11.035  18.226  0.00  0.00    +0.000 OA
ENDROOT
BRANCH   1  16
ATOM     16  C   UNL     1      -4.376  11.196  16.723  0.00  0.00    +0.000 C 
BRANCH  16  18
ATOM     17  O   UNL     1      -2.730   9.655  15.846  0.00  0.00    +0.000 OA
ATOM     18  C   UNL     1      -2.982  10.769  16.280  0.00  0.00    +0.000 C 
BRANCH  18  19
ATOM     19  O   UNL     1      -2.042  11.739  16.347  0.00  0.00    +0.000 OA
ATOM     20  H   UNL     1      -2.448  12.626  16.366  0.00  0.00    +0.000 HD
ENDBRANCH  18  19
ENDBRANCH  16  18
ENDBRANCH   1  16
BRANCH   4  21
ATOM     21  C   UNL     1      -0.991  13.133  20.408  0.00  0.00    +0.000 C 
BRANCH  21  22
ATOM     22  C   UNL     1      -0.213  11.838  20.440  0.00  0.00    +0.000 A 
ATOM     23  C   UNL     1       0.185  11.223  19.246  0.00  0.00    +0.000 A 
ATOM     24  C   UNL     1       0.756   9.952  19.258  0.00  0.00    +0.000 A 
ATOM     25  C   UNL     1       0.953   9.281  20.472  0.00  0.00    +0.000 A 
ATOM     26  C   UNL     1       0.653   9.934  21.672  0.00  0.00    +0.000 A 
ATOM     27  C   UNL     1       0.075  11.203  21.657  0.00  0.00    +0.000 A 
BRANCH  25  28
ATOM     28  C   UNL     1       1.403   7.845  20.483  0.00  0.00    +0.000 C 
BRANCH  28  29
ATOM     29  C   UNL     1       2.371   7.453  19.398  0.00  0.00    +0.000 C 
ATOM     30  O   UNL     1       2.606   8.156  18.418  0.00  0.00    +0.000 OA
BRANCH  29  31
ATOM     31  O   UNL     1       3.061   6.304  19.754  0.00  0.00    +0.000 OA
BRANCH  31  32
ATOM     32  C   UNL     1       2.285   5.160  19.576  0.00  0.00    +0.000 A 
ATOM     33  C   UNL     1       2.044   4.670  18.289  0.00  0.00    +0.000 A 
ATOM     34  C   UNL     1       1.304   3.505  18.126  0.00  0.00    +0.000 A 
ATOM     35  C   UNL     1       0.845   2.814  19.242  0.00  0.00    +0.000 A 
ATOM     36  C   UNL     1       1.131   3.283  20.530  0.00  0.00    +0.000 A 
ATOM     37  C   UNL     1       1.859   4.461  20.700  0.00  0.00    +0.000 A 
ENDBRANCH  31  32
ENDBRANCH  29  31
ENDBRANCH  28  29
ENDBRANCH  25  28
ENDBRANCH  21  22
ENDBRANCH   4  21
TORSDOF 9
ENDMDL
MODEL 2
REMARK VINA RESULT:      -8.7      1.367      2.033
REMARK  Name = 
REMARK  9 active torsions:
REMARK  status: ('A' for Active; 'I' for Inactive)
REMARK    1  A    between atoms: C_2  and  O_3
REMARK    2  A    between atoms: C_2  and  C_4
REMARK    3  A    between atoms: C_4  and  N_5
REMARK    4  A    between atoms: N_8  and  C_9
REMARK    5  A    between atoms: C_9  and  C_10
REMARK    6  A    between atoms: C_13  and  C_14
REMARK    7  A    between atoms: C_14  and  C_15
REMARK    8  A    between atoms: C_15  and  O_17
REMARK    9  A    between atoms: O_17  and  C_18
REMARK                            x       y       z     vdW  Elec       q    Type
REMARK                         _______ _______ _______ _____ _____    ______ ____
ROOT
ATOM      1  N   UNL     1      -3.682  11.570  17.308  0.00  0.00    +0.000 N 
ATOM      2  N   UNL     1      -2.408  11.701  17.812  0.00  0.00    +0.000 NA
ATOM      3  C   UNL     1      -2.268  12.084  19.041  0.00  0.00    +0.000 A 
ATOM      4  N   UNL     1      -1.096  12.298  19.751  0.00  0.00    +0.000 N 
ATOM      5  C   UNL     1      -1.449  12.666  21.049  0.00  0.00    +0.000 A 
ATOM      6  C   UNL     1      -0.680  12.953  22.158  0.00  0.00    +0.000 A 
ATOM      7  C   UNL     1      -1.336  13.316  23.341  0.00  0.00    +0.000 A 
ATOM      8  C   UNL     1      -2.741  13.388  23.403  0.00  0.00    +0.000 A 
ATOM      9  C   UNL     1      -3.520  13.082  22.287  0.00  0.00    +0.000 A 
ATOM     10  C   UNL     1      -2.854  12.720  21.132  0.00  0.00    +0.000 A 
ATOM     11  N   UNL     1      -3.353  12.350  19.872  0.00  0.00    +0.000 N 
ATOM     12  C   UNL     1      -4.666  12.250  19.494  0.00  0.00    +0.000 A 
ATOM     13  O   UNL     1      -5.646  12.476  20.192  0.00  0.00    +0.000 OA
ATOM     14  C   UNL     1      -4.850  11.799  18.040  0.00  0.00    +0.000 A 
ATOM     15  O   UNL     1      -5.975  11.630  17.591  0.00  0.00    +0.000 OA
ENDROOT
BRANCH   1  16
ATOM     16  C   UNL     1      -3.801  11.286  15.874  0.00  0.00    +0.000 C 
BRANCH  16  18
ATOM     17  O   UNL     1      -2.336   9.382  16.162  0.00  0.00    +0.000 OA
ATOM     18  C   UNL     1      -2.913  10.142  15.399  0.00  0.00    +0.000 C 
BRANCH  18  19
ATOM     19  O   UNL     1      -2.852   9.988  14.057  0.00  0.00    +0.000 OA
ATOM     20  H   UNL     1      -3.065  10.822  13.595  0.00  0.00    +0.000 HD
ENDBRANCH  18  19
ENDBRANCH  16  18
ENDBRANCH   1  16
BRANCH   4  21
ATOM     21  C   UNL     1       0.263  12.189  19.259  0.00  0.00    +0.000 C 
BRANCH  21  22
ATOM     22  C   UNL     1       0.731  10.752  19.268  0.00  0.00    +0.000 A 
ATOM     23  C   UNL     1       0.636   9.985  20.436  0.00  0.00    +0.000 A 
ATOM     24  C   UNL     1       1.212   8.717  20.502  0.00  0.00    +0.000 A 
ATOM     25  C   UNL     1       1.881   8.190  19.390  0.00  0.00    +0.000 A 
ATOM     26  C   UNL     1       1.887   8.909  18.190  0.00  0.00    +0.000 A 
ATOM     27  C   UNL     1       1.316  10.180  18.129  0.00  0.00    +0.000 A 
BRANCH  25  28
ATOM     28  C   UNL     1       2.654   6.904  19.506  0.00  0.00    +0.000 C 
BRANCH  28  29
ATOM     29  C   UNL     1       2.877   6.155  18.220  0.00  0.00    +0.000 C 
ATOM     30  O   UNL     1       3.797   6.404  17.444  0.00  0.00    +0.000 OA
BRANCH  29  31
ATOM     31  O   UNL     1       2.021   5.067  18.136  0.00  0.00    +0.000 OA
BRANCH  31  32
ATOM     32  C   UNL     1       2.181   4.199  19.215  0.00  0.00    +0.000 A 
ATOM     33  C   UNL     1       1.114   3.958  20.085  0.00  0.00    +0.000 A 
ATOM     34  C   UNL     1       1.272   3.060  21.133  0.00  0.00    +0.000 A 
ATOM     35  C   UNL     1       2.474   2.378  21.286  0.00  0.00    +0.000 A 
ATOM     36  C   UNL     1       3.524   2.588  20.384  0.00  0.00    +0.000 A 
ATOM     37  C   UNL     1       3.377   3.501  19.339  0.00  0.00    +0.000 A 
ENDBRANCH  31  32
ENDBRANCH  29  31
ENDBRANCH  28  29
ENDBRANCH  25  28
ENDBRANCH  21  22
ENDBRANCH   4  21
TORSDOF 9
ENDMDL
MODEL 3
REMARK VINA RESULT:      -8.6      4.608     10.321
REMARK  Name = 
REMARK  9 active torsions:
REMARK  status: ('A' for Active; 'I' for Inactive)
REMARK    1  A    between atoms: C_2  and  O_3
REMARK    2  A    between atoms: C_2  and  C_4
REMARK    3  A    between atoms: C_4  and  N_5
REMARK    4  A    between atoms: N_8  and  C_9
REMARK    5  A    between atoms: C_9  and  C_10
REMARK    6  A    between atoms: C_13  and  C_14
REMARK    7  A    between atoms: C_14  and  C_15
REMARK    8  A    between atoms: C_15  and  O_17
REMARK    9  A    between atoms: O_17  and  C_18
REMARK                            x       y       z     vdW  Elec       q    Type
REMARK                         _______ _______ _______ _____ _____    ______ ____
ROOT
ATOM      1  N   UNL     1       6.805   5.678  18.317  0.00  0.00    +0.000 N 
ATOM      2  N   UNL     1       5.704   5.860  19.124  0.00  0.00    +0.000 NA
ATOM      3  C   UNL     1       4.671   5.102  18.937  0.00  0.00    +0.000 A 
ATOM      4  N   UNL     1       3.458   5.113  19.608  0.00  0.00    +0.000 N 
ATOM      5  C   UNL     1       2.672   4.088  19.081  0.00  0.00    +0.000 A 
ATOM      6  C   UNL     1       1.408   3.644  19.410  0.00  0.00    +0.000 A 
ATOM      7  C   UNL     1       0.867   2.584  18.672  0.00  0.00    +0.000 A 
ATOM      8  C   UNL     1       1.588   1.983  17.623  0.00  0.00    +0.000 A 
ATOM      9  C   UNL     1       2.873   2.420  17.300  0.00  0.00    +0.000 A 
ATOM     10  C   UNL     1       3.391   3.462  18.043  0.00  0.00    +0.000 A 
ATOM     11  N   UNL     1       4.640   4.103  17.967  0.00  0.00    +0.000 N 
ATOM     12  C   UNL     1       5.670   3.817  17.110  0.00  0.00    +0.000 A 
ATOM     13  O   UNL     1       5.681   2.951  16.245  0.00  0.00    +0.000 OA
ATOM     14  C   UNL     1       6.901   4.708  17.316  0.00  0.00    +0.000 A 
ATOM     15  O   UNL     1       7.905   4.527  16.643  0.00  0.00    +0.000 OA
ENDROOT
BRANCH   1  16
ATOM     16  C   UNL     1       7.893   6.652  18.454  0.00  0.00    +0.000 C 
BRANCH  16  18
ATOM     17  O   UNL     1       8.256   8.991  17.956  0.00  0.00    +0.000 OA
ATOM     18  C   UNL     1       7.639   7.963  17.721  0.00  0.00    +0.000 C 
BRANCH  18  19
ATOM     19  O   UNL     1       6.711   7.897  16.739  0.00  0.00    +0.000 OA
ATOM     20  H   UNL     1       7.119   8.007  15.859  0.00  0.00    +0.000 HD
ENDBRANCH  18  19
ENDBRANCH  16  18
ENDBRANCH   1  16
BRANCH   4  21
ATOM     21  C   UNL     1       3.042   6.022  20.658  0.00  0.00    +0.000 C 
BRANCH  21  22
ATOM     22  C   UNL     1       2.307   7.213  20.087  0.00  0.00    +0.000 A 
ATOM     23  C   UNL     1       2.509   7.595  18.754  0.00  0.00    +0.000 A 
ATOM     24  C   UNL     1       1.966   8.783  18.267  0.00  0.00    +0.000 A 
ATOM     25  C   UNL     1       1.196   9.600  19.104  0.00  0.00    +0.000 A 
ATOM     26  C   UNL     1       0.906   9.169  20.403  0.00  0.00    +0.000 A 
ATOM     27  C   UNL     1       1.456   7.985  20.890  0.00  0.00    +0.000 A 
BRANCH  25  28
ATOM     28  C   UNL     1       0.755  10.963  18.641  0.00  0.00    +0.000 C 
BRANCH  28  29
ATOM     29  C   UNL     1      -0.612  11.398  19.096  0.00  0.00    +0.000 C 
ATOM     30  O   UNL     1      -0.889  12.560  19.385  0.00  0.00    +0.000 OA
BRANCH  29  31
ATOM     31  O   UNL     1      -1.520  10.357  18.972  0.00  0.00    +0.000 OA
BRANCH  31  32
ATOM     32  C   UNL     1      -2.389  10.554  17.901  0.00  0.00    +0.000 A 
ATOM     33  C   UNL     1      -2.059  10.068  16.633  0.00  0.00    +0.000 A 
ATOM     34  C   UNL     1      -2.952  10.234  15.581  0.00  0.00    +0.000 A 
ATOM     35  C   UNL     1      -4.183  10.843  15.805  0.00  0.00    +0.000 A 
ATOM     36  C   UNL     1      -4.527  11.285  17.089  0.00  0.00    +0.000 A 
ATOM     37  C   UNL     1      -3.628  11.136  18.145  0.00  0.00    +0.000 A 
ENDBRANCH  31  32
ENDBRANCH  29  31
ENDBRANCH  28  29
ENDBRANCH  25  28
ENDBRANCH  21  22
ENDBRANCH   4  21
TORSDOF 9
ENDMDL
MODEL 4
REMARK VINA RESULT:      -8.5      1.171      1.513
REMARK  Name = 
REMARK  9 active torsions:
REMARK  status: ('A' for Active; 'I' for Inactive)
REMARK    1  A    between atoms: C_2  and  O_3
REMARK    2  A    between atoms: C_2  and  C_4
REMARK    3  A    between atoms: C_4  and  N_5
REMARK    4  A    between atoms: N_8  and  C_9
REMARK    5  A    between atoms: C_9  and  C_10
REMARK    6  A    between atoms: C_13  and  C_14
REMARK    7  A    between atoms: C_14  and  C_15
REMARK    8  A    between atoms: C_15  and  O_17
REMARK    9  A    between atoms: O_17  and  C_18
REMARK                            x       y       z     vdW  Elec       q    Type
REMARK                         _______ _______ _______ _____ _____    ______ ____
ROOT
ATOM      1  N   UNL     1      -3.284  11.815  18.317  0.00  0.00    +0.000 N 
ATOM      2  N   UNL     1      -2.678  12.180  19.498  0.00  0.00    +0.000 NA
ATOM      3  C   UNL     1      -3.429  12.453  20.517  0.00  0.00    +0.000 A 
ATOM      4  N   UNL     1      -3.049  12.853  21.789  0.00  0.00    +0.000 N 
ATOM      5  C   UNL     1      -4.206  12.990  22.554  0.00  0.00    +0.000 A 
ATOM      6  C   UNL     1      -4.391  13.325  23.880  0.00  0.00    +0.000 A 
ATOM      7  C   UNL     1      -5.703  13.401  24.366  0.00  0.00    +0.000 A 
ATOM      8  C   UNL     1      -6.806  13.142  23.530  0.00  0.00    +0.000 A 
ATOM      9  C   UNL     1      -6.619  12.786  22.194  0.00  0.00    +0.000 A 
ATOM     10  C   UNL     1      -5.319  12.711  21.736  0.00  0.00    +0.000 A 
ATOM     11  N   UNL     1      -4.819  12.373  20.467  0.00  0.00    +0.000 N 
ATOM     12  C   UNL     1      -5.539  12.015  19.358  0.00  0.00    +0.000 A 
ATOM     13  O   UNL     1      -6.757  11.935  19.273  0.00  0.00    +0.000 OA
ATOM     14  C   UNL     1      -4.664  11.692  18.140  0.00  0.00    +0.000 A 
ATOM     15  O   UNL     1      -5.183  11.318  17.098  0.00  0.00    +0.000 OA
ENDROOT
BRANCH   1  16
ATOM     16  C   UNL     1      -2.414  11.665  17.146  0.00  0.00    +0.000 C 
BRANCH  16  18
ATOM     17  O   UNL     1      -2.154   9.389  16.370  0.00  0.00    +0.000 OA
ATOM     18  C   UNL     1      -1.731  10.306  17.058  0.00  0.00    +0.000 C 
BRANCH  18  19
ATOM     19  O   UNL     1      -0.578  10.202  17.757  0.00  0.00    +0.000 OA
ATOM     20  H   UNL     1       0.197  10.196  17.163  0.00  0.00    +0.000 HD
ENDBRANCH  18  19
ENDBRANCH  16  18
ENDBRANCH   1  16
BRANCH   4  21
ATOM     21  C   UNL     1      -1.704  13.111  22.264  0.00  0.00    +0.000 C 
BRANCH  21  22
ATOM     22  C   UNL     1      -0.853  11.864  22.192  0.00  0.00    +0.000 A 
ATOM     23  C   UNL     1       0.187  11.771  21.258  0.00  0.00    +0.000 A 
ATOM     24  C   UNL     1       0.868  10.569  21.072  0.00  0.00    +0.000 A 
ATOM     25  C   UNL     1       0.528   9.443  21.832  0.00  0.00    +0.000 A 
ATOM     26  C   UNL     1      -0.438   9.561  22.837  0.00  0.00    +0.000 A 
ATOM     27  C   UNL     1      -1.123  10.762  23.016  0.00  0.00    +0.000 A 
BRANCH  25  28
ATOM     28  C   UNL     1       1.134   8.101  21.517  0.00  0.00    +0.000 C 
BRANCH  28  29
ATOM     29  C   UNL     1       1.699   7.947  20.130  0.00  0.00    +0.000 C 
ATOM     30  O   UNL     1       1.451   8.722  19.210  0.00  0.00    +0.000 OA
BRANCH  29  31
ATOM     31  O   UNL     1       2.646   6.935  20.102  0.00  0.00    +0.000 OA
BRANCH  31  32
ATOM     32  C   UNL     1       2.123   5.751  19.585  0.00  0.00    +0.000 A 
ATOM     33  C   UNL     1       2.274   5.451  18.229  0.00  0.00    +0.000 A 
ATOM     34  C   UNL     1       1.785   4.249  17.732  0.00  0.00    +0.000 A 
ATOM     35  C   UNL     1       1.185   3.336  18.594  0.00  0.00    +0.000 A 
ATOM     36  C   UNL     1       1.078   3.622  19.961  0.00  0.00    +0.000 A 
ATOM     37  C   UNL     1       1.553   4.834  20.462  0.00  0.00    +0.000 A 
ENDBRANCH  31  32
ENDBRANCH  29  31
ENDBRANCH  28  29
ENDBRANCH  25  28
ENDBRANCH  21  22
ENDBRANCH   4  21
TORSDOF 9
ENDMDL
MODEL 5
REMARK VINA RESULT:      -8.4      0.703      1.065
REMARK  Name = 
REMARK  9 active torsions:
REMARK  status: ('A' for Active; 'I' for Inactive)
REMARK    1  A    between atoms: C_2  and  O_3
REMARK    2  A    between atoms: C_2  and  C_4
REMARK    3  A    between atoms: C_4  and  N_5
REMARK    4  A    between atoms: N_8  and  C_9
REMARK    5  A    between atoms: C_9  and  C_10
REMARK    6  A    between atoms: C_13  and  C_14
REMARK    7  A    between atoms: C_14  and  C_15
REMARK    8  A    between atoms: C_15  and  O_17
REMARK    9  A    between atoms: O_17  and  C_18
REMARK                            x       y       z     vdW  Elec       q    Type
REMARK                         _______ _______ _______ _____ _____    ______ ____
ROOT
ATOM      1  N   UNL     1      -4.275  11.695  18.019  0.00  0.00    +0.000 N 
ATOM      2  N   UNL     1      -3.232  11.961  18.878  0.00  0.00    +0.000 NA
ATOM      3  C   UNL     1      -3.509  12.309  20.094  0.00  0.00    +0.000 A 
ATOM      4  N   UNL     1      -2.635  12.637  21.119  0.00  0.00    +0.000 N 
ATOM      5  C   UNL     1      -3.397  12.904  22.256  0.00  0.00    +0.000 A 
ATOM      6  C   UNL     1      -3.032  13.239  23.544  0.00  0.00    +0.000 A 
ATOM      7  C   UNL     1      -4.047  13.470  24.480  0.00  0.00    +0.000 A 
ATOM      8  C   UNL     1      -5.405  13.365  24.124  0.00  0.00    +0.000 A 
ATOM      9  C   UNL     1      -5.776  13.011  22.826  0.00  0.00    +0.000 A 
ATOM     10  C   UNL     1      -4.760  12.781  21.920  0.00  0.00    +0.000 A 
ATOM     11  N   UNL     1      -4.815  12.404  20.567  0.00  0.00    +0.000 N 
ATOM     12  C   UNL     1      -5.935  12.157  19.817  0.00  0.00    +0.000 A 
ATOM     13  O   UNL     1      -7.097  12.232  20.195  0.00  0.00    +0.000 OA
ATOM     14  C   UNL     1      -5.625  11.748  18.373  0.00  0.00    +0.000 A 
ATOM     15  O   UNL     1      -6.537  11.459  17.611  0.00  0.00    +0.000 OA
ENDROOT
BRANCH   1  16
ATOM     16  C   UNL     1      -3.930  11.456  16.613  0.00  0.00    +0.000 C 
BRANCH  16  18
ATOM     17  O   UNL     1      -3.058   9.642  15.272  0.00  0.00    +0.000 OA
ATOM     18  C   UNL     1      -3.186  10.148  16.377  0.00  0.00    +0.000 C 
BRANCH  18  19
ATOM     19  O   UNL     1      -2.620   9.607  17.479  0.00  0.00    +0.000 OA
ATOM     20  H   UNL     1      -3.214   8.953  17.897  0.00  0.00    +0.000 HD
ENDBRANCH  18  19
ENDBRANCH  16  18
ENDBRANCH   1  16
BRANCH   4  21
ATOM     21  C   UNL     1      -1.190  12.716  21.051  0.00  0.00    +0.000 C 
BRANCH  21  22
ATOM     22  C   UNL     1      -0.572  11.339  20.974  0.00  0.00    +0.000 A 
ATOM     23  C   UNL     1      -0.570  10.502  22.097  0.00  0.00    +0.000 A 
ATOM     24  C   UNL     1       0.138   9.301  22.085  0.00  0.00    +0.000 A 
ATOM     25  C   UNL     1       0.845   8.912  20.940  0.00  0.00    +0.000 A 
ATOM     26  C   UNL     1       0.759   9.694  19.784  0.00  0.00    +0.000 A 
ATOM     27  C   UNL     1       0.056  10.898  19.800  0.00  0.00    +0.000 A 
BRANCH  25  28
ATOM     28  C   UNL     1       1.751   7.711  20.977  0.00  0.00    +0.000 C 
BRANCH  28  29
ATOM     29  C   UNL     1       2.293   7.258  19.648  0.00  0.00    +0.000 C 
ATOM     30  O   UNL     1       2.187   7.917  18.616  0.00  0.00    +0.000 OA
BRANCH  29  31
ATOM     31  O   UNL     1       3.054   6.109  19.799  0.00  0.00    +0.000 OA
BRANCH  31  32
ATOM     32  C   UNL     1       2.295   4.956  19.610  0.00  0.00    +0.000 A 
ATOM     33  C   UNL     1       2.020   4.503  18.317  0.00  0.00    +0.000 A 
ATOM     34  C   UNL     1       1.297   3.330  18.140  0.00  0.00    +0.000 A 
ATOM     35  C   UNL     1       0.888   2.594  19.248  0.00  0.00    +0.000 A 
ATOM     36  C   UNL     1       1.207   3.029  20.540  0.00  0.00    +0.000 A 
ATOM     37  C   UNL     1       1.918   4.214  20.724  0.00  0.00    +0.000 A 
ENDBRANCH  31  32
ENDBRANCH  29  31
ENDBRANCH  28  29
ENDBRANCH  25  28
ENDBRANCH  21  22
ENDBRANCH   4  21
TORSDOF 9
ENDMDL
MODEL 6
REMARK VINA RESULT:      -8.4      1.728      4.168
REMARK  Name = 
REMARK  9 active torsions:
REMARK  status: ('A' for Active; 'I' for Inactive)
REMARK    1  A    between atoms: C_2  and  O_3
REMARK    2  A    between atoms: C_2  and  C_4
REMARK    3  A    between atoms: C_4  and  N_5
REMARK    4  A    between atoms: N_8  and  C_9
REMARK    5  A    between atoms: C_9  and  C_10
REMARK    6  A    between atoms: C_13  and  C_14
REMARK    7  A    between atoms: C_14  and  C_15
REMARK    8  A    between atoms: C_15  and  O_17
REMARK    9  A    between atoms: O_17  and  C_18
REMARK                            x       y       z     vdW  Elec       q    Type
REMARK                         _______ _______ _______ _____ _____    ______ ____
ROOT
ATOM      1  N   UNL     1      -5.115  13.177  21.984  0.00  0.00    +0.000 N 
ATOM      2  N   UNL     1      -3.846  13.156  21.452  0.00  0.00    +0.000 NA
ATOM      3  C   UNL     1      -3.678  12.633  20.279  0.00  0.00    +0.000 A 
ATOM      4  N   UNL     1      -2.502  12.488  19.558  0.00  0.00    +0.000 N 
ATOM      5  C   UNL     1      -2.826  11.905  18.333  0.00  0.00    +0.000 A 
ATOM      6  C   UNL     1      -2.047  11.579  17.242  0.00  0.00    +0.000 A 
ATOM      7  C   UNL     1      -2.670  10.973  16.143  0.00  0.00    +0.000 A 
ATOM      8  C   UNL     1      -4.051  10.702  16.146  0.00  0.00    +0.000 A 
ATOM      9  C   UNL     1      -4.843  11.046  17.242  0.00  0.00    +0.000 A 
ATOM     10  C   UNL     1      -4.211  11.647  18.313  0.00  0.00    +0.000 A 
ATOM     11  N   UNL     1      -4.732  12.112  19.533  0.00  0.00    +0.000 N 
ATOM     12  C   UNL     1      -6.038  12.082  19.945  0.00  0.00    +0.000 A 
ATOM     13  O   UNL     1      -6.990  11.632  19.321  0.00  0.00    +0.000 OA
ATOM     14  C   UNL     1      -6.254  12.694  21.334  0.00  0.00    +0.000 A 
ATOM     15  O   UNL     1      -7.382  12.766  21.801  0.00  0.00    +0.000 OA
ENDROOT
BRANCH   1  16
ATOM     16  C   UNL     1      -5.243  13.633  23.372  0.00  0.00    +0.000 C 
BRANCH  16  18
ATOM     17  O   UNL     1      -4.272  12.331  25.165  0.00  0.00    +0.000 OA
ATOM     18  C   UNL     1      -5.206  12.506  24.395  0.00  0.00    +0.000 C 
BRANCH  18  19
ATOM     19  O   UNL     1      -6.315  11.734  24.434  0.00  0.00    +0.000 OA
ATOM     20  H   UNL     1      -6.176  10.890  23.963  0.00  0.00    +0.000 HD
ENDBRANCH  18  19
ENDBRANCH  16  18
ENDBRANCH   1  16
BRANCH   4  21
ATOM     21  C   UNL     1      -1.162  12.848  19.978  0.00  0.00    +0.000 C 
BRANCH  21  22
ATOM     22  C   UNL     1      -0.344  11.618  20.299  0.00  0.00    +0.000 A 
ATOM     23  C   UNL     1       0.762  11.280  19.509  0.00  0.00    +0.000 A 
ATOM     24  C   UNL     1       1.421  10.066  19.695  0.00  0.00    +0.000 A 
ATOM     25  C   UNL     1       0.991   9.177  20.688  0.00  0.00    +0.000 A 
ATOM     26  C   UNL     1      -0.046   9.558  21.546  0.00  0.00    +0.000 A 
ATOM     27  C   UNL     1      -0.708  10.769  21.354  0.00  0.00    +0.000 A 
BRANCH  25  28
ATOM     28  C   UNL     1       1.582   7.795  20.780  0.00  0.00    +0.000 C 
BRANCH  28  29
ATOM     29  C   UNL     1       2.156   7.242  19.503  0.00  0.00    +0.000 C 
ATOM     30  O   UNL     1       2.061   7.811  18.418  0.00  0.00    +0.000 OA
BRANCH  29  31
ATOM     31  O   UNL     1       2.931   6.122  19.764  0.00  0.00    +0.000 OA
BRANCH  31  32
ATOM     32  C   UNL     1       2.261   4.943  19.443  0.00  0.00    +0.000 A 
ATOM     33  C   UNL     1       2.517   4.300  18.230  0.00  0.00    +0.000 A 
ATOM     34  C   UNL     1       1.874   3.103  17.938  0.00  0.00    +0.000 A 
ATOM     35  C   UNL     1       1.014   2.533  18.871  0.00  0.00    +0.000 A 
ATOM     36  C   UNL     1       0.797   3.159  20.106  0.00  0.00    +0.000 A 
ATOM     37  C   UNL     1       1.427   4.369  20.396  0.00  0.00    +0.000 A 
ENDBRANCH  31  32
ENDBRANCH  29  31
ENDBRANCH  28  29
ENDBRANCH  25  28
ENDBRANCH  21  22
ENDBRANCH   4  21
TORSDOF 9
ENDMDL
MODEL 7
REMARK VINA RESULT:      -8.4      4.404     10.013
REMARK  Name = 
REMARK  9 active torsions:
REMARK  status: ('A' for Active; 'I' for Inactive)
REMARK    1  A    between atoms: C_2  and  O_3
REMARK    2  A    between atoms: C_2  and  C_4
REMARK    3  A    between atoms: C_4  and  N_5
REMARK    4  A    between atoms: N_8  and  C_9
REMARK    5  A    between atoms: C_9  and  C_10
REMARK    6  A    between atoms: C_13  and  C_14
REMARK    7  A    between atoms: C_14  and  C_15
REMARK    8  A    between atoms: C_15  and  O_17
REMARK    9  A    between atoms: O_17  and  C_18
REMARK                            x       y       z     vdW  Elec       q    Type
REMARK                         _______ _______ _______ _____ _____    ______ ____
ROOT
ATOM      1  N   UNL     1       6.069   5.680  17.175  0.00  0.00    +0.000 N 
ATOM      2  N   UNL     1       5.248   6.104  18.196  0.00  0.00    +0.000 NA
ATOM      3  C   UNL     1       4.203   5.394  18.482  0.00  0.00    +0.000 A 
ATOM      4  N   UNL     1       3.236   5.630  19.447  0.00  0.00    +0.000 N 
ATOM      5  C   UNL     1       2.330   4.571  19.406  0.00  0.00    +0.000 A 
ATOM      6  C   UNL     1       1.213   4.294  20.168  0.00  0.00    +0.000 A 
ATOM      7  C   UNL     1       0.479   3.138  19.869  0.00  0.00    +0.000 A 
ATOM      8  C   UNL     1       0.866   2.280  18.823  0.00  0.00    +0.000 A 
ATOM      9  C   UNL     1       2.004   2.551  18.062  0.00  0.00    +0.000 A 
ATOM     10  C   UNL     1       2.717   3.691  18.376  0.00  0.00    +0.000 A 
ATOM     11  N   UNL     1       3.891   4.215  17.810  0.00  0.00    +0.000 N 
ATOM     12  C   UNL     1       4.630   3.684  16.786  0.00  0.00    +0.000 A 
ATOM     13  O   UNL     1       4.388   2.653  16.170  0.00  0.00    +0.000 OA
ATOM     14  C   UNL     1       5.869   4.514  16.432  0.00  0.00    +0.000 A 
ATOM     15  O   UNL     1       6.636   4.126  15.562  0.00  0.00    +0.000 OA
ENDROOT
BRANCH   1  16
ATOM     16  C   UNL     1       7.152   6.585  16.778  0.00  0.00    +0.000 C 
BRANCH  16  18
ATOM     17  O   UNL     1       7.861   8.573  17.961  0.00  0.00    +0.000 OA
ATOM     18  C   UNL     1       7.767   7.354  17.940  0.00  0.00    +0.000 C 
BRANCH  18  19
ATOM     19  O   UNL     1       8.157   6.591  18.986  0.00  0.00    +0.000 OA
ATOM     20  H   UNL     1       8.145   7.100  19.819  0.00  0.00    +0.000 HD
ENDBRANCH  18  19
ENDBRANCH  16  18
ENDBRANCH   1  16
BRANCH   4  21
ATOM     21  C   UNL     1       3.143   6.769  20.339  0.00  0.00    +0.000 C 
BRANCH  21  22
ATOM     22  C   UNL     1       2.148   7.783  19.824  0.00  0.00    +0.000 A 
ATOM     23  C   UNL     1       2.201   8.210  18.491  0.00  0.00    +0.000 A 
ATOM     24  C   UNL     1       1.398   9.261  18.051  0.00  0.00    +0.000 A 
ATOM     25  C   UNL     1       0.517   9.893  18.937  0.00  0.00    +0.000 A 
ATOM     26  C   UNL     1       0.387   9.401  20.240  0.00  0.00    +0.000 A 
ATOM     27  C   UNL     1       1.196   8.354  20.680  0.00  0.00    +0.000 A 
BRANCH  25  28
ATOM     28  C   UNL     1      -0.221  11.136  18.520  0.00  0.00    +0.000 C 
BRANCH  28  29
ATOM     29  C   UNL     1      -1.518  11.401  19.238  0.00  0.00    +0.000 C 
ATOM     30  O   UNL     1      -1.758  12.449  19.832  0.00  0.00    +0.000 OA
BRANCH  29  31
ATOM     31  O   UNL     1      -2.429  10.388  18.983  0.00  0.00    +0.000 OA
BRANCH  31  32
ATOM     32  C   UNL     1      -2.938  10.463  17.688  0.00  0.00    +0.000 A 
ATOM     33  C   UNL     1      -3.880  11.442  17.361  0.00  0.00    +0.000 A 
ATOM     34  C   UNL     1      -4.350  11.534  16.057  0.00  0.00    +0.000 A 
ATOM     35  C   UNL     1      -3.852  10.680  15.078  0.00  0.00    +0.000 A 
ATOM     36  C   UNL     1      -2.873   9.732  15.402  0.00  0.00    +0.000 A 
ATOM     37  C   UNL     1      -2.410   9.624  16.713  0.00  0.00    +0.000 A 
ENDBRANCH  31  32
ENDBRANCH  29  31
ENDBRANCH  28  29
ENDBRANCH  25  28
ENDBRANCH  21  22
ENDBRANCH   4  21
TORSDOF 9
ENDMDL
MODEL 8
REMARK VINA RESULT:      -8.3      4.554     10.461
REMARK  Name = 
REMARK  9 active torsions:
REMARK  status: ('A' for Active; 'I' for Inactive)
REMARK    1  A    between atoms: C_2  and  O_3
REMARK    2  A    between atoms: C_2  and  C_4
REMARK    3  A    between atoms: C_4  and  N_5
REMARK    4  A    between atoms: N_8  and  C_9
REMARK    5  A    between atoms: C_9  and  C_10
REMARK    6  A    between atoms: C_13  and  C_14
REMARK    7  A    between atoms: C_14  and  C_15
REMARK    8  A    between atoms: C_15  and  O_17
REMARK    9  A    between atoms: O_17  and  C_18
REMARK                            x       y       z     vdW  Elec       q    Type
REMARK                         _______ _______ _______ _____ _____    ______ ____
ROOT
ATOM      1  N   UNL     1       6.386   6.595  17.305  0.00  0.00    +0.000 N 
ATOM      2  N   UNL     1       5.427   6.674  18.290  0.00  0.00    +0.000 NA
ATOM      3  C   UNL     1       4.528   5.744  18.350  0.00  0.00    +0.000 A 
ATOM      4  N   UNL     1       3.467   5.624  19.235  0.00  0.00    +0.000 N 
ATOM      5  C   UNL     1       2.796   4.439  18.933  0.00  0.00    +0.000 A 
ATOM      6  C   UNL     1       1.707   3.830  19.521  0.00  0.00    +0.000 A 
ATOM      7  C   UNL     1       1.242   2.630  18.969  0.00  0.00    +0.000 A 
ATOM      8  C   UNL     1       1.865   2.055  17.845  0.00  0.00    +0.000 A 
ATOM      9  C   UNL     1       2.977   2.661  17.259  0.00  0.00    +0.000 A 
ATOM     10  C   UNL     1       3.423   3.840  17.822  0.00  0.00    +0.000 A 
ATOM     11  N   UNL     1       4.506   4.664  17.471  0.00  0.00    +0.000 N 
ATOM     12  C   UNL     1       5.407   4.467  16.457  0.00  0.00    +0.000 A 
ATOM     13  O   UNL     1       5.420   3.534  15.665  0.00  0.00    +0.000 OA
ATOM     14  C   UNL     1       6.477   5.561  16.370  0.00  0.00    +0.000 A 
ATOM     15  O   UNL     1       7.366   5.480  15.533  0.00  0.00    +0.000 OA
ENDROOT
BRANCH   1  16
ATOM     16  C   UNL     1       7.292   7.740  17.170  0.00  0.00    +0.000 C 
BRANCH  16  18
ATOM     17  O   UNL     1       8.716   9.008  18.659  0.00  0.00    +0.000 OA
ATOM     18  C   UNL     1       8.224   7.930  18.360  0.00  0.00    +0.000 C 
BRANCH  18  19
ATOM     19  O   UNL     1       8.428   6.821  19.106  0.00  0.00    +0.000 OA
ATOM     20  H   UNL     1       8.483   6.023  18.547  0.00  0.00    +0.000 HD
ENDBRANCH  18  19
ENDBRANCH  16  18
ENDBRANCH   1  16
BRANCH   4  21
ATOM     21  C   UNL     1       3.086   6.551  20.281  0.00  0.00    +0.000 C 
BRANCH  21  22
ATOM     22  C   UNL     1       2.136   7.603  19.756  0.00  0.00    +0.000 A 
ATOM     23  C   UNL     1       2.197   8.004  18.415  0.00  0.00    +0.000 A 
ATOM     24  C   UNL     1       1.442   9.084  17.963  0.00  0.00    +0.000 A 
ATOM     25  C   UNL     1       0.600   9.772  18.845  0.00  0.00    +0.000 A 
ATOM     26  C   UNL     1       0.458   9.310  20.157  0.00  0.00    +0.000 A 
ATOM     27  C   UNL     1       1.219   8.234  20.609  0.00  0.00    +0.000 A 
BRANCH  25  28
ATOM     28  C   UNL     1      -0.082  11.043  18.411  0.00  0.00    +0.000 C 
BRANCH  28  29
ATOM     29  C   UNL     1       0.385  12.302  19.092  0.00  0.00    +0.000 C 
ATOM     30  O   UNL     1       1.569  12.601  19.218  0.00  0.00    +0.000 OA
BRANCH  29  31
ATOM     31  O   UNL     1      -0.693  13.123  19.385  0.00  0.00    +0.000 OA
BRANCH  31  32
ATOM     32  C   UNL     1      -0.865  13.282  20.759  0.00  0.00    +0.000 A 
ATOM     33  C   UNL     1      -0.574  14.507  21.364  0.00  0.00    +0.000 A 
ATOM     34  C   UNL     1      -0.788  14.666  22.728  0.00  0.00    +0.000 A 
ATOM     35  C   UNL     1      -1.327  13.622  23.472  0.00  0.00    +0.000 A 
ATOM     36  C   UNL     1      -1.660  12.412  22.851  0.00  0.00    +0.000 A 
ATOM     37  C   UNL     1      -1.432  12.241  21.485  0.00  0.00    +0.000 A 
ENDBRANCH  31  32
ENDBRANCH  29  31
ENDBRANCH  28  29
ENDBRANCH  25  28
ENDBRANCH  21  22
ENDBRANCH   4  21
TORSDOF 9
ENDMDL
MODEL 9
REMARK VINA RESULT:      -8.3      4.792     10.453
REMARK  Name = 
REMARK  9 active torsions:
REMARK  status: ('A' for Active; 'I' for Inactive)
REMARK    1  A    between atoms: C_2  and  O_3
REMARK    2  A    between atoms: C_2  and  C_4
REMARK    3  A    between atoms: C_4  and  N_5
REMARK    4  A    between atoms: N_8  and  C_9
REMARK    5  A    between atoms: C_9  and  C_10
REMARK    6  A    between atoms: C_13  and  C_14
REMARK    7  A    between atoms: C_14  and  C_15
REMARK    8  A    between atoms: C_15  and  O_17
REMARK    9  A    between atoms: O_17  and  C_18
REMARK                            x       y       z     vdW  Elec       q    Type
REMARK                         _______ _______ _______ _____ _____    ______ ____
ROOT
ATOM      1  N   UNL     1       6.261   6.329  17.327  0.00  0.00    +0.000 N 
ATOM      2  N   UNL     1       5.324   6.548  18.312  0.00  0.00    +0.000 NA
ATOM      3  C   UNL     1       4.358   5.696  18.444  0.00  0.00    +0.000 A 
ATOM      4  N   UNL     1       3.304   5.718  19.343  0.00  0.00    +0.000 N 
ATOM      5  C   UNL     1       2.541   4.569  19.130  0.00  0.00    +0.000 A 
ATOM      6  C   UNL     1       1.417   4.087  19.769  0.00  0.00    +0.000 A 
ATOM      7  C   UNL     1       0.856   2.890  19.305  0.00  0.00    +0.000 A 
ATOM      8  C   UNL     1       1.419   2.194  18.219  0.00  0.00    +0.000 A 
ATOM      9  C   UNL     1       2.566   2.672  17.583  0.00  0.00    +0.000 A 
ATOM     10  C   UNL     1       3.107   3.850  18.059  0.00  0.00    +0.000 A 
ATOM     11  N   UNL     1       4.244   4.562  17.643  0.00  0.00    +0.000 N 
ATOM     12  C   UNL     1       5.114   4.228  16.638  0.00  0.00    +0.000 A 
ATOM     13  O   UNL     1       5.046   3.244  15.912  0.00  0.00    +0.000 OA
ATOM     14  C   UNL     1       6.262   5.229  16.466  0.00  0.00    +0.000 A 
ATOM     15  O   UNL     1       7.131   5.024  15.630  0.00  0.00    +0.000 OA
ENDROOT
BRANCH   1  16
ATOM     16  C   UNL     1       7.249   7.391  17.106  0.00  0.00    +0.000 C 
BRANCH  16  18
ATOM     17  O   UNL     1       8.600   8.776  18.557  0.00  0.00    +0.000 OA
ATOM     18  C   UNL     1       8.128   7.675  18.317  0.00  0.00    +0.000 C 
BRANCH  18  19
ATOM     19  O   UNL     1       8.306   6.625  19.150  0.00  0.00    +0.000 OA
ATOM     20  H   UNL     1       7.872   5.821  18.805  0.00  0.00    +0.000 HD
ENDBRANCH  18  19
ENDBRANCH  16  18
ENDBRANCH   1  16
BRANCH   4  21
ATOM     21  C   UNL     1       3.006   6.741  20.326  0.00  0.00    +0.000 C 
BRANCH  21  22
ATOM     22  C   UNL     1       2.048   7.769  19.768  0.00  0.00    +0.000 A 
ATOM     23  C   UNL     1       2.167   8.197  18.440  0.00  0.00    +0.000 A 
ATOM     24  C   UNL     1       1.397   9.259  17.966  0.00  0.00    +0.000 A 
ATOM     25  C   UNL     1       0.484   9.899  18.813  0.00  0.00    +0.000 A 
ATOM     26  C   UNL     1       0.289   9.406  20.107  0.00  0.00    +0.000 A 
ATOM     27  C   UNL     1       1.064   8.349  20.581  0.00  0.00    +0.000 A 
BRANCH  25  28
ATOM     28  C   UNL     1      -0.220  11.152  18.365  0.00  0.00    +0.000 C 
BRANCH  28  29
ATOM     29  C   UNL     1      -0.336  12.242  19.397  0.00  0.00    +0.000 C 
ATOM     30  O   UNL     1      -1.412  12.673  19.805  0.00  0.00    +0.000 OA
BRANCH  29  31
ATOM     31  O   UNL     1       0.910  12.548  19.922  0.00  0.00    +0.000 OA
BRANCH  31  32
ATOM     32  C   UNL     1       1.500  13.626  19.263  0.00  0.00    +0.000 A 
ATOM     33  C   UNL     1       0.947  14.904  19.378  0.00  0.00    +0.000 A 
ATOM     34  C   UNL     1       1.566  15.978  18.751  0.00  0.00    +0.000 A 
ATOM     35  C   UNL     1       2.750  15.782  18.048  0.00  0.00    +0.000 A 
ATOM     36  C   UNL     1       3.325  14.506  17.976  0.00  0.00    +0.000 A 
ATOM     37  C   UNL     1       2.699  13.422  18.590  0.00  0.00    +0.000 A 
ENDBRANCH  31  32
ENDBRANCH  29  31
ENDBRANCH  28  29
ENDBRANCH  25  28
ENDBRANCH  21  22
ENDBRANCH   4  21
TORSDOF 9
ENDMDL
