MODEL 1
REMARK VINA RESULT:      -8.8      0.000      0.000
REMARK  Name = 
REMARK  5 active torsions:
REMARK  status: ('A' for Active; 'I' for Inactive)
REMARK    1  A    between atoms: C_1  and  C_2
REMARK    2  A    between atoms: C_2  and  C_10
REMARK    3  A    between atoms: C_3  and  C_4
REMARK    4  A    between atoms: C_10  and  N_11
REMARK    5  A    between atoms: C_14  and  C_15
REMARK                            x       y       z     vdW  Elec       q    Type
REMARK                         _______ _______ _______ _____ _____    ______ ____
ROOT
ATOM      1  N   UNL     1       6.076   6.356  17.174  0.00  0.00    +0.000 NA
ATOM      2  C   UNL     1       5.725   5.961  18.559  0.00  0.00    +0.000 C 
ATOM      3  C   UNL     1       5.720   4.438  18.643  0.00  0.00    +0.000 C 
ATOM      4  C   UNL     1       4.759   3.785  17.643  0.00  0.00    +0.000 C 
ATOM      5  C   UNL     1       5.045   4.359  16.251  0.00  0.00    +0.000 C 
ATOM      6  C   UNL     1       4.984   5.900  16.297  0.00  0.00    +0.000 C 
ENDROOT
BRANCH   4   7
ATOM      7  C   UNL     1       3.265   3.992  17.958  0.00  0.00    +0.000 C 
ATOM      8  O   UNL     1       2.594   4.807  17.320  0.00  0.00    +0.000 OA
ATOM      9  N   UNL     1       2.668   3.129  18.872  0.00  0.00    +0.000 N 
ATOM     10  C   UNL     1       1.205   3.071  18.948  0.00  0.00    +0.000 C 
ATOM     11  C   UNL     1       0.702   3.490  20.325  0.00  0.00    +0.000 C 
ATOM     12  C   UNL     1       1.385   2.677  21.423  0.00  0.00    +0.000 C 
ATOM     13  C   UNL     1       2.902   2.782  21.300  0.00  0.00    +0.000 C 
ATOM     14  C   UNL     1       3.376   2.371  19.907  0.00  0.00    +0.000 C 
ENDBRANCH   4   7
BRANCH   1  15
ATOM     15  C   UNL     1       6.507   7.763  17.174  0.00  0.00    +0.000 C 
BRANCH  15  17
ATOM     16  C   UNL     1       8.399   7.089  18.724  0.00  0.00    +0.000 C 
ATOM     17  C   UNL     1       7.784   8.219  17.907  0.00  0.00    +0.000 C 
ATOM     18  C   UNL     1       8.245   9.491  17.811  0.00  0.00    +0.000 C 
BRANCH  18  19
ATOM     19  C   UNL     1       9.207  10.314  18.572  0.00  0.00    +0.000 A 
ATOM     20  C   UNL     1       9.162  10.479  19.952  0.00  0.00    +0.000 A 
ATOM     21  C   UNL     1      10.073  11.317  20.597  0.00  0.00    +0.000 A 
ATOM     22  C   UNL     1      11.067  11.973  19.887  0.00  0.00    +0.000 A 
ATOM     23  C   UNL     1      11.152  11.805  18.510  0.00  0.00    +0.000 A 
ATOM     24  C   UNL     1      10.212  10.999  17.851  0.00  0.00    +0.000 A 
ENDBRANCH  18  19
ENDBRANCH  15  17
ENDBRANCH   1  15
TORSDOF 4
ENDMDL
MODEL 2
REMARK VINA RESULT:      -8.0      1.336      2.212
REMARK  Name = 
REMARK  5 active torsions:
REMARK  status: ('A' for Active; 'I' for Inactive)
REMARK    1  A    between atoms: C_1  and  C_2
REMARK    2  A    between atoms: C_2  and  C_10
REMARK    3  A    between atoms: C_3  and  C_4
REMARK    4  A    between atoms: C_10  and  N_11
REMARK    5  A    between atoms: C_14  and  C_15
REMARK                            x       y       z     vdW  Elec       q    Type
REMARK                         _______ _______ _______ _____ _____    ______ ____
ROOT
ATOM      1  N   UNL     1       7.122   6.439  17.927  0.00  0.00    +0.000 NA
ATOM      2  C   UNL     1       7.435   4.990  17.957  0.00  0.00    +0.000 C 
ATOM      3  C   UNL     1       6.458   4.263  17.040  0.00  0.00    +0.000 C 
ATOM      4  C   UNL     1       4.991   4.498  17.417  0.00  0.00    +0.000 C 
ATOM      5  C   UNL     1       4.761   6.008  17.547  0.00  0.00    +0.000 C 
ATOM      6  C   UNL     1       5.787   6.612  18.527  0.00  0.00    +0.000 C 
ENDROOT
BRANCH   4   7
ATOM      7  C   UNL     1       4.549   3.824  18.730  0.00  0.00    +0.000 C 
ATOM      8  O   UNL     1       5.373   3.284  19.471  0.00  0.00    +0.000 OA
ATOM      9  N   UNL     1       3.223   3.979  19.125  0.00  0.00    +0.000 N 
ATOM     10  C   UNL     1       2.846   3.650  20.504  0.00  0.00    +0.000 C 
ATOM     11  C   UNL     1       1.824   2.520  20.548  0.00  0.00    +0.000 C 
ATOM     12  C   UNL     1       0.620   2.842  19.664  0.00  0.00    +0.000 C 
ATOM     13  C   UNL     1       1.071   3.164  18.243  0.00  0.00    +0.000 C 
ATOM     14  C   UNL     1       2.104   4.290  18.231  0.00  0.00    +0.000 C 
ENDBRANCH   4   7
BRANCH   1  15
ATOM     15  C   UNL     1       8.281   7.189  18.435  0.00  0.00    +0.000 C 
BRANCH  15  17
ATOM     16  C   UNL     1       7.391   9.283  17.314  0.00  0.00    +0.000 C 
ATOM     17  C   UNL     1       8.345   8.727  18.363  0.00  0.00    +0.000 C 
ATOM     18  C   UNL     1       9.185   9.443  19.153  0.00  0.00    +0.000 C 
BRANCH  18  19
ATOM     19  C   UNL     1       9.704  10.825  19.143  0.00  0.00    +0.000 A 
ATOM     20  C   UNL     1      10.127  11.484  17.993  0.00  0.00    +0.000 A 
ATOM     21  C   UNL     1      10.658  12.773  18.068  0.00  0.00    +0.000 A 
ATOM     22  C   UNL     1      10.741  13.443  19.280  0.00  0.00    +0.000 A 
ATOM     23  C   UNL     1      10.301  12.818  20.441  0.00  0.00    +0.000 A 
ATOM     24  C   UNL     1       9.808  11.506  20.378  0.00  0.00    +0.000 A 
ENDBRANCH  18  19
ENDBRANCH  15  17
ENDBRANCH   1  15
TORSDOF 4
ENDMDL
MODEL 3
REMARK VINA RESULT:      -7.9      1.346      1.795
REMARK  Name = 
REMARK  5 active torsions:
REMARK  status: ('A' for Active; 'I' for Inactive)
REMARK    1  A    between atoms: C_1  and  C_2
REMARK    2  A    between atoms: C_2  and  C_10
REMARK    3  A    between atoms: C_3  and  C_4
REMARK    4  A    between atoms: C_10  and  N_11
REMARK    5  A    between atoms: C_14  and  C_15
REMARK                            x       y       z     vdW  Elec       q    Type
REMARK                         _______ _______ _______ _____ _____    ______ ____
ROOT
ATOM      1  N   UNL     1       6.174   6.354  16.595  0.00  0.00    +0.000 NA
ATOM      2  C   UNL     1       6.456   4.905  16.724  0.00  0.00    +0.000 C 
ATOM      3  C   UNL     1       5.179   4.131  16.414  0.00  0.00    +0.000 C 
ATOM      4  C   UNL     1       4.004   4.526  17.316  0.00  0.00    +0.000 C 
ATOM      5  C   UNL     1       3.864   6.052  17.287  0.00  0.00    +0.000 C 
ATOM      6  C   UNL     1       5.211   6.709  17.652  0.00  0.00    +0.000 C 
ENDROOT
BRANCH   4   7
ATOM      7  C   UNL     1       4.142   4.078  18.784  0.00  0.00    +0.000 C 
ATOM      8  O   UNL     1       5.247   3.811  19.261  0.00  0.00    +0.000 OA
ATOM      9  N   UNL     1       3.006   4.133  19.588  0.00  0.00    +0.000 N 
ATOM     10  C   UNL     1       3.159   4.042  21.044  0.00  0.00    +0.000 C 
ATOM     11  C   UNL     1       2.441   2.819  21.604  0.00  0.00    +0.000 C 
ATOM     12  C   UNL     1       0.980   2.795  21.158  0.00  0.00    +0.000 C 
ATOM     13  C   UNL     1       0.885   2.882  19.638  0.00  0.00    +0.000 C 
ATOM     14  C   UNL     1       1.624   4.108  19.104  0.00  0.00    +0.000 C 
ENDBRANCH   4   7
BRANCH   1  15
ATOM     15  C   UNL     1       7.447   7.078  16.458  0.00  0.00    +0.000 C 
BRANCH  15  17
ATOM     16  C   UNL     1       8.141   6.989  18.897  0.00  0.00    +0.000 C 
ATOM     17  C   UNL     1       8.071   7.846  17.639  0.00  0.00    +0.000 C 
ATOM     18  C   UNL     1       8.475   9.136  17.518  0.00  0.00    +0.000 C 
BRANCH  18  19
ATOM     19  C   UNL     1       8.814  10.219  18.463  0.00  0.00    +0.000 A 
ATOM     20  C   UNL     1       9.204  10.002  19.781  0.00  0.00    +0.000 A 
ATOM     21  C   UNL     1       9.457  11.078  20.632  0.00  0.00    +0.000 A 
ATOM     22  C   UNL     1       9.366  12.386  20.179  0.00  0.00    +0.000 A 
ATOM     23  C   UNL     1       9.005  12.631  18.859  0.00  0.00    +0.000 A 
ATOM     24  C   UNL     1       8.706  11.554  18.011  0.00  0.00    +0.000 A 
ENDBRANCH  18  19
ENDBRANCH  15  17
ENDBRANCH   1  15
TORSDOF 4
ENDMDL
MODEL 4
REMARK VINA RESULT:      -7.9      5.054      7.992
REMARK  Name = 
REMARK  5 active torsions:
REMARK  status: ('A' for Active; 'I' for Inactive)
REMARK    1  A    between atoms: C_1  and  C_2
REMARK    2  A    between atoms: C_2  and  C_10
REMARK    3  A    between atoms: C_3  and  C_4
REMARK    4  A    between atoms: C_10  and  N_11
REMARK    5  A    between atoms: C_14  and  C_15
REMARK                            x       y       z     vdW  Elec       q    Type
REMARK                         _______ _______ _______ _____ _____    ______ ____
ROOT
ATOM      1  N   UNL     1       1.686   6.782  20.277  0.00  0.00    +0.000 NA
ATOM      2  C   UNL     1       2.613   7.231  19.210  0.00  0.00    +0.000 C 
ATOM      3  C   UNL     1       2.447   6.312  18.005  0.00  0.00    +0.000 C 
ATOM      4  C   UNL     1       2.694   4.835  18.337  0.00  0.00    +0.000 C 
ATOM      5  C   UNL     1       1.845   4.466  19.558  0.00  0.00    +0.000 C 
ATOM      6  C   UNL     1       2.133   5.447  20.713  0.00  0.00    +0.000 C 
ENDROOT
BRANCH   4   7
ATOM      7  C   UNL     1       4.162   4.481  18.640  0.00  0.00    +0.000 C 
ATOM      8  O   UNL     1       4.448   3.703  19.553  0.00  0.00    +0.000 OA
ATOM      9  N   UNL     1       5.136   4.943  17.759  0.00  0.00    +0.000 N 
ATOM     10  C   UNL     1       6.482   4.361  17.815  0.00  0.00    +0.000 C 
ATOM     11  C   UNL     1       7.529   5.412  18.164  0.00  0.00    +0.000 C 
ATOM     12  C   UNL     1       7.438   6.606  17.216  0.00  0.00    +0.000 C 
ATOM     13  C   UNL     1       6.022   7.174  17.207  0.00  0.00    +0.000 C 
ATOM     14  C   UNL     1       4.994   6.097  16.868  0.00  0.00    +0.000 C 
ENDBRANCH   4   7
BRANCH   1  15
ATOM     15  C   UNL     1       1.511   7.874  21.247  0.00  0.00    +0.000 C 
BRANCH  15  17
ATOM     16  C   UNL     1      -0.532   8.898  22.349  0.00  0.00    +0.000 C 
ATOM     17  C   UNL     1       0.365   8.895  21.117  0.00  0.00    +0.000 C 
ATOM     18  C   UNL     1       0.213   9.659  20.006  0.00  0.00    +0.000 C 
BRANCH  18  19
ATOM     19  C   UNL     1      -0.880  10.474  19.439  0.00  0.00    +0.000 A 
ATOM     20  C   UNL     1      -1.413  11.596  20.065  0.00  0.00    +0.000 A 
ATOM     21  C   UNL     1      -2.483  12.286  19.493  0.00  0.00    +0.000 A 
ATOM     22  C   UNL     1      -3.015  11.898  18.273  0.00  0.00    +0.000 A 
ATOM     23  C   UNL     1      -2.484  10.796  17.613  0.00  0.00    +0.000 A 
ATOM     24  C   UNL     1      -1.438  10.072  18.204  0.00  0.00    +0.000 A 
ENDBRANCH  18  19
ENDBRANCH  15  17
ENDBRANCH   1  15
TORSDOF 4
ENDMDL
MODEL 5
REMARK VINA RESULT:      -7.7      6.781      9.583
REMARK  Name = 
REMARK  5 active torsions:
REMARK  status: ('A' for Active; 'I' for Inactive)
REMARK    1  A    between atoms: C_1  and  C_2
REMARK    2  A    between atoms: C_2  and  C_10
REMARK    3  A    between atoms: C_3  and  C_4
REMARK    4  A    between atoms: C_10  and  N_11
REMARK    5  A    between atoms: C_14  and  C_15
REMARK                            x       y       z     vdW  Elec       q    Type
REMARK                         _______ _______ _______ _____ _____    ______ ____
ROOT
ATOM      1  N   UNL     1       1.231   9.108  18.863  0.00  0.00    +0.000 NA
ATOM      2  C   UNL     1       1.496   9.010  20.318  0.00  0.00    +0.000 C 
ATOM      3  C   UNL     1       0.163   9.030  21.058  0.00  0.00    +0.000 C 
ATOM      4  C   UNL     1      -0.674  10.279  20.753  0.00  0.00    +0.000 C 
ATOM      5  C   UNL     1      -0.771  10.435  19.231  0.00  0.00    +0.000 C 
ATOM      6  C   UNL     1       0.642  10.435  18.613  0.00  0.00    +0.000 C 
ENDROOT
BRANCH   4   7
ATOM      7  C   UNL     1      -0.114  11.588  21.342  0.00  0.00    +0.000 C 
ATOM      8  O   UNL     1       1.102  11.778  21.414  0.00  0.00    +0.000 OA
ATOM      9  N   UNL     1      -1.019  12.601  21.645  0.00  0.00    +0.000 N 
ATOM     10  C   UNL     1      -0.515  13.958  21.885  0.00  0.00    +0.000 C 
ATOM     11  C   UNL     1      -0.837  14.430  23.298  0.00  0.00    +0.000 C 
ATOM     12  C   UNL     1      -2.329  14.291  23.591  0.00  0.00    +0.000 C 
ATOM     13  C   UNL     1      -2.793  12.860  23.335  0.00  0.00    +0.000 C 
ATOM     14  C   UNL     1      -2.446  12.410  21.918  0.00  0.00    +0.000 C 
ENDBRANCH   4   7
BRANCH   1  15
ATOM     15  C   UNL     1       2.425   8.660  18.129  0.00  0.00    +0.000 C 
BRANCH  15  17
ATOM     16  C   UNL     1       4.174   6.986  17.369  0.00  0.00    +0.000 C 
ATOM     17  C   UNL     1       2.862   7.183  18.120  0.00  0.00    +0.000 C 
ATOM     18  C   UNL     1       2.117   6.215  18.712  0.00  0.00    +0.000 C 
BRANCH  18  19
ATOM     19  C   UNL     1       2.073   4.741  18.641  0.00  0.00    +0.000 A 
ATOM     20  C   UNL     1       2.603   4.000  17.590  0.00  0.00    +0.000 A 
ATOM     21  C   UNL     1       2.476   2.610  17.567  0.00  0.00    +0.000 A 
ATOM     22  C   UNL     1       1.856   1.931  18.604  0.00  0.00    +0.000 A 
ATOM     23  C   UNL     1       1.340   2.644  19.680  0.00  0.00    +0.000 A 
ATOM     24  C   UNL     1       1.426   4.044  19.688  0.00  0.00    +0.000 A 
ENDBRANCH  18  19
ENDBRANCH  15  17
ENDBRANCH   1  15
TORSDOF 4
ENDMDL
MODEL 6
REMARK VINA RESULT:      -7.6      1.243      1.959
REMARK  Name = 
REMARK  5 active torsions:
REMARK  status: ('A' for Active; 'I' for Inactive)
REMARK    1  A    between atoms: C_1  and  C_2
REMARK    2  A    between atoms: C_2  and  C_10
REMARK    3  A    between atoms: C_3  and  C_4
REMARK    4  A    between atoms: C_10  and  N_11
REMARK    5  A    between atoms: C_14  and  C_15
REMARK                            x       y       z     vdW  Elec       q    Type
REMARK                         _______ _______ _______ _____ _____    ______ ____
ROOT
ATOM      1  N   UNL     1       7.196   6.583  17.720  0.00  0.00    +0.000 NA
ATOM      2  C   UNL     1       6.810   5.318  18.391  0.00  0.00    +0.000 C 
ATOM      3  C   UNL     1       6.174   4.394  17.359  0.00  0.00    +0.000 C 
ATOM      4  C   UNL     1       4.959   5.018  16.662  0.00  0.00    +0.000 C 
ATOM      5  C   UNL     1       5.361   6.402  16.138  0.00  0.00    +0.000 C 
ATOM      6  C   UNL     1       5.953   7.245  17.285  0.00  0.00    +0.000 C 
ENDROOT
BRANCH   4   7
ATOM      7  C   UNL     1       3.716   5.179  17.557  0.00  0.00    +0.000 C 
ATOM      8  O   UNL     1       3.419   6.277  18.033  0.00  0.00    +0.000 OA
ATOM      9  N   UNL     1       2.863   4.087  17.685  0.00  0.00    +0.000 N 
ATOM     10  C   UNL     1       1.520   4.291  18.239  0.00  0.00    +0.000 C 
ATOM     11  C   UNL     1       1.323   3.499  19.527  0.00  0.00    +0.000 C 
ATOM     12  C   UNL     1       1.658   2.024  19.313  0.00  0.00    +0.000 C 
ATOM     13  C   UNL     1       3.066   1.873  18.746  0.00  0.00    +0.000 C 
ATOM     14  C   UNL     1       3.239   2.687  17.466  0.00  0.00    +0.000 C 
ENDBRANCH   4   7
BRANCH   1  15
ATOM     15  C   UNL     1       8.174   7.290  18.560  0.00  0.00    +0.000 C 
BRANCH  15  17
ATOM     16  C   UNL     1       7.558   9.419  17.326  0.00  0.00    +0.000 C 
ATOM     17  C   UNL     1       8.369   8.816  18.466  0.00  0.00    +0.000 C 
ATOM     18  C   UNL     1       9.191   9.484  19.314  0.00  0.00    +0.000 C 
BRANCH  18  19
ATOM     19  C   UNL     1       9.820  10.820  19.325  0.00  0.00    +0.000 A 
ATOM     20  C   UNL     1      10.447  11.388  18.221  0.00  0.00    +0.000 A 
ATOM     21  C   UNL     1      11.067  12.634  18.322  0.00  0.00    +0.000 A 
ATOM     22  C   UNL     1      11.041  13.353  19.507  0.00  0.00    +0.000 A 
ATOM     23  C   UNL     1      10.398  12.821  20.619  0.00  0.00    +0.000 A 
ATOM     24  C   UNL     1       9.811  11.549  20.536  0.00  0.00    +0.000 A 
ENDBRANCH  18  19
ENDBRANCH  15  17
ENDBRANCH   1  15
TORSDOF 4
ENDMDL
MODEL 7
REMARK VINA RESULT:      -7.6      5.866      8.728
REMARK  Name = 
REMARK  5 active torsions:
REMARK  status: ('A' for Active; 'I' for Inactive)
REMARK    1  A    between atoms: C_1  and  C_2
REMARK    2  A    between atoms: C_2  and  C_10
REMARK    3  A    between atoms: C_3  and  C_4
REMARK    4  A    between atoms: C_10  and  N_11
REMARK    5  A    between atoms: C_14  and  C_15
REMARK                            x       y       z     vdW  Elec       q    Type
REMARK                         _______ _______ _______ _____ _____    ______ ____
ROOT
ATOM      1  N   UNL     1       1.469   8.044  19.575  0.00  0.00    +0.000 NA
ATOM      2  C   UNL     1       1.149   8.508  20.946  0.00  0.00    +0.000 C 
ATOM      3  C   UNL     1      -0.131   9.335  20.893  0.00  0.00    +0.000 C 
ATOM      4  C   UNL     1      -0.034  10.530  19.937  0.00  0.00    +0.000 C 
ATOM      5  C   UNL     1       0.471  10.024  18.582  0.00  0.00    +0.000 C 
ATOM      6  C   UNL     1       1.784   9.238  18.771  0.00  0.00    +0.000 C 
ENDROOT
BRANCH   4   7
ATOM      7  C   UNL     1       0.898  11.660  20.413  0.00  0.00    +0.000 C 
ATOM      8  O   UNL     1       1.547  11.546  21.456  0.00  0.00    +0.000 OA
ATOM      9  N   UNL     1       1.099  12.739  19.557  0.00  0.00    +0.000 N 
ATOM     10  C   UNL     1       2.215  13.655  19.814  0.00  0.00    +0.000 C 
ATOM     11  C   UNL     1       1.723  15.072  20.085  0.00  0.00    +0.000 C 
ATOM     12  C   UNL     1       0.808  15.553  18.960  0.00  0.00    +0.000 C 
ATOM     13  C   UNL     1      -0.338  14.569  18.745  0.00  0.00    +0.000 C 
ATOM     14  C   UNL     1       0.185  13.156  18.491  0.00  0.00    +0.000 C 
ENDBRANCH   4   7
BRANCH   1  15
ATOM     15  C   UNL     1       2.414   6.920  19.660  0.00  0.00    +0.000 C 
BRANCH  15  17
ATOM     16  C   UNL     1       1.768   5.024  18.101  0.00  0.00    +0.000 C 
ATOM     17  C   UNL     1       2.804   6.096  18.417  0.00  0.00    +0.000 C 
ATOM     18  C   UNL     1       3.955   6.331  17.738  0.00  0.00    +0.000 C 
BRANCH  18  19
ATOM     19  C   UNL     1       4.755   5.585  16.746  0.00  0.00    +0.000 A 
ATOM     20  C   UNL     1       5.254   6.146  15.575  0.00  0.00    +0.000 A 
ATOM     21  C   UNL     1       5.956   5.364  14.657  0.00  0.00    +0.000 A 
ATOM     22  C   UNL     1       6.209   4.023  14.905  0.00  0.00    +0.000 A 
ATOM     23  C   UNL     1       5.744   3.443  16.080  0.00  0.00    +0.000 A 
ATOM     24  C   UNL     1       4.999   4.213  16.985  0.00  0.00    +0.000 A 
ENDBRANCH  18  19
ENDBRANCH  15  17
ENDBRANCH   1  15
TORSDOF 4
ENDMDL
MODEL 8
REMARK VINA RESULT:      -7.6      1.444      2.298
REMARK  Name = 
REMARK  5 active torsions:
REMARK  status: ('A' for Active; 'I' for Inactive)
REMARK    1  A    between atoms: C_1  and  C_2
REMARK    2  A    between atoms: C_2  and  C_10
REMARK    3  A    between atoms: C_3  and  C_4
REMARK    4  A    between atoms: C_10  and  N_11
REMARK    5  A    between atoms: C_14  and  C_15
REMARK                            x       y       z     vdW  Elec       q    Type
REMARK                         _______ _______ _______ _____ _____    ______ ____
ROOT
ATOM      1  N   UNL     1       6.818   7.136  17.487  0.00  0.00    +0.000 NA
ATOM      2  C   UNL     1       7.144   6.062  16.518  0.00  0.00    +0.000 C 
ATOM      3  C   UNL     1       5.952   5.869  15.587  0.00  0.00    +0.000 C 
ATOM      4  C   UNL     1       4.654   5.537  16.333  0.00  0.00    +0.000 C 
ATOM      5  C   UNL     1       4.454   6.578  17.440  0.00  0.00    +0.000 C 
ATOM      6  C   UNL     1       5.712   6.647  18.329  0.00  0.00    +0.000 C 
ENDROOT
BRANCH   4   7
ATOM      7  C   UNL     1       4.620   4.135  16.970  0.00  0.00    +0.000 C 
ATOM      8  O   UNL     1       5.486   3.299  16.703  0.00  0.00    +0.000 OA
ATOM      9  N   UNL     1       3.675   3.898  17.964  0.00  0.00    +0.000 N 
ATOM     10  C   UNL     1       3.821   2.714  18.819  0.00  0.00    +0.000 C 
ATOM     11  C   UNL     1       2.634   1.769  18.671  0.00  0.00    +0.000 C 
ATOM     12  C   UNL     1       1.319   2.509  18.903  0.00  0.00    +0.000 C 
ATOM     13  C   UNL     1       1.218   3.721  17.981  0.00  0.00    +0.000 C 
ATOM     14  C   UNL     1       2.426   4.642  18.142  0.00  0.00    +0.000 C 
ENDBRANCH   4   7
BRANCH   1  15
ATOM     15  C   UNL     1       8.066   7.629  18.090  0.00  0.00    +0.000 C 
BRANCH  15  17
ATOM     16  C   UNL     1       7.486   9.978  17.327  0.00  0.00    +0.000 C 
ATOM     17  C   UNL     1       8.338   9.135  18.267  0.00  0.00    +0.000 C 
ATOM     18  C   UNL     1       9.254   9.594  19.158  0.00  0.00    +0.000 C 
BRANCH  18  19
ATOM     19  C   UNL     1       9.956  10.876  19.368  0.00  0.00    +0.000 A 
ATOM     20  C   UNL     1       9.977  11.558  20.580  0.00  0.00    +0.000 A 
ATOM     21  C   UNL     1      10.617  12.793  20.689  0.00  0.00    +0.000 A 
ATOM     22  C   UNL     1      11.281  13.352  19.608  0.00  0.00    +0.000 A 
ATOM     23  C   UNL     1      11.299  12.680  18.391  0.00  0.00    +0.000 A 
ATOM     24  C   UNL     1      10.620  11.460  18.264  0.00  0.00    +0.000 A 
ENDBRANCH  18  19
ENDBRANCH  15  17
ENDBRANCH   1  15
TORSDOF 4
ENDMDL
MODEL 9
REMARK VINA RESULT:      -7.6      1.347      1.774
REMARK  Name = 
REMARK  5 active torsions:
REMARK  status: ('A' for Active; 'I' for Inactive)
REMARK    1  A    between atoms: C_1  and  C_2
REMARK    2  A    between atoms: C_2  and  C_10
REMARK    3  A    between atoms: C_3  and  C_4
REMARK    4  A    between atoms: C_10  and  N_11
REMARK    5  A    between atoms: C_14  and  C_15
REMARK                            x       y       z     vdW  Elec       q    Type
REMARK                         _______ _______ _______ _____ _____    ______ ____
ROOT
ATOM      1  N   UNL     1       6.445   7.184  16.932  0.00  0.00    +0.000 NA
ATOM      2  C   UNL     1       7.303   6.269  17.724  0.00  0.00    +0.000 C 
ATOM      3  C   UNL     1       7.174   4.863  17.149  0.00  0.00    +0.000 C 
ATOM      4  C   UNL     1       5.729   4.352  17.129  0.00  0.00    +0.000 C 
ATOM      5  C   UNL     1       4.851   5.413  16.456  0.00  0.00    +0.000 C 
ATOM      6  C   UNL     1       5.047   6.775  17.153  0.00  0.00    +0.000 C 
ENDROOT
BRANCH   4   7
ATOM      7  C   UNL     1       5.137   4.040  18.516  0.00  0.00    +0.000 C 
ATOM      8  O   UNL     1       5.840   4.093  19.528  0.00  0.00    +0.000 OA
ATOM      9  N   UNL     1       3.761   3.849  18.607  0.00  0.00    +0.000 N 
ATOM     10  C   UNL     1       3.122   3.885  19.927  0.00  0.00    +0.000 C 
ATOM     11  C   UNL     1       2.458   2.553  20.261  0.00  0.00    +0.000 C 
ATOM     12  C   UNL     1       1.500   2.131  19.149  0.00  0.00    +0.000 C 
ATOM     13  C   UNL     1       2.221   2.102  17.805  0.00  0.00    +0.000 C 
ATOM     14  C   UNL     1       2.888   3.443  17.504  0.00  0.00    +0.000 C 
ENDBRANCH   4   7
BRANCH   1  15
ATOM     15  C   UNL     1       6.874   8.570  17.175  0.00  0.00    +0.000 C 
BRANCH  15  17
ATOM     16  C   UNL     1       8.529   7.734  18.907  0.00  0.00    +0.000 C 
ATOM     17  C   UNL     1       8.134   8.894  18.001  0.00  0.00    +0.000 C 
ATOM     18  C   UNL     1       8.762  10.093  17.903  0.00  0.00    +0.000 C 
BRANCH  18  19
ATOM     19  C   UNL     1       9.755  10.822  18.718  0.00  0.00    +0.000 A 
ATOM     20  C   UNL     1       9.592  11.099  20.071  0.00  0.00    +0.000 A 
ATOM     21  C   UNL     1      10.550  11.841  20.764  0.00  0.00    +0.000 A 
ATOM     22  C   UNL     1      11.702  12.286  20.135  0.00  0.00    +0.000 A 
ATOM     23  C   UNL     1      11.903  12.002  18.789  0.00  0.00    +0.000 A 
ATOM     24  C   UNL     1      10.923  11.295  18.076  0.00  0.00    +0.000 A 
ENDBRANCH  18  19
ENDBRANCH  15  17
ENDBRANCH   1  15
TORSDOF 4
ENDMDL
