MODEL 1
REMARK VINA RESULT:      -6.1      0.000      0.000
REMARK  Name = 
REMARK  16 active torsions:
REMARK  status: ('A' for Active; 'I' for Inactive)
REMARK    1  A    between atoms: C_1  and  O_2
REMARK    2  A    between atoms: O_2  and  C_3
REMARK    3  A    between atoms: C_4  and  O_5
REMARK    4  A    between atoms: O_5  and  C_6
REMARK    5  A    between atoms: C_7  and  O_8
REMARK    6  A    between atoms: O_8  and  C_9
REMARK    7  A    between atoms: C_9  and  C_11
REMARK    8  A    between atoms: C_11  and  C_12
REMARK    9  A    between atoms: C_11  and  C_13
REMARK   10  A    between atoms: C_16  and  C_17
REMARK   11  A    between atoms: C_18  and  C_19
REMARK   12  A    between atoms: C_22  and  O_23
REMARK   13  A    between atoms: O_23  and  C_24
REMARK   14  A    between atoms: C_24  and  C_26
REMARK   15  A    between atoms: C_26  and  C_27
REMARK   16  A    between atoms: C_26  and  C_28
REMARK                            x       y       z     vdW  Elec       q    Type
REMARK                         _______ _______ _______ _____ _____    ______ ____
ROOT
ATOM      1  C   UNL     1       3.628   4.513  17.832  0.00  0.00    +0.000 A 
ATOM      2  C   UNL     1       4.544   5.143  16.998  0.00  0.00    +0.000 A 
ATOM      3  C   UNL     1       4.645   6.543  17.007  0.00  0.00    +0.000 A 
ATOM      4  C   UNL     1       3.646   7.354  17.604  0.00  0.00    +0.000 A 
ATOM      5  C   UNL     1       3.627   8.766  17.477  0.00  0.00    +0.000 A 
ATOM      6  C   UNL     1       2.536   9.549  17.896  0.00  0.00    +0.000 A 
ATOM      7  C   UNL     1       2.550  11.032  17.625  0.00  0.00    +0.000 C 
ATOM      8  C   UNL     1       1.438   8.914  18.495  0.00  0.00    +0.000 A 
ATOM      9  C   UNL     1       0.171   9.643  18.859  0.00  0.00    +0.000 C 
ATOM     10  C   UNL     1       1.497   7.522  18.723  0.00  0.00    +0.000 A 
ATOM     11  C   UNL     1       2.580   6.717  18.284  0.00  0.00    +0.000 A 
ATOM     12  C   UNL     1       2.628   5.299  18.437  0.00  0.00    +0.000 A 
ENDROOT
BRANCH   1  14
ATOM     13  C   UNL     1       4.368   2.627  19.046  0.00  0.00    +0.000 C 
ATOM     14  O   UNL     1       3.573   3.151  17.979  0.00  0.00    +0.000 OA
ENDBRANCH   1  14
BRANCH   2  15
ATOM     15  O   UNL     1       5.346   4.442  16.127  0.00  0.00    +0.000 OA
ATOM     16  C   UNL     1       4.825   4.423  14.796  0.00  0.00    +0.000 C 
ENDBRANCH   2  15
BRANCH   3  17
ATOM     17  O   UNL     1       5.652   7.153  16.224  0.00  0.00    +0.000 OA
BRANCH  17  18
ATOM     18  C   UNL     1       6.976   6.841  16.570  0.00  0.00    +0.000 C 
ATOM     19  O   UNL     1       7.768   6.193  15.905  0.00  0.00    +0.000 OA
BRANCH  18  20
ATOM     20  C   UNL     1       7.262   7.408  17.954  0.00  0.00    +0.000 C 
ATOM     21  C   UNL     1       7.923   6.325  18.793  0.00  0.00    +0.000 C 
ATOM     22  C   UNL     1       8.139   8.657  17.868  0.00  0.00    +0.000 C 
ENDBRANCH  18  20
ENDBRANCH  17  18
ENDBRANCH   3  17
BRANCH  12  23
ATOM     23  O   UNL     1       1.499   4.643  19.005  0.00  0.00    +0.000 OA
BRANCH  23  24
ATOM     24  C   UNL     1       1.445   4.472  20.392  0.00  0.00    +0.000 C 
ATOM     25  O   UNL     1       1.829   5.282  21.229  0.00  0.00    +0.000 OA
BRANCH  24  26
ATOM     26  C   UNL     1       0.850   3.103  20.688  0.00  0.00    +0.000 C 
ATOM     27  C   UNL     1       0.666   2.329  19.383  0.00  0.00    +0.000 C 
ATOM     28  C   UNL     1       1.726   2.303  21.649  0.00  0.00    +0.000 C 
ENDBRANCH  24  26
ENDBRANCH  23  24
ENDBRANCH  12  23
TORSDOF 8
ENDMDL
MODEL 2
REMARK VINA RESULT:      -6.1      6.807     10.404
REMARK  Name = 
REMARK  16 active torsions:
REMARK  status: ('A' for Active; 'I' for Inactive)
REMARK    1  A    between atoms: C_1  and  O_2
REMARK    2  A    between atoms: O_2  and  C_3
REMARK    3  A    between atoms: C_4  and  O_5
REMARK    4  A    between atoms: O_5  and  C_6
REMARK    5  A    between atoms: C_7  and  O_8
REMARK    6  A    between atoms: O_8  and  C_9
REMARK    7  A    between atoms: C_9  and  C_11
REMARK    8  A    between atoms: C_11  and  C_12
REMARK    9  A    between atoms: C_11  and  C_13
REMARK   10  A    between atoms: C_16  and  C_17
REMARK   11  A    between atoms: C_18  and  C_19
REMARK   12  A    between atoms: C_22  and  O_23
REMARK   13  A    between atoms: O_23  and  C_24
REMARK   14  A    between atoms: C_24  and  C_26
REMARK   15  A    between atoms: C_26  and  C_27
REMARK   16  A    between atoms: C_26  and  C_28
REMARK                            x       y       z     vdW  Elec       q    Type
REMARK                         _______ _______ _______ _____ _____    ______ ____
ROOT
ATOM      1  C   UNL     1      -2.250  13.119  22.659  0.00  0.00    +0.000 A 
ATOM      2  C   UNL     1      -1.421  12.368  21.832  0.00  0.00    +0.000 A 
ATOM      3  C   UNL     1      -1.803  12.121  20.505  0.00  0.00    +0.000 A 
ATOM      4  C   UNL     1      -3.131  12.345  20.061  0.00  0.00    +0.000 A 
ATOM      5  C   UNL     1      -3.592  11.942  18.782  0.00  0.00    +0.000 A 
ATOM      6  C   UNL     1      -4.950  11.982  18.419  0.00  0.00    +0.000 A 
ATOM      7  C   UNL     1      -5.368  11.432  17.079  0.00  0.00    +0.000 C 
ATOM      8  C   UNL     1      -5.883  12.472  19.345  0.00  0.00    +0.000 A 
ATOM      9  C   UNL     1      -7.370  12.437  19.104  0.00  0.00    +0.000 C 
ATOM     10  C   UNL     1      -5.418  12.977  20.579  0.00  0.00    +0.000 A 
ATOM     11  C   UNL     1      -4.054  12.920  20.968  0.00  0.00    +0.000 A 
ATOM     12  C   UNL     1      -3.572  13.355  22.238  0.00  0.00    +0.000 A 
ENDROOT
BRANCH   1  14
ATOM     13  C   UNL     1      -1.233  14.793  23.980  0.00  0.00    +0.000 C 
ATOM     14  O   UNL     1      -1.878  13.518  23.917  0.00  0.00    +0.000 OA
ENDBRANCH   1  14
BRANCH   2  15
ATOM     15  O   UNL     1      -0.240  11.823  22.280  0.00  0.00    +0.000 OA
ATOM     16  C   UNL     1      -0.414  10.515  22.831  0.00  0.00    +0.000 C 
ENDBRANCH   2  15
BRANCH   3  17
ATOM     17  O   UNL     1      -0.897  11.441  19.657  0.00  0.00    +0.000 OA
BRANCH  17  18
ATOM     18  C   UNL     1      -0.016  12.248  18.921  0.00  0.00    +0.000 C 
ATOM     19  O   UNL     1      -0.307  13.247  18.283  0.00  0.00    +0.000 OA
BRANCH  18  20
ATOM     20  C   UNL     1       1.379  11.645  19.005  0.00  0.00    +0.000 C 
ATOM     21  C   UNL     1       1.326  10.225  18.459  0.00  0.00    +0.000 C 
ATOM     22  C   UNL     1       2.395  12.495  18.243  0.00  0.00    +0.000 C 
ENDBRANCH  18  20
ENDBRANCH  17  18
ENDBRANCH   3  17
BRANCH  12  23
ATOM     23  O   UNL     1      -4.519  13.814  23.197  0.00  0.00    +0.000 OA
BRANCH  23  24
ATOM     24  C   UNL     1      -5.183  12.875  23.992  0.00  0.00    +0.000 C 
ATOM     25  O   UNL     1      -4.679  11.875  24.492  0.00  0.00    +0.000 OA
BRANCH  24  26
ATOM     26  C   UNL     1      -6.643  13.288  24.113  0.00  0.00    +0.000 C 
ATOM     27  C   UNL     1      -6.826  14.699  23.556  0.00  0.00    +0.000 C 
ATOM     28  C   UNL     1      -7.567  12.316  23.384  0.00  0.00    +0.000 C 
ENDBRANCH  24  26
ENDBRANCH  23  24
ENDBRANCH  12  23
TORSDOF 8
ENDMDL
MODEL 3
REMARK VINA RESULT:      -5.9      7.200     10.174
REMARK  Name = 
REMARK  16 active torsions:
REMARK  status: ('A' for Active; 'I' for Inactive)
REMARK    1  A    between atoms: C_1  and  O_2
REMARK    2  A    between atoms: O_2  and  C_3
REMARK    3  A    between atoms: C_4  and  O_5
REMARK    4  A    between atoms: O_5  and  C_6
REMARK    5  A    between atoms: C_7  and  O_8
REMARK    6  A    between atoms: O_8  and  C_9
REMARK    7  A    between atoms: C_9  and  C_11
REMARK    8  A    between atoms: C_11  and  C_12
REMARK    9  A    between atoms: C_11  and  C_13
REMARK   10  A    between atoms: C_16  and  C_17
REMARK   11  A    between atoms: C_18  and  C_19
REMARK   12  A    between atoms: C_22  and  O_23
REMARK   13  A    between atoms: O_23  and  C_24
REMARK   14  A    between atoms: C_24  and  C_26
REMARK   15  A    between atoms: C_26  and  C_27
REMARK   16  A    between atoms: C_26  and  C_28
REMARK                            x       y       z     vdW  Elec       q    Type
REMARK                         _______ _______ _______ _____ _____    ______ ____
ROOT
ATOM      1  C   UNL     1      -2.610  12.528  22.486  0.00  0.00    +0.000 A 
ATOM      2  C   UNL     1      -1.407  11.965  22.072  0.00  0.00    +0.000 A 
ATOM      3  C   UNL     1      -1.150  11.806  20.702  0.00  0.00    +0.000 A 
ATOM      4  C   UNL     1      -2.182  11.913  19.736  0.00  0.00    +0.000 A 
ATOM      5  C   UNL     1      -1.992  11.586  18.369  0.00  0.00    +0.000 A 
ATOM      6  C   UNL     1      -3.058  11.500  17.455  0.00  0.00    +0.000 A 
ATOM      7  C   UNL     1      -2.782  11.039  16.047  0.00  0.00    +0.000 C 
ATOM      8  C   UNL     1      -4.356  11.784  17.904  0.00  0.00    +0.000 A 
ATOM      9  C   UNL     1      -5.578  11.597  17.041  0.00  0.00    +0.000 C 
ATOM     10  C   UNL     1      -4.539  12.217  19.235  0.00  0.00    +0.000 A 
ATOM     11  C   UNL     1      -3.477  12.283  20.174  0.00  0.00    +0.000 A 
ATOM     12  C   UNL     1      -3.649  12.646  21.542  0.00  0.00    +0.000 A 
ENDROOT
BRANCH   1  14
ATOM     13  C   UNL     1      -2.491  14.165  24.185  0.00  0.00    +0.000 C 
ATOM     14  O   UNL     1      -2.870  12.842  23.794  0.00  0.00    +0.000 OA
ENDBRANCH   1  14
BRANCH   2  15
ATOM     15  O   UNL     1      -0.460  11.522  22.966  0.00  0.00    +0.000 OA
ATOM     16  C   UNL     1      -0.586  10.126  23.250  0.00  0.00    +0.000 C 
ENDBRANCH   2  15
BRANCH   3  17
ATOM     17  O   UNL     1       0.120  11.324  20.305  0.00  0.00    +0.000 OA
BRANCH  17  18
ATOM     18  C   UNL     1       1.141  12.281  20.212  0.00  0.00    +0.000 C 
ATOM     19  O   UNL     1       1.865  12.663  21.118  0.00  0.00    +0.000 OA
BRANCH  18  20
ATOM     20  C   UNL     1       1.177  12.816  18.787  0.00  0.00    +0.000 C 
ATOM     21  C   UNL     1       0.774  14.283  18.810  0.00  0.00    +0.000 C 
ATOM     22  C   UNL     1       2.559  12.630  18.162  0.00  0.00    +0.000 C 
ENDBRANCH  18  20
ENDBRANCH  17  18
ENDBRANCH   3  17
BRANCH  12  23
ATOM     23  O   UNL     1      -4.969  12.893  22.014  0.00  0.00    +0.000 OA
BRANCH  23  24
ATOM     24  C   UNL     1      -5.484  14.191  21.930  0.00  0.00    +0.000 C 
ATOM     25  O   UNL     1      -4.831  15.208  21.724  0.00  0.00    +0.000 OA
BRANCH  24  26
ATOM     26  C   UNL     1      -6.988  14.132  22.159  0.00  0.00    +0.000 C 
ATOM     27  C   UNL     1      -7.644  13.308  21.051  0.00  0.00    +0.000 C 
ATOM     28  C   UNL     1      -7.328  13.537  23.522  0.00  0.00    +0.000 C 
ENDBRANCH  24  26
ENDBRANCH  23  24
ENDBRANCH  12  23
TORSDOF 8
ENDMDL
MODEL 4
REMARK VINA RESULT:      -5.9      6.280     10.925
REMARK  Name = 
REMARK  16 active torsions:
REMARK  status: ('A' for Active; 'I' for Inactive)
REMARK    1  A    between atoms: C_1  and  O_2
REMARK    2  A    between atoms: O_2  and  C_3
REMARK    3  A    between atoms: C_4  and  O_5
REMARK    4  A    between atoms: O_5  and  C_6
REMARK    5  A    between atoms: C_7  and  O_8
REMARK    6  A    between atoms: O_8  and  C_9
REMARK    7  A    between atoms: C_9  and  C_11
REMARK    8  A    between atoms: C_11  and  C_12
REMARK    9  A    between atoms: C_11  and  C_13
REMARK   10  A    between atoms: C_16  and  C_17
REMARK   11  A    between atoms: C_18  and  C_19
REMARK   12  A    between atoms: C_22  and  O_23
REMARK   13  A    between atoms: O_23  and  C_24
REMARK   14  A    between atoms: C_24  and  C_26
REMARK   15  A    between atoms: C_26  and  C_27
REMARK   16  A    between atoms: C_26  and  C_28
REMARK                            x       y       z     vdW  Elec       q    Type
REMARK                         _______ _______ _______ _____ _____    ______ ____
ROOT
ATOM      1  C   UNL     1      -1.009  12.689  21.338  0.00  0.00    +0.000 A 
ATOM      2  C   UNL     1      -2.113  13.364  21.847  0.00  0.00    +0.000 A 
ATOM      3  C   UNL     1      -3.385  13.125  21.304  0.00  0.00    +0.000 A 
ATOM      4  C   UNL     1      -3.548  12.455  20.064  0.00  0.00    +0.000 A 
ATOM      5  C   UNL     1      -4.799  12.354  19.406  0.00  0.00    +0.000 A 
ATOM      6  C   UNL     1      -4.926  11.869  18.091  0.00  0.00    +0.000 A 
ATOM      7  C   UNL     1      -6.278  11.897  17.426  0.00  0.00    +0.000 C 
ATOM      8  C   UNL     1      -3.775  11.437  17.417  0.00  0.00    +0.000 A 
ATOM      9  C   UNL     1      -3.784  11.023  15.967  0.00  0.00    +0.000 C 
ATOM     10  C   UNL     1      -2.542  11.432  18.105  0.00  0.00    +0.000 A 
ATOM     11  C   UNL     1      -2.396  11.941  19.421  0.00  0.00    +0.000 A 
ATOM     12  C   UNL     1      -1.148  12.016  20.109  0.00  0.00    +0.000 A 
ENDROOT
BRANCH   1  14
ATOM     13  C   UNL     1       1.079  13.795  21.383  0.00  0.00    +0.000 C 
ATOM     14  O   UNL     1       0.235  12.766  21.909  0.00  0.00    +0.000 OA
ENDBRANCH   1  14
BRANCH   2  15
ATOM     15  O   UNL     1      -2.002  14.295  22.854  0.00  0.00    +0.000 OA
ATOM     16  C   UNL     1      -1.858  15.627  22.355  0.00  0.00    +0.000 C 
ENDBRANCH   2  15
BRANCH   3  17
ATOM     17  O   UNL     1      -4.503  13.748  21.905  0.00  0.00    +0.000 OA
BRANCH  17  18
ATOM     18  C   UNL     1      -5.172  13.001  22.887  0.00  0.00    +0.000 C 
ATOM     19  O   UNL     1      -4.666  12.219  23.676  0.00  0.00    +0.000 OA
BRANCH  18  20
ATOM     20  C   UNL     1      -6.663  13.288  22.783  0.00  0.00    +0.000 C 
ATOM     21  C   UNL     1      -7.304  12.211  21.920  0.00  0.00    +0.000 C 
ATOM     22  C   UNL     1      -7.311  13.350  24.165  0.00  0.00    +0.000 C 
ENDBRANCH  18  20
ENDBRANCH  17  18
ENDBRANCH   3  17
BRANCH  12  23
ATOM     23  O   UNL     1       0.030  11.618  19.415  0.00  0.00    +0.000 OA
BRANCH  23  24
ATOM     24  C   UNL     1       0.425  10.278  19.469  0.00  0.00    +0.000 C 
ATOM     25  O   UNL     1       0.193   9.500  20.388  0.00  0.00    +0.000 OA
BRANCH  24  26
ATOM     26  C   UNL     1       1.210   9.953  18.206  0.00  0.00    +0.000 C 
ATOM     27  C   UNL     1       2.243  11.050  17.946  0.00  0.00    +0.000 C 
ATOM     28  C   UNL     1       1.904   8.597  18.306  0.00  0.00    +0.000 C 
ENDBRANCH  24  26
ENDBRANCH  23  24
ENDBRANCH  12  23
TORSDOF 8
ENDMDL
MODEL 5
REMARK VINA RESULT:      -5.9      7.050     11.725
REMARK  Name = 
REMARK  16 active torsions:
REMARK  status: ('A' for Active; 'I' for Inactive)
REMARK    1  A    between atoms: C_1  and  O_2
REMARK    2  A    between atoms: O_2  and  C_3
REMARK    3  A    between atoms: C_4  and  O_5
REMARK    4  A    between atoms: O_5  and  C_6
REMARK    5  A    between atoms: C_7  and  O_8
REMARK    6  A    between atoms: O_8  and  C_9
REMARK    7  A    between atoms: C_9  and  C_11
REMARK    8  A    between atoms: C_11  and  C_12
REMARK    9  A    between atoms: C_11  and  C_13
REMARK   10  A    between atoms: C_16  and  C_17
REMARK   11  A    between atoms: C_18  and  C_19
REMARK   12  A    between atoms: C_22  and  O_23
REMARK   13  A    between atoms: O_23  and  C_24
REMARK   14  A    between atoms: C_24  and  C_26
REMARK   15  A    between atoms: C_26  and  C_27
REMARK   16  A    between atoms: C_26  and  C_28
REMARK                            x       y       z     vdW  Elec       q    Type
REMARK                         _______ _______ _______ _____ _____    ______ ____
ROOT
ATOM      1  C   UNL     1      -1.646  13.580  21.967  0.00  0.00    +0.000 A 
ATOM      2  C   UNL     1      -2.829  14.059  22.520  0.00  0.00    +0.000 A 
ATOM      3  C   UNL     1      -4.060  13.555  22.071  0.00  0.00    +0.000 A 
ATOM      4  C   UNL     1      -4.161  12.806  20.871  0.00  0.00    +0.000 A 
ATOM      5  C   UNL     1      -5.405  12.436  20.300  0.00  0.00    +0.000 A 
ATOM      6  C   UNL     1      -5.510  11.871  19.016  0.00  0.00    +0.000 A 
ATOM      7  C   UNL     1      -6.878  11.608  18.440  0.00  0.00    +0.000 C 
ATOM      8  C   UNL     1      -4.338  11.631  18.285  0.00  0.00    +0.000 A 
ATOM      9  C   UNL     1      -4.349  11.150  16.857  0.00  0.00    +0.000 C 
ATOM     10  C   UNL     1      -3.090  11.894  18.891  0.00  0.00    +0.000 A 
ATOM     11  C   UNL     1      -2.970  12.488  20.175  0.00  0.00    +0.000 A 
ATOM     12  C   UNL     1      -1.723  12.832  20.776  0.00  0.00    +0.000 A 
ENDROOT
BRANCH   1  14
ATOM     13  C   UNL     1       0.078  15.195  22.023  0.00  0.00    +0.000 C 
ATOM     14  O   UNL     1      -0.410  13.920  22.452  0.00  0.00    +0.000 OA
ENDBRANCH   1  14
BRANCH   2  15
ATOM     15  O   UNL     1      -2.843  15.043  23.481  0.00  0.00    +0.000 OA
ATOM     16  C   UNL     1      -2.575  14.534  24.790  0.00  0.00    +0.000 C 
ENDBRANCH   2  15
BRANCH   3  17
ATOM     17  O   UNL     1      -5.241  13.985  22.719  0.00  0.00    +0.000 OA
BRANCH  17  18
ATOM     18  C   UNL     1      -5.822  13.072  23.612  0.00  0.00    +0.000 C 
ATOM     19  O   UNL     1      -5.231  12.303  24.353  0.00  0.00    +0.000 OA
BRANCH  18  20
ATOM     20  C   UNL     1      -7.336  13.156  23.476  0.00  0.00    +0.000 C 
ATOM     21  C   UNL     1      -7.679  14.388  22.650  0.00  0.00    +0.000 C 
ATOM     22  C   UNL     1      -7.905  11.887  22.842  0.00  0.00    +0.000 C 
ENDBRANCH  18  20
ENDBRANCH  17  18
ENDBRANCH   3  17
BRANCH  12  23
ATOM     23  O   UNL     1      -0.532  12.630  20.023  0.00  0.00    +0.000 OA
BRANCH  23  24
ATOM     24  C   UNL     1       0.360  11.631  20.424  0.00  0.00    +0.000 C 
ATOM     25  O   UNL     1       1.405  11.809  21.041  0.00  0.00    +0.000 OA
BRANCH  24  26
ATOM     26  C   UNL     1      -0.173  10.286  19.948  0.00  0.00    +0.000 C 
ATOM     27  C   UNL     1       0.154  10.100  18.467  0.00  0.00    +0.000 C 
ATOM     28  C   UNL     1       0.406   9.131  20.759  0.00  0.00    +0.000 C 
ENDBRANCH  24  26
ENDBRANCH  23  24
ENDBRANCH  12  23
TORSDOF 8
ENDMDL
MODEL 6
REMARK VINA RESULT:      -5.8      6.000      9.745
REMARK  Name = 
REMARK  16 active torsions:
REMARK  status: ('A' for Active; 'I' for Inactive)
REMARK    1  A    between atoms: C_1  and  O_2
REMARK    2  A    between atoms: O_2  and  C_3
REMARK    3  A    between atoms: C_4  and  O_5
REMARK    4  A    between atoms: O_5  and  C_6
REMARK    5  A    between atoms: C_7  and  O_8
REMARK    6  A    between atoms: O_8  and  C_9
REMARK    7  A    between atoms: C_9  and  C_11
REMARK    8  A    between atoms: C_11  and  C_12
REMARK    9  A    between atoms: C_11  and  C_13
REMARK   10  A    between atoms: C_16  and  C_17
REMARK   11  A    between atoms: C_18  and  C_19
REMARK   12  A    between atoms: C_22  and  O_23
REMARK   13  A    between atoms: O_23  and  C_24
REMARK   14  A    between atoms: C_24  and  C_26
REMARK   15  A    between atoms: C_26  and  C_27
REMARK   16  A    between atoms: C_26  and  C_28
REMARK                            x       y       z     vdW  Elec       q    Type
REMARK                         _______ _______ _______ _____ _____    ______ ____
ROOT
ATOM      1  C   UNL     1      -2.289  12.475  22.234  0.00  0.00    +0.000 A 
ATOM      2  C   UNL     1      -1.101  11.918  21.777  0.00  0.00    +0.000 A 
ATOM      3  C   UNL     1      -0.895  11.753  20.398  0.00  0.00    +0.000 A 
ATOM      4  C   UNL     1      -1.965  11.850  19.472  0.00  0.00    +0.000 A 
ATOM      5  C   UNL     1      -1.825  11.517  18.101  0.00  0.00    +0.000 A 
ATOM      6  C   UNL     1      -2.926  11.421  17.230  0.00  0.00    +0.000 A 
ATOM      7  C   UNL     1      -2.701  10.955  15.814  0.00  0.00    +0.000 C 
ATOM      8  C   UNL     1      -4.207  11.700  17.726  0.00  0.00    +0.000 A 
ATOM      9  C   UNL     1      -5.460  11.501  16.912  0.00  0.00    +0.000 C 
ATOM     10  C   UNL     1      -4.341  12.138  19.062  0.00  0.00    +0.000 A 
ATOM     11  C   UNL     1      -3.243  12.215  19.958  0.00  0.00    +0.000 A 
ATOM     12  C   UNL     1      -3.364  12.583  21.331  0.00  0.00    +0.000 A 
ENDROOT
BRANCH   1  14
ATOM     13  C   UNL     1      -2.055  14.099  23.934  0.00  0.00    +0.000 C 
ATOM     14  O   UNL     1      -2.501  12.795  23.550  0.00  0.00    +0.000 OA
ENDBRANCH   1  14
BRANCH   2  15
ATOM     15  O   UNL     1      -0.117  11.484  22.635  0.00  0.00    +0.000 OA
ATOM     16  C   UNL     1      -0.438  10.234  23.251  0.00  0.00    +0.000 C 
ENDBRANCH   2  15
BRANCH   3  17
ATOM     17  O   UNL     1       0.361  11.277  19.955  0.00  0.00    +0.000 OA
BRANCH  17  18
ATOM     18  C   UNL     1       0.425   9.913  19.633  0.00  0.00    +0.000 C 
ATOM     19  O   UNL     1      -0.001   8.986  20.304  0.00  0.00    +0.000 OA
BRANCH  18  20
ATOM     20  C   UNL     1       1.165   9.761  18.311  0.00  0.00    +0.000 C 
ATOM     21  C   UNL     1       2.026  10.997  18.094  0.00  0.00    +0.000 C 
ATOM     22  C   UNL     1       2.008   8.487  18.294  0.00  0.00    +0.000 C 
ENDBRANCH  18  20
ENDBRANCH  17  18
ENDBRANCH   3  17
BRANCH  12  23
ATOM     23  O   UNL     1      -4.667  12.825  21.852  0.00  0.00    +0.000 OA
BRANCH  23  24
ATOM     24  C   UNL     1      -5.234  14.093  21.690  0.00  0.00    +0.000 C 
ATOM     25  O   UNL     1      -4.637  15.161  21.776  0.00  0.00    +0.000 OA
BRANCH  24  26
ATOM     26  C   UNL     1      -6.721  13.927  21.411  0.00  0.00    +0.000 C 
ATOM     27  C   UNL     1      -7.051  14.491  20.029  0.00  0.00    +0.000 C 
ATOM     28  C   UNL     1      -7.152  12.466  21.495  0.00  0.00    +0.000 C 
ENDBRANCH  24  26
ENDBRANCH  23  24
ENDBRANCH  12  23
TORSDOF 8
ENDMDL
MODEL 7
REMARK VINA RESULT:      -5.7      0.543      5.437
REMARK  Name = 
REMARK  16 active torsions:
REMARK  status: ('A' for Active; 'I' for Inactive)
REMARK    1  A    between atoms: C_1  and  O_2
REMARK    2  A    between atoms: O_2  and  C_3
REMARK    3  A    between atoms: C_4  and  O_5
REMARK    4  A    between atoms: O_5  and  C_6
REMARK    5  A    between atoms: C_7  and  O_8
REMARK    6  A    between atoms: O_8  and  C_9
REMARK    7  A    between atoms: C_9  and  C_11
REMARK    8  A    between atoms: C_11  and  C_12
REMARK    9  A    between atoms: C_11  and  C_13
REMARK   10  A    between atoms: C_16  and  C_17
REMARK   11  A    between atoms: C_18  and  C_19
REMARK   12  A    between atoms: C_22  and  O_23
REMARK   13  A    between atoms: O_23  and  C_24
REMARK   14  A    between atoms: C_24  and  C_26
REMARK   15  A    between atoms: C_26  and  C_27
REMARK   16  A    between atoms: C_26  and  C_28
REMARK                            x       y       z     vdW  Elec       q    Type
REMARK                         _______ _______ _______ _____ _____    ______ ____
ROOT
ATOM      1  C   UNL     1       4.612   5.038  17.076  0.00  0.00    +0.000 A 
ATOM      2  C   UNL     1       3.709   4.485  17.977  0.00  0.00    +0.000 A 
ATOM      3  C   UNL     1       2.578   5.220  18.367  0.00  0.00    +0.000 A 
ATOM      4  C   UNL     1       2.477   6.612  18.119  0.00  0.00    +0.000 A 
ATOM      5  C   UNL     1       1.437   7.414  18.653  0.00  0.00    +0.000 A 
ATOM      6  C   UNL     1       1.446   8.818  18.574  0.00  0.00    +0.000 A 
ATOM      7  C   UNL     1       0.356   9.599  19.263  0.00  0.00    +0.000 C 
ATOM      8  C   UNL     1       2.507   9.451  17.911  0.00  0.00    +0.000 A 
ATOM      9  C   UNL     1       2.678  10.948  17.882  0.00  0.00    +0.000 C 
ATOM     10  C   UNL     1       3.490   8.655  17.282  0.00  0.00    +0.000 A 
ATOM     11  C   UNL     1       3.506   7.239  17.376  0.00  0.00    +0.000 A 
ATOM     12  C   UNL     1       4.528   6.419  16.812  0.00  0.00    +0.000 A 
ENDROOT
BRANCH   1  14
ATOM     13  C   UNL     1       5.406   3.757  15.256  0.00  0.00    +0.000 C 
ATOM     14  O   UNL     1       5.657   4.328  16.543  0.00  0.00    +0.000 OA
ENDBRANCH   1  14
BRANCH   2  15
ATOM     15  O   UNL     1       3.898   3.241  18.534  0.00  0.00    +0.000 OA
ATOM     16  C   UNL     1       3.304   2.197  17.758  0.00  0.00    +0.000 C 
ENDBRANCH   2  15
BRANCH   3  17
ATOM     17  O   UNL     1       1.625   4.597  19.206  0.00  0.00    +0.000 OA
BRANCH  17  18
ATOM     18  C   UNL     1       1.931   4.572  20.575  0.00  0.00    +0.000 C 
ATOM     19  O   UNL     1       2.514   5.439  21.206  0.00  0.00    +0.000 OA
BRANCH  18  20
ATOM     20  C   UNL     1       1.454   3.248  21.155  0.00  0.00    +0.000 C 
ATOM     21  C   UNL     1       0.673   2.503  20.081  0.00  0.00    +0.000 C 
ATOM     22  C   UNL     1       2.628   2.413  21.665  0.00  0.00    +0.000 C 
ENDBRANCH  18  20
ENDBRANCH  17  18
ENDBRANCH   3  17
BRANCH  12  23
ATOM     23  O   UNL     1       5.631   7.056  16.175  0.00  0.00    +0.000 OA
BRANCH  23  24
ATOM     24  C   UNL     1       6.928   6.718  16.574  0.00  0.00    +0.000 C 
ATOM     25  O   UNL     1       7.729   6.060  15.920  0.00  0.00    +0.000 OA
BRANCH  24  26
ATOM     26  C   UNL     1       7.170   7.285  17.966  0.00  0.00    +0.000 C 
ATOM     27  C   UNL     1       7.818   6.219  18.849  0.00  0.00    +0.000 C 
ATOM     28  C   UNL     1       8.050   8.531  17.922  0.00  0.00    +0.000 C 
ENDBRANCH  24  26
ENDBRANCH  23  24
ENDBRANCH  12  23
TORSDOF 8
ENDMDL
MODEL 8
REMARK VINA RESULT:      -5.7      5.618     10.045
REMARK  Name = 
REMARK  16 active torsions:
REMARK  status: ('A' for Active; 'I' for Inactive)
REMARK    1  A    between atoms: C_1  and  O_2
REMARK    2  A    between atoms: O_2  and  C_3
REMARK    3  A    between atoms: C_4  and  O_5
REMARK    4  A    between atoms: O_5  and  C_6
REMARK    5  A    between atoms: C_7  and  O_8
REMARK    6  A    between atoms: O_8  and  C_9
REMARK    7  A    between atoms: C_9  and  C_11
REMARK    8  A    between atoms: C_11  and  C_12
REMARK    9  A    between atoms: C_11  and  C_13
REMARK   10  A    between atoms: C_16  and  C_17
REMARK   11  A    between atoms: C_18  and  C_19
REMARK   12  A    between atoms: C_22  and  O_23
REMARK   13  A    between atoms: O_23  and  C_24
REMARK   14  A    between atoms: C_24  and  C_26
REMARK   15  A    between atoms: C_26  and  C_27
REMARK   16  A    between atoms: C_26  and  C_28
REMARK                            x       y       z     vdW  Elec       q    Type
REMARK                         _______ _______ _______ _____ _____    ______ ____
ROOT
ATOM      1  C   UNL     1      -0.098  12.259  20.988  0.00  0.00    +0.000 A 
ATOM      2  C   UNL     1      -1.118  13.153  21.296  0.00  0.00    +0.000 A 
ATOM      3  C   UNL     1      -2.394  12.968  20.743  0.00  0.00    +0.000 A 
ATOM      4  C   UNL     1      -2.609  12.089  19.650  0.00  0.00    +0.000 A 
ATOM      5  C   UNL     1      -3.844  12.013  18.958  0.00  0.00    +0.000 A 
ATOM      6  C   UNL     1      -3.996  11.295  17.758  0.00  0.00    +0.000 A 
ATOM      7  C   UNL     1      -5.314  11.355  17.029  0.00  0.00    +0.000 C 
ATOM      8  C   UNL     1      -2.893  10.598  17.243  0.00  0.00    +0.000 A 
ATOM      9  C   UNL     1      -2.916   9.907  15.904  0.00  0.00    +0.000 C 
ATOM     10  C   UNL     1      -1.692  10.579  17.984  0.00  0.00    +0.000 A 
ATOM     11  C   UNL     1      -1.517  11.320  19.182  0.00  0.00    +0.000 A 
ATOM     12  C   UNL     1      -0.290  11.376  19.908  0.00  0.00    +0.000 A 
ENDROOT
BRANCH   1  14
ATOM     13  C   UNL     1       2.103  13.117  20.950  0.00  0.00    +0.000 C 
ATOM     14  O   UNL     1       1.129  12.295  21.599  0.00  0.00    +0.000 OA
ENDBRANCH   1  14
BRANCH   2  15
ATOM     15  O   UNL     1      -0.914  14.245  22.107  0.00  0.00    +0.000 OA
ATOM     16  C   UNL     1      -0.574  15.421  21.367  0.00  0.00    +0.000 C 
ENDBRANCH   2  15
BRANCH   3  17
ATOM     17  O   UNL     1      -3.438  13.831  21.150  0.00  0.00    +0.000 OA
BRANCH  17  18
ATOM     18  C   UNL     1      -4.302  13.332  22.136  0.00  0.00    +0.000 C 
ATOM     19  O   UNL     1      -4.107  12.363  22.851  0.00  0.00    +0.000 OA
BRANCH  18  20
ATOM     20  C   UNL     1      -5.569  14.177  22.143  0.00  0.00    +0.000 C 
ATOM     21  C   UNL     1      -6.469  13.709  21.009  0.00  0.00    +0.000 C 
ATOM     22  C   UNL     1      -6.284  14.089  23.491  0.00  0.00    +0.000 C 
ENDBRANCH  18  20
ENDBRANCH  17  18
ENDBRANCH   3  17
BRANCH  12  23
ATOM     23  O   UNL     1       0.845  10.706  19.368  0.00  0.00    +0.000 OA
BRANCH  23  24
ATOM     24  C   UNL     1       1.103   9.390  19.765  0.00  0.00    +0.000 C 
ATOM     25  O   UNL     1       1.002   8.953  20.907  0.00  0.00    +0.000 OA
BRANCH  24  26
ATOM     26  C   UNL     1       1.551   8.595  18.547  0.00  0.00    +0.000 C 
ATOM     27  C   UNL     1       2.305   9.512  17.584  0.00  0.00    +0.000 C 
ATOM     28  C   UNL     1       2.432   7.413  18.937  0.00  0.00    +0.000 C 
ENDBRANCH  24  26
ENDBRANCH  23  24
ENDBRANCH  12  23
TORSDOF 8
ENDMDL
MODEL 9
REMARK VINA RESULT:      -5.7      5.038      8.710
REMARK  Name = 
REMARK  16 active torsions:
REMARK  status: ('A' for Active; 'I' for Inactive)
REMARK    1  A    between atoms: C_1  and  O_2
REMARK    2  A    between atoms: O_2  and  C_3
REMARK    3  A    between atoms: C_4  and  O_5
REMARK    4  A    between atoms: O_5  and  C_6
REMARK    5  A    between atoms: C_7  and  O_8
REMARK    6  A    between atoms: O_8  and  C_9
REMARK    7  A    between atoms: C_9  and  C_11
REMARK    8  A    between atoms: C_11  and  C_12
REMARK    9  A    between atoms: C_11  and  C_13
REMARK   10  A    between atoms: C_16  and  C_17
REMARK   11  A    between atoms: C_18  and  C_19
REMARK   12  A    between atoms: C_22  and  O_23
REMARK   13  A    between atoms: O_23  and  C_24
REMARK   14  A    between atoms: C_24  and  C_26
REMARK   15  A    between atoms: C_26  and  C_27
REMARK   16  A    between atoms: C_26  and  C_28
REMARK                            x       y       z     vdW  Elec       q    Type
REMARK                         _______ _______ _______ _____ _____    ______ ____
ROOT
ATOM      1  C   UNL     1       0.123  12.258  20.863  0.00  0.00    +0.000 A 
ATOM      2  C   UNL     1       0.620  10.978  20.646  0.00  0.00    +0.000 A 
ATOM      3  C   UNL     1       0.247  10.275  19.490  0.00  0.00    +0.000 A 
ATOM      4  C   UNL     1      -0.847  10.691  18.690  0.00  0.00    +0.000 A 
ATOM      5  C   UNL     1      -1.358   9.910  17.622  0.00  0.00    +0.000 A 
ATOM      6  C   UNL     1      -2.559  10.225  16.961  0.00  0.00    +0.000 A 
ATOM      7  C   UNL     1      -3.088   9.282  15.911  0.00  0.00    +0.000 C 
ATOM      8  C   UNL     1      -3.262  11.376  17.348  0.00  0.00    +0.000 A 
ATOM      9  C   UNL     1      -4.618  11.731  16.794  0.00  0.00    +0.000 C 
ATOM     10  C   UNL     1      -2.703  12.217  18.335  0.00  0.00    +0.000 A 
ATOM     11  C   UNL     1      -1.506  11.898  19.027  0.00  0.00    +0.000 A 
ATOM     12  C   UNL     1      -0.962  12.694  20.078  0.00  0.00    +0.000 A 
ENDROOT
BRANCH   1  14
ATOM     13  C   UNL     1       1.585  13.984  21.548  0.00  0.00    +0.000 C 
ATOM     14  O   UNL     1       0.553  13.055  21.893  0.00  0.00    +0.000 OA
ENDBRANCH   1  14
BRANCH   2  15
ATOM     15  O   UNL     1       1.448  10.350  21.548  0.00  0.00    +0.000 OA
ATOM     16  C   UNL     1       0.727   9.562  22.498  0.00  0.00    +0.000 C 
ENDBRANCH   2  15
BRANCH   3  17
ATOM     17  O   UNL     1       0.843   9.016  19.244  0.00  0.00    +0.000 OA
BRANCH  17  18
ATOM     18  C   UNL     1       1.850   8.991  18.268  0.00  0.00    +0.000 C 
ATOM     19  O   UNL     1       2.244   9.937  17.604  0.00  0.00    +0.000 OA
BRANCH  18  20
ATOM     20  C   UNL     1       2.354   7.561  18.127  0.00  0.00    +0.000 C 
ATOM     21  C   UNL     1       3.720   7.593  17.457  0.00  0.00    +0.000 C 
ATOM     22  C   UNL     1       2.418   6.863  19.485  0.00  0.00    +0.000 C 
ENDBRANCH  18  20
ENDBRANCH  17  18
ENDBRANCH   3  17
BRANCH  12  23
ATOM     23  O   UNL     1      -1.692  13.839  20.505  0.00  0.00    +0.000 OA
BRANCH  23  24
ATOM     24  C   UNL     1      -1.366  15.087  19.965  0.00  0.00    +0.000 C 
ATOM     25  O   UNL     1      -0.522  15.294  19.099  0.00  0.00    +0.000 OA
BRANCH  24  26
ATOM     26  C   UNL     1      -2.216  16.149  20.648  0.00  0.00    +0.000 C 
ATOM     27  C   UNL     1      -2.170  17.444  19.838  0.00  0.00    +0.000 C 
ATOM     28  C   UNL     1      -3.662  15.691  20.816  0.00  0.00    +0.000 C 
ENDBRANCH  24  26
ENDBRANCH  23  24
ENDBRANCH  12  23
TORSDOF 8
ENDMDL
