MODEL 1
REMARK VINA RESULT:      -8.0      0.000      0.000
REMARK  Name = 
REMARK  5 active torsions:
REMARK  status: ('A' for Active; 'I' for Inactive)
REMARK    1  A    between atoms: C_1  and  S_2
REMARK    2  A    between atoms: S_2  and  O_5
REMARK    3  A    between atoms: O_5  and  C_6
REMARK    4  A    between atoms: C_6  and  C_7
REMARK    5  A    between atoms: C_6  and  C_13
REMARK                            x       y       z     vdW  Elec       q    Type
REMARK                         _______ _______ _______ _____ _____    ______ ____
ROOT
ATOM      1  C   UNL     1       4.263   5.731  17.580  0.00  0.00    +0.000 C 
ENDROOT
BRANCH   1   2
ATOM      2  C   UNL     1       3.362   6.777  18.156  0.00  0.00    +0.000 A 
ATOM      3  C   UNL     1       2.857   7.946  17.625  0.00  0.00    +0.000 A 
ATOM      4  C   UNL     1       1.980   8.483  18.584  0.00  0.00    +0.000 A 
ATOM      5  C   UNL     1       1.112   9.585  18.613  0.00  0.00    +0.000 A 
ATOM      6  C   UNL     1       0.401   9.842  19.787  0.00  0.00    +0.000 A 
ATOM      7  C   UNL     1       0.552   9.021  20.912  0.00  0.00    +0.000 A 
ATOM      8  C   UNL     1       1.390   7.899  20.890  0.00  0.00    +0.000 A 
ATOM      9  C   UNL     1       2.076   7.657  19.698  0.00  0.00    +0.000 A 
ATOM     10  O   UNL     1       2.910   6.607  19.437  0.00  0.00    +0.000 OA
ENDBRANCH   1   2
BRANCH   1  11
ATOM     11  C   UNL     1       3.792   4.347  18.021  0.00  0.00    +0.000 A 
ATOM     12  C   UNL     1       2.724   3.691  17.384  0.00  0.00    +0.000 A 
ATOM     13  C   UNL     1       2.383   2.381  17.727  0.00  0.00    +0.000 A 
ATOM     14  C   UNL     1       3.105   1.702  18.707  0.00  0.00    +0.000 A 
ATOM     15  C   UNL     1       4.168   2.334  19.347  0.00  0.00    +0.000 A 
ATOM     16  C   UNL     1       4.511   3.646  19.005  0.00  0.00    +0.000 A 
ENDBRANCH   1  11
BRANCH   1  17
ATOM     17  O   UNL     1       5.591   5.970  18.070  0.00  0.00    +0.000 OA
BRANCH  17  19
ATOM     18  C   UNL     1       7.615   7.475  17.577  0.00  0.00    +0.000 C 
ATOM     19  S   UNL     1       6.814   6.005  16.990  0.00  0.00    +0.000 S 
ATOM     20  O   UNL     1       6.298   6.298  15.671  0.00  0.00    +0.000 OA
ATOM     21  O   UNL     1       7.681   4.872  17.229  0.00  0.00    +0.000 OA
ENDBRANCH  17  19
ENDBRANCH   1  17
TORSDOF 4
ENDMDL
MODEL 2
REMARK VINA RESULT:      -7.9      0.290      1.073
REMARK  Name = 
REMARK  5 active torsions:
REMARK  status: ('A' for Active; 'I' for Inactive)
REMARK    1  A    between atoms: C_1  and  S_2
REMARK    2  A    between atoms: S_2  and  O_5
REMARK    3  A    between atoms: O_5  and  C_6
REMARK    4  A    between atoms: C_6  and  C_7
REMARK    5  A    between atoms: C_6  and  C_13
REMARK                            x       y       z     vdW  Elec       q    Type
REMARK                         _______ _______ _______ _____ _____    ______ ____
ROOT
ATOM      1  C   UNL     1       4.205   5.618  17.509  0.00  0.00    +0.000 C 
ENDROOT
BRANCH   1   2
ATOM      2  C   UNL     1       3.347   6.709  18.067  0.00  0.00    +0.000 A 
ATOM      3  C   UNL     1       2.862   7.872  17.506  0.00  0.00    +0.000 A 
ATOM      4  C   UNL     1       2.022   8.468  18.464  0.00  0.00    +0.000 A 
ATOM      5  C   UNL     1       1.186   9.594  18.473  0.00  0.00    +0.000 A 
ATOM      6  C   UNL     1       0.510   9.913  19.652  0.00  0.00    +0.000 A 
ATOM      7  C   UNL     1       0.663   9.127  20.801  0.00  0.00    +0.000 A 
ATOM      8  C   UNL     1       1.469   7.982  20.801  0.00  0.00    +0.000 A 
ATOM      9  C   UNL     1       2.121   7.679  19.604  0.00  0.00    +0.000 A 
ATOM     10  O   UNL     1       2.919   6.597  19.363  0.00  0.00    +0.000 OA
ENDBRANCH   1   2
BRANCH   1  11
ATOM     11  C   UNL     1       3.671   4.262  17.961  0.00  0.00    +0.000 A 
ATOM     12  C   UNL     1       4.411   3.419  18.808  0.00  0.00    +0.000 A 
ATOM     13  C   UNL     1       3.858   2.235  19.301  0.00  0.00    +0.000 A 
ATOM     14  C   UNL     1       2.556   1.875  18.961  0.00  0.00    +0.000 A 
ATOM     15  C   UNL     1       1.805   2.698  18.125  0.00  0.00    +0.000 A 
ATOM     16  C   UNL     1       2.357   3.884  17.630  0.00  0.00    +0.000 A 
ENDBRANCH   1  11
BRANCH   1  17
ATOM     17  O   UNL     1       5.538   5.805  18.006  0.00  0.00    +0.000 OA
BRANCH  17  19
ATOM     18  C   UNL     1       7.528   7.366  17.544  0.00  0.00    +0.000 C 
ATOM     19  S   UNL     1       6.757   5.892  16.924  0.00  0.00    +0.000 S 
ATOM     20  O   UNL     1       6.231   6.205  15.615  0.00  0.00    +0.000 OA
ATOM     21  O   UNL     1       7.650   4.773  17.135  0.00  0.00    +0.000 OA
ENDBRANCH  17  19
ENDBRANCH   1  17
TORSDOF 4
ENDMDL
MODEL 3
REMARK VINA RESULT:      -7.9      0.996      1.524
REMARK  Name = 
REMARK  5 active torsions:
REMARK  status: ('A' for Active; 'I' for Inactive)
REMARK    1  A    between atoms: C_1  and  S_2
REMARK    2  A    between atoms: S_2  and  O_5
REMARK    3  A    between atoms: O_5  and  C_6
REMARK    4  A    between atoms: C_6  and  C_7
REMARK    5  A    between atoms: C_6  and  C_13
REMARK                            x       y       z     vdW  Elec       q    Type
REMARK                         _______ _______ _______ _____ _____    ______ ____
ROOT
ATOM      1  C   UNL     1       3.825   5.891  17.548  0.00  0.00    +0.000 C 
ENDROOT
BRANCH   1   2
ATOM      2  C   UNL     1       3.018   6.968  18.202  0.00  0.00    +0.000 A 
ATOM      3  C   UNL     1       2.532   8.167  17.726  0.00  0.00    +0.000 A 
ATOM      4  C   UNL     1       1.753   8.728  18.753  0.00  0.00    +0.000 A 
ATOM      5  C   UNL     1       0.942   9.868  18.861  0.00  0.00    +0.000 A 
ATOM      6  C   UNL     1       0.331  10.138  20.087  0.00  0.00    +0.000 A 
ATOM      7  C   UNL     1       0.524   9.292  21.186  0.00  0.00    +0.000 A 
ATOM      8  C   UNL     1       1.304   8.133  21.088  0.00  0.00    +0.000 A 
ATOM      9  C   UNL     1       1.890   7.880  19.846  0.00  0.00    +0.000 A 
ATOM     10  O   UNL     1       2.652   6.797  19.511  0.00  0.00    +0.000 OA
ENDBRANCH   1   2
BRANCH   1  11
ATOM     11  C   UNL     1       3.324   4.523  18.006  0.00  0.00    +0.000 A 
ATOM     12  C   UNL     1       4.120   3.666  18.786  0.00  0.00    +0.000 A 
ATOM     13  C   UNL     1       3.604   2.470  19.290  0.00  0.00    +0.000 A 
ATOM     14  C   UNL     1       2.283   2.112  19.028  0.00  0.00    +0.000 A 
ATOM     15  C   UNL     1       1.477   2.949  18.260  0.00  0.00    +0.000 A 
ATOM     16  C   UNL     1       1.992   4.147  17.755  0.00  0.00    +0.000 A 
ENDBRANCH   1  11
BRANCH   1  17
ATOM     17  O   UNL     1       5.194   6.062  17.940  0.00  0.00    +0.000 OA
BRANCH  17  19
ATOM     18  C   UNL     1       7.210   4.746  17.037  0.00  0.00    +0.000 C 
ATOM     19  S   UNL     1       6.312   6.253  16.766  0.00  0.00    +0.000 S 
ATOM     20  O   UNL     1       7.198   7.344  17.103  0.00  0.00    +0.000 OA
ATOM     21  O   UNL     1       5.654   6.180  15.479  0.00  0.00    +0.000 OA
ENDBRANCH  17  19
ENDBRANCH   1  17
TORSDOF 4
ENDMDL
MODEL 4
REMARK VINA RESULT:      -7.9      0.661      1.685
REMARK  Name = 
REMARK  5 active torsions:
REMARK  status: ('A' for Active; 'I' for Inactive)
REMARK    1  A    between atoms: C_1  and  S_2
REMARK    2  A    between atoms: S_2  and  O_5
REMARK    3  A    between atoms: O_5  and  C_6
REMARK    4  A    between atoms: C_6  and  C_7
REMARK    5  A    between atoms: C_6  and  C_13
REMARK                            x       y       z     vdW  Elec       q    Type
REMARK                         _______ _______ _______ _____ _____    ______ ____
ROOT
ATOM      1  C   UNL     1       4.340   5.592  17.572  0.00  0.00    +0.000 C 
ENDROOT
BRANCH   1   2
ATOM      2  C   UNL     1       3.387   6.556  18.206  0.00  0.00    +0.000 A 
ATOM      3  C   UNL     1       2.744   6.541  19.426  0.00  0.00    +0.000 A 
ATOM      4  C   UNL     1       2.048   7.758  19.535  0.00  0.00    +0.000 A 
ATOM      5  C   UNL     1       1.290   8.370  20.545  0.00  0.00    +0.000 A 
ATOM      6  C   UNL     1       0.698   9.605  20.278  0.00  0.00    +0.000 A 
ATOM      7  C   UNL     1       0.854  10.221  19.030  0.00  0.00    +0.000 A 
ATOM      8  C   UNL     1       1.633   9.640  18.021  0.00  0.00    +0.000 A 
ATOM      9  C   UNL     1       2.226   8.412  18.321  0.00  0.00    +0.000 A 
ATOM     10  O   UNL     1       3.053   7.688  17.511  0.00  0.00    +0.000 OA
ENDBRANCH   1   2
BRANCH   1  11
ATOM     11  C   UNL     1       3.952   4.164  17.946  0.00  0.00    +0.000 A 
ATOM     12  C   UNL     1       4.561   3.488  19.018  0.00  0.00    +0.000 A 
ATOM     13  C   UNL     1       4.114   2.226  19.415  0.00  0.00    +0.000 A 
ATOM     14  C   UNL     1       3.047   1.620  18.754  0.00  0.00    +0.000 A 
ATOM     15  C   UNL     1       2.428   2.275  17.692  0.00  0.00    +0.000 A 
ATOM     16  C   UNL     1       2.875   3.539  17.292  0.00  0.00    +0.000 A 
ENDBRANCH   1  11
BRANCH   1  17
ATOM     17  O   UNL     1       5.657   5.882  18.064  0.00  0.00    +0.000 OA
BRANCH  17  19
ATOM     18  C   UNL     1       7.651   7.423  17.559  0.00  0.00    +0.000 C 
ATOM     19  S   UNL     1       6.885   5.927  16.989  0.00  0.00    +0.000 S 
ATOM     20  O   UNL     1       6.370   6.190  15.664  0.00  0.00    +0.000 OA
ATOM     21  O   UNL     1       7.775   4.817  17.250  0.00  0.00    +0.000 OA
ENDBRANCH  17  19
ENDBRANCH   1  17
TORSDOF 4
ENDMDL
MODEL 5
REMARK VINA RESULT:      -7.9      1.056      1.988
REMARK  Name = 
REMARK  5 active torsions:
REMARK  status: ('A' for Active; 'I' for Inactive)
REMARK    1  A    between atoms: C_1  and  S_2
REMARK    2  A    between atoms: S_2  and  O_5
REMARK    3  A    between atoms: O_5  and  C_6
REMARK    4  A    between atoms: C_6  and  C_7
REMARK    5  A    between atoms: C_6  and  C_13
REMARK                            x       y       z     vdW  Elec       q    Type
REMARK                         _______ _______ _______ _____ _____    ______ ____
ROOT
ATOM      1  C   UNL     1       4.322   5.598  17.521  0.00  0.00    +0.000 C 
ENDROOT
BRANCH   1   2
ATOM      2  C   UNL     1       3.380   6.563  18.168  0.00  0.00    +0.000 A 
ATOM      3  C   UNL     1       2.759   6.553  19.399  0.00  0.00    +0.000 A 
ATOM      4  C   UNL     1       2.064   7.769  19.516  0.00  0.00    +0.000 A 
ATOM      5  C   UNL     1       1.324   8.385  20.536  0.00  0.00    +0.000 A 
ATOM      6  C   UNL     1       0.724   9.618  20.275  0.00  0.00    +0.000 A 
ATOM      7  C   UNL     1       0.856  10.228  19.021  0.00  0.00    +0.000 A 
ATOM      8  C   UNL     1       1.617   9.643  18.001  0.00  0.00    +0.000 A 
ATOM      9  C   UNL     1       2.218   8.417  18.296  0.00  0.00    +0.000 A 
ATOM     10  O   UNL     1       3.031   7.691  17.473  0.00  0.00    +0.000 OA
ENDBRANCH   1   2
BRANCH   1  11
ATOM     11  C   UNL     1       3.958   4.172  17.928  0.00  0.00    +0.000 A 
ATOM     12  C   UNL     1       4.578   3.530  19.014  0.00  0.00    +0.000 A 
ATOM     13  C   UNL     1       4.151   2.270  19.440  0.00  0.00    +0.000 A 
ATOM     14  C   UNL     1       3.095   1.632  18.792  0.00  0.00    +0.000 A 
ATOM     15  C   UNL     1       2.466   2.253  17.716  0.00  0.00    +0.000 A 
ATOM     16  C   UNL     1       2.892   3.515  17.288  0.00  0.00    +0.000 A 
ENDBRANCH   1  11
BRANCH   1  17
ATOM     17  O   UNL     1       5.650   5.905  17.970  0.00  0.00    +0.000 OA
BRANCH  17  19
ATOM     18  C   UNL     1       5.865   5.609  15.426  0.00  0.00    +0.000 C 
ATOM     19  S   UNL     1       6.857   5.884  16.871  0.00  0.00    +0.000 S 
ATOM     20  O   UNL     1       7.673   4.705  17.060  0.00  0.00    +0.000 OA
ATOM     21  O   UNL     1       7.441   7.206  16.793  0.00  0.00    +0.000 OA
ENDBRANCH  17  19
ENDBRANCH   1  17
TORSDOF 4
ENDMDL
MODEL 6
REMARK VINA RESULT:      -7.8      2.564      3.842
REMARK  Name = 
REMARK  5 active torsions:
REMARK  status: ('A' for Active; 'I' for Inactive)
REMARK    1  A    between atoms: C_1  and  S_2
REMARK    2  A    between atoms: S_2  and  O_5
REMARK    3  A    between atoms: O_5  and  C_6
REMARK    4  A    between atoms: C_6  and  C_7
REMARK    5  A    between atoms: C_6  and  C_13
REMARK                            x       y       z     vdW  Elec       q    Type
REMARK                         _______ _______ _______ _____ _____    ______ ____
ROOT
ATOM      1  C   UNL     1       3.449   4.813  18.758  0.00  0.00    +0.000 C 
ENDROOT
BRANCH   1   2
ATOM      2  C   UNL     1       2.916   6.209  18.816  0.00  0.00    +0.000 A 
ATOM      3  C   UNL     1       2.927   7.235  17.895  0.00  0.00    +0.000 A 
ATOM      4  C   UNL     1       2.188   8.293  18.453  0.00  0.00    +0.000 A 
ATOM      5  C   UNL     1       1.771   9.551  17.992  0.00  0.00    +0.000 A 
ATOM      6  C   UNL     1       1.061  10.378  18.863  0.00  0.00    +0.000 A 
ATOM      7  C   UNL     1       0.771   9.965  20.170  0.00  0.00    +0.000 A 
ATOM      8  C   UNL     1       1.152   8.700  20.636  0.00  0.00    +0.000 A 
ATOM      9  C   UNL     1       1.848   7.888  19.738  0.00  0.00    +0.000 A 
ATOM     10  O   UNL     1       2.279   6.611  19.961  0.00  0.00    +0.000 OA
ENDBRANCH   1   2
BRANCH   1  11
ATOM     11  C   UNL     1       4.792   4.805  18.031  0.00  0.00    +0.000 A 
ATOM     12  C   UNL     1       5.992   5.129  18.689  0.00  0.00    +0.000 A 
ATOM     13  C   UNL     1       7.221   5.006  18.037  0.00  0.00    +0.000 A 
ATOM     14  C   UNL     1       7.273   4.553  16.720  0.00  0.00    +0.000 A 
ATOM     15  C   UNL     1       6.096   4.224  16.053  0.00  0.00    +0.000 A 
ATOM     16  C   UNL     1       4.864   4.347  16.703  0.00  0.00    +0.000 A 
ENDBRANCH   1  11
BRANCH   1  17
ATOM     17  O   UNL     1       2.504   4.007  18.039  0.00  0.00    +0.000 OA
BRANCH  17  19
ATOM     18  C   UNL     1       2.456   2.870  20.344  0.00  0.00    +0.000 C 
ATOM     19  S   UNL     1       2.151   2.527  18.629  0.00  0.00    +0.000 S 
ATOM     20  O   UNL     1       3.150   1.575  18.200  0.00  0.00    +0.000 OA
ATOM     21  O   UNL     1       0.737   2.277  18.447  0.00  0.00    +0.000 OA
ENDBRANCH  17  19
ENDBRANCH   1  17
TORSDOF 4
ENDMDL
MODEL 7
REMARK VINA RESULT:      -7.8      2.697      3.811
REMARK  Name = 
REMARK  5 active torsions:
REMARK  status: ('A' for Active; 'I' for Inactive)
REMARK    1  A    between atoms: C_1  and  S_2
REMARK    2  A    between atoms: S_2  and  O_5
REMARK    3  A    between atoms: O_5  and  C_6
REMARK    4  A    between atoms: C_6  and  C_7
REMARK    5  A    between atoms: C_6  and  C_13
REMARK                            x       y       z     vdW  Elec       q    Type
REMARK                         _______ _______ _______ _____ _____    ______ ____
ROOT
ATOM      1  C   UNL     1       3.303   4.739  18.910  0.00  0.00    +0.000 C 
ENDROOT
BRANCH   1   2
ATOM      2  C   UNL     1       2.834   6.159  18.884  0.00  0.00    +0.000 A 
ATOM      3  C   UNL     1       2.904   7.130  17.907  0.00  0.00    +0.000 A 
ATOM      4  C   UNL     1       2.208   8.250  18.395  0.00  0.00    +0.000 A 
ATOM      5  C   UNL     1       1.856   9.498  17.859  0.00  0.00    +0.000 A 
ATOM      6  C   UNL     1       1.174  10.405  18.673  0.00  0.00    +0.000 A 
ATOM      7  C   UNL     1       0.851  10.078  19.996  0.00  0.00    +0.000 A 
ATOM      8  C   UNL     1       1.167   8.826  20.537  0.00  0.00    +0.000 A 
ATOM      9  C   UNL     1       1.834   7.933  19.696  0.00  0.00    +0.000 A 
ATOM     10  O   UNL     1       2.203   6.653  19.995  0.00  0.00    +0.000 OA
ENDBRANCH   1   2
BRANCH   1  11
ATOM     11  C   UNL     1       4.662   4.633  18.223  0.00  0.00    +0.000 A 
ATOM     12  C   UNL     1       4.785   4.209  16.888  0.00  0.00    +0.000 A 
ATOM     13  C   UNL     1       6.024   4.227  16.243  0.00  0.00    +0.000 A 
ATOM     14  C   UNL     1       7.158   4.674  16.917  0.00  0.00    +0.000 A 
ATOM     15  C   UNL     1       7.056   5.101  18.239  0.00  0.00    +0.000 A 
ATOM     16  C   UNL     1       5.817   5.083  18.887  0.00  0.00    +0.000 A 
ENDBRANCH   1  11
BRANCH   1  17
ATOM     17  O   UNL     1       2.339   3.941  18.207  0.00  0.00    +0.000 OA
BRANCH  17  19
ATOM     18  C   UNL     1       1.870   2.998  20.551  0.00  0.00    +0.000 C 
ATOM     19  S   UNL     1       1.919   2.500  18.849  0.00  0.00    +0.000 S 
ATOM     20  O   UNL     1       3.010   1.562  18.710  0.00  0.00    +0.000 OA
ATOM     21  O   UNL     1       0.577   2.171  18.419  0.00  0.00    +0.000 OA
ENDBRANCH  17  19
ENDBRANCH   1  17
TORSDOF 4
ENDMDL
MODEL 8
REMARK VINA RESULT:      -7.8      1.024      1.201
REMARK  Name = 
REMARK  5 active torsions:
REMARK  status: ('A' for Active; 'I' for Inactive)
REMARK    1  A    between atoms: C_1  and  S_2
REMARK    2  A    between atoms: S_2  and  O_5
REMARK    3  A    between atoms: O_5  and  C_6
REMARK    4  A    between atoms: C_6  and  C_7
REMARK    5  A    between atoms: C_6  and  C_13
REMARK                            x       y       z     vdW  Elec       q    Type
REMARK                         _______ _______ _______ _____ _____    ______ ____
ROOT
ATOM      1  C   UNL     1       3.755   5.897  17.673  0.00  0.00    +0.000 C 
ENDROOT
BRANCH   1   2
ATOM      2  C   UNL     1       2.960   7.016  18.268  0.00  0.00    +0.000 A 
ATOM      3  C   UNL     1       2.491   8.195  17.729  0.00  0.00    +0.000 A 
ATOM      4  C   UNL     1       1.714   8.818  18.722  0.00  0.00    +0.000 A 
ATOM      5  C   UNL     1       0.918   9.971  18.767  0.00  0.00    +0.000 A 
ATOM      6  C   UNL     1       0.305  10.312  19.975  0.00  0.00    +0.000 A 
ATOM      7  C   UNL     1       0.482   9.521  21.117  0.00  0.00    +0.000 A 
ATOM      8  C   UNL     1       1.248   8.349  21.082  0.00  0.00    +0.000 A 
ATOM      9  C   UNL     1       1.836   8.025  19.857  0.00  0.00    +0.000 A 
ATOM     10  O   UNL     1       2.586   6.917  19.582  0.00  0.00    +0.000 OA
ENDBRANCH   1   2
BRANCH   1  11
ATOM     11  C   UNL     1       3.226   4.560  18.186  0.00  0.00    +0.000 A 
ATOM     12  C   UNL     1       1.939   4.099  17.858  0.00  0.00    +0.000 A 
ATOM     13  C   UNL     1       1.517   2.824  18.243  0.00  0.00    +0.000 A 
ATOM     14  C   UNL     1       2.372   1.988  18.956  0.00  0.00    +0.000 A 
ATOM     15  C   UNL     1       3.652   2.426  19.288  0.00  0.00    +0.000 A 
ATOM     16  C   UNL     1       4.077   3.702  18.904  0.00  0.00    +0.000 A 
ENDBRANCH   1  11
BRANCH   1  17
ATOM     17  O   UNL     1       5.123   6.063  18.075  0.00  0.00    +0.000 OA
BRANCH  17  19
ATOM     18  C   UNL     1       7.008   4.852  16.815  0.00  0.00    +0.000 C 
ATOM     19  S   UNL     1       6.221   6.439  16.927  0.00  0.00    +0.000 S 
ATOM     20  O   UNL     1       7.197   7.362  17.462  0.00  0.00    +0.000 OA
ATOM     21  O   UNL     1       5.527   6.705  15.686  0.00  0.00    +0.000 OA
ENDBRANCH  17  19
ENDBRANCH   1  17
TORSDOF 4
ENDMDL
MODEL 9
REMARK VINA RESULT:      -7.8      2.541      3.911
REMARK  Name = 
REMARK  5 active torsions:
REMARK  status: ('A' for Active; 'I' for Inactive)
REMARK    1  A    between atoms: C_1  and  S_2
REMARK    2  A    between atoms: S_2  and  O_5
REMARK    3  A    between atoms: O_5  and  C_6
REMARK    4  A    between atoms: C_6  and  C_7
REMARK    5  A    between atoms: C_6  and  C_13
REMARK                            x       y       z     vdW  Elec       q    Type
REMARK                         _______ _______ _______ _____ _____    ______ ____
ROOT
ATOM      1  C   UNL     1       3.742   4.756  18.785  0.00  0.00    +0.000 C 
ENDROOT
BRANCH   1   2
ATOM      2  C   UNL     1       3.142   6.126  18.808  0.00  0.00    +0.000 A 
ATOM      3  C   UNL     1       3.125   7.135  17.868  0.00  0.00    +0.000 A 
ATOM      4  C   UNL     1       2.325   8.166  18.392  0.00  0.00    +0.000 A 
ATOM      5  C   UNL     1       1.860   9.395  17.900  0.00  0.00    +0.000 A 
ATOM      6  C   UNL     1       1.093  10.203  18.741  0.00  0.00    +0.000 A 
ATOM      7  C   UNL     1       0.795   9.798  20.049  0.00  0.00    +0.000 A 
ATOM      8  C   UNL     1       1.225   8.561  20.546  0.00  0.00    +0.000 A 
ATOM      9  C   UNL     1       1.977   7.767  19.677  0.00  0.00    +0.000 A 
ATOM     10  O   UNL     1       2.464   6.517  19.932  0.00  0.00    +0.000 OA
ENDBRANCH   1   2
BRANCH   1  11
ATOM     11  C   UNL     1       4.929   4.729  17.825  0.00  0.00    +0.000 A 
ATOM     12  C   UNL     1       6.230   5.053  18.247  0.00  0.00    +0.000 A 
ATOM     13  C   UNL     1       7.319   4.913  17.383  0.00  0.00    +0.000 A 
ATOM     14  C   UNL     1       7.127   4.443  16.086  0.00  0.00    +0.000 A 
ATOM     15  C   UNL     1       5.846   4.113  15.650  0.00  0.00    +0.000 A 
ATOM     16  C   UNL     1       4.755   4.253  16.513  0.00  0.00    +0.000 A 
ENDBRANCH   1  11
BRANCH   1  17
ATOM     17  O   UNL     1       2.734   3.838  18.336  0.00  0.00    +0.000 OA
BRANCH  17  19
ATOM     18  C   UNL     1       0.805   2.224  18.865  0.00  0.00    +0.000 C 
ATOM     19  S   UNL     1       2.540   2.445  19.164  0.00  0.00    +0.000 S 
ATOM     20  O   UNL     1       2.701   2.688  20.580  0.00  0.00    +0.000 OA
ATOM     21  O   UNL     1       3.268   1.393  18.487  0.00  0.00    +0.000 OA
ENDBRANCH  17  19
ENDBRANCH   1  17
TORSDOF 4
ENDMDL
