MODEL 1
REMARK VINA RESULT:      -7.2      0.000      0.000
REMARK  Name = 
REMARK  8 active torsions:
REMARK  status: ('A' for Active; 'I' for Inactive)
REMARK    1  A    between atoms: C_1  and  C_2
REMARK    2  A    between atoms: C_2  and  O_3
REMARK    3  A    between atoms: O_3  and  C_4
REMARK    4  A    between atoms: C_4  and  C_5
REMARK    5  A    between atoms: N_7  and  C_8
REMARK    6  A    between atoms: C_8  and  C_9
REMARK    7  A    between atoms: N_17  and  C_18
REMARK    8  A    between atoms: C_18  and  C_19
REMARK                            x       y       z     vdW  Elec       q    Type
REMARK                         _______ _______ _______ _____ _____    ______ ____
ROOT
ATOM      1  C   UNL     1       6.320   6.229  17.975  0.00  0.00    +0.000 C 
ATOM      2  C   UNL     1       5.807   5.576  19.300  0.00  0.00    +0.000 C 
ATOM      3  N   UNL     1       4.641   4.667  19.283  0.00  0.00    +0.000 NA
ATOM      4  C   UNL     1       4.607   3.699  18.158  0.00  0.00    +0.000 C 
ATOM      5  C   UNL     1       5.110   4.273  16.869  0.00  0.00    +0.000 A 
ATOM      6  N   UNL     1       4.987   3.675  15.671  0.00  0.00    +0.000 NA
ATOM      7  N   UNL     1       5.654   4.509  14.833  0.00  0.00    +0.000 N 
ATOM      8  C   UNL     1       6.099   5.642  15.448  0.00  0.00    +0.000 A 
ATOM      9  C   UNL     1       5.874   5.449  16.789  0.00  0.00    +0.000 A 
ENDROOT
BRANCH   1  10
ATOM     10  C   UNL     1       7.867   6.313  18.054  0.00  0.00    +0.000 C 
BRANCH  10  11
ATOM     11  O   UNL     1       8.299   7.551  18.628  0.00  0.00    +0.000 OA
BRANCH  11  13
ATOM     12  C   UNL     1       8.765   9.867  18.306  0.00  0.00    +0.000 C 
ATOM     13  C   UNL     1       7.994   8.665  17.794  0.00  0.00    +0.000 C 
ENDBRANCH  11  13
ENDBRANCH  10  11
ENDBRANCH   1  10
BRANCH   3  14
ATOM     14  C   UNL     1       3.352   5.303  19.553  0.00  0.00    +0.000 C 
BRANCH  14  15
ATOM     15  C   UNL     1       2.373   4.288  20.077  0.00  0.00    +0.000 A 
ATOM     16  C   UNL     1       2.386   3.616  21.338  0.00  0.00    +0.000 A 
ATOM     17  C   UNL     1       1.292   2.783  21.357  0.00  0.00    +0.000 A 
ATOM     18  O   UNL     1       0.605   2.884  20.195  0.00  0.00    +0.000 OA
ATOM     19  C   UNL     1       1.262   3.788  19.423  0.00  0.00    +0.000 A 
ENDBRANCH  14  15
ENDBRANCH   3  14
BRANCH   7  20
ATOM     20  C   UNL     1       6.095   4.069  13.505  0.00  0.00    +0.000 C 
BRANCH  20  21
ATOM     21  C   UNL     1       5.160   3.121  12.820  0.00  0.00    +0.000 C 
ATOM     22  C   UNL     1       4.518   3.414  11.485  0.00  0.00    +0.000 C 
ATOM     23  C   UNL     1       5.622   2.400  11.570  0.00  0.00    +0.000 C 
ENDBRANCH  20  21
ENDBRANCH   7  20
TORSDOF 7
ENDMDL
MODEL 2
REMARK VINA RESULT:      -6.6      2.626      6.100
REMARK  Name = 
REMARK  8 active torsions:
REMARK  status: ('A' for Active; 'I' for Inactive)
REMARK    1  A    between atoms: C_1  and  C_2
REMARK    2  A    between atoms: C_2  and  O_3
REMARK    3  A    between atoms: O_3  and  C_4
REMARK    4  A    between atoms: C_4  and  C_5
REMARK    5  A    between atoms: N_7  and  C_8
REMARK    6  A    between atoms: C_8  and  C_9
REMARK    7  A    between atoms: N_17  and  C_18
REMARK    8  A    between atoms: C_18  and  C_19
REMARK                            x       y       z     vdW  Elec       q    Type
REMARK                         _______ _______ _______ _____ _____    ______ ____
ROOT
ATOM      1  C   UNL     1       4.153   6.668  17.903  0.00  0.00    +0.000 C 
ATOM      2  C   UNL     1       4.467   6.600  16.372  0.00  0.00    +0.000 C 
ATOM      3  N   UNL     1       5.154   5.421  15.802  0.00  0.00    +0.000 NA
ATOM      4  C   UNL     1       4.691   4.107  16.315  0.00  0.00    +0.000 C 
ATOM      5  C   UNL     1       4.356   4.127  17.775  0.00  0.00    +0.000 A 
ATOM      6  N   UNL     1       4.119   3.030  18.516  0.00  0.00    +0.000 NA
ATOM      7  N   UNL     1       3.781   3.537  19.730  0.00  0.00    +0.000 N 
ATOM      8  C   UNL     1       3.893   4.894  19.792  0.00  0.00    +0.000 A 
ATOM      9  C   UNL     1       4.136   5.307  18.505  0.00  0.00    +0.000 A 
ENDROOT
BRANCH   1  10
ATOM     10  C   UNL     1       2.788   7.386  18.077  0.00  0.00    +0.000 C 
BRANCH  10  11
ATOM     11  O   UNL     1       2.781   8.665  17.436  0.00  0.00    +0.000 OA
BRANCH  11  13
ATOM     12  C   UNL     1       1.343   9.151  19.273  0.00  0.00    +0.000 C 
ATOM     13  C   UNL     1       1.659   9.454  17.821  0.00  0.00    +0.000 C 
ENDBRANCH  11  13
ENDBRANCH  10  11
ENDBRANCH   1  10
BRANCH   3  14
ATOM     14  C   UNL     1       6.609   5.536  15.702  0.00  0.00    +0.000 C 
BRANCH  14  15
ATOM     15  C   UNL     1       7.214   5.647  17.074  0.00  0.00    +0.000 A 
ATOM     16  C   UNL     1       7.498   6.831  17.824  0.00  0.00    +0.000 A 
ATOM     17  C   UNL     1       8.048   6.425  19.017  0.00  0.00    +0.000 A 
ATOM     18  O   UNL     1       8.134   5.075  19.059  0.00  0.00    +0.000 OA
ATOM     19  C   UNL     1       7.636   4.609  17.885  0.00  0.00    +0.000 A 
ENDBRANCH  14  15
ENDBRANCH   3  14
BRANCH   7  20
ATOM     20  C   UNL     1       3.084   2.724  20.732  0.00  0.00    +0.000 C 
BRANCH  20  21
ATOM     21  C   UNL     1       1.611   2.979  20.827  0.00  0.00    +0.000 C 
ATOM     22  C   UNL     1       0.926   4.132  20.133  0.00  0.00    +0.000 C 
ATOM     23  C   UNL     1       0.739   2.737  19.613  0.00  0.00    +0.000 C 
ENDBRANCH  20  21
ENDBRANCH   7  20
TORSDOF 7
ENDMDL
MODEL 3
REMARK VINA RESULT:      -6.6      1.257      1.583
REMARK  Name = 
REMARK  8 active torsions:
REMARK  status: ('A' for Active; 'I' for Inactive)
REMARK    1  A    between atoms: C_1  and  C_2
REMARK    2  A    between atoms: C_2  and  O_3
REMARK    3  A    between atoms: O_3  and  C_4
REMARK    4  A    between atoms: C_4  and  C_5
REMARK    5  A    between atoms: N_7  and  C_8
REMARK    6  A    between atoms: C_8  and  C_9
REMARK    7  A    between atoms: N_17  and  C_18
REMARK    8  A    between atoms: C_18  and  C_19
REMARK                            x       y       z     vdW  Elec       q    Type
REMARK                         _______ _______ _______ _____ _____    ______ ____
ROOT
ATOM      1  C   UNL     1       4.809   6.501  16.916  0.00  0.00    +0.000 C 
ATOM      2  C   UNL     1       4.456   5.900  18.317  0.00  0.00    +0.000 C 
ATOM      3  N   UNL     1       4.061   4.481  18.443  0.00  0.00    +0.000 NA
ATOM      4  C   UNL     1       4.858   3.525  17.634  0.00  0.00    +0.000 C 
ATOM      5  C   UNL     1       5.241   4.064  16.289  0.00  0.00    +0.000 A 
ATOM      6  N   UNL     1       5.775   3.329  15.299  0.00  0.00    +0.000 NA
ATOM      7  N   UNL     1       6.028   4.244  14.328  0.00  0.00    +0.000 N 
ATOM      8  C   UNL     1       5.584   5.494  14.643  0.00  0.00    +0.000 A 
ATOM      9  C   UNL     1       5.191   5.429  15.958  0.00  0.00    +0.000 A 
ENDROOT
BRANCH   1  10
ATOM     10  C   UNL     1       5.958   7.525  17.114  0.00  0.00    +0.000 C 
BRANCH  10  11
ATOM     11  O   UNL     1       7.240   6.891  17.078  0.00  0.00    +0.000 OA
BRANCH  11  13
ATOM     12  C   UNL     1       7.931   5.792  19.077  0.00  0.00    +0.000 C 
ATOM     13  C   UNL     1       7.970   7.085  18.285  0.00  0.00    +0.000 C 
ENDBRANCH  11  13
ENDBRANCH  10  11
ENDBRANCH   1  10
BRANCH   3  14
ATOM     14  C   UNL     1       2.620   4.230  18.402  0.00  0.00    +0.000 C 
BRANCH  14  15
ATOM     15  C   UNL     1       2.168   3.602  19.692  0.00  0.00    +0.000 A 
ATOM     16  C   UNL     1       2.971   3.022  20.723  0.00  0.00    +0.000 A 
ATOM     17  C   UNL     1       2.108   2.580  21.698  0.00  0.00    +0.000 A 
ATOM     18  O   UNL     1       0.827   2.835  21.343  0.00  0.00    +0.000 OA
ATOM     19  C   UNL     1       0.866   3.447  20.131  0.00  0.00    +0.000 A 
ENDBRANCH  14  15
ENDBRANCH   3  14
BRANCH   7  20
ATOM     20  C   UNL     1       6.948   3.954  13.223  0.00  0.00    +0.000 C 
BRANCH  20  21
ATOM     21  C   UNL     1       6.279   3.563  11.941  0.00  0.00    +0.000 C 
ATOM     22  C   UNL     1       5.677   2.198  11.707  0.00  0.00    +0.000 C 
ATOM     23  C   UNL     1       4.776   3.379  11.919  0.00  0.00    +0.000 C 
ENDBRANCH  20  21
ENDBRANCH   7  20
TORSDOF 7
ENDMDL
MODEL 4
REMARK VINA RESULT:      -6.5      2.057      5.231
REMARK  Name = 
REMARK  8 active torsions:
REMARK  status: ('A' for Active; 'I' for Inactive)
REMARK    1  A    between atoms: C_1  and  C_2
REMARK    2  A    between atoms: C_2  and  O_3
REMARK    3  A    between atoms: O_3  and  C_4
REMARK    4  A    between atoms: C_4  and  C_5
REMARK    5  A    between atoms: N_7  and  C_8
REMARK    6  A    between atoms: C_8  and  C_9
REMARK    7  A    between atoms: N_17  and  C_18
REMARK    8  A    between atoms: C_18  and  C_19
REMARK                            x       y       z     vdW  Elec       q    Type
REMARK                         _______ _______ _______ _____ _____    ______ ____
ROOT
ATOM      1  C   UNL     1       5.861   3.581  16.034  0.00  0.00    +0.000 C 
ATOM      2  C   UNL     1       4.316   3.335  16.039  0.00  0.00    +0.000 C 
ATOM      3  N   UNL     1       3.542   3.468  17.291  0.00  0.00    +0.000 NA
ATOM      4  C   UNL     1       3.903   4.630  18.142  0.00  0.00    +0.000 C 
ATOM      5  C   UNL     1       5.373   4.920  18.152  0.00  0.00    +0.000 A 
ATOM      6  N   UNL     1       5.973   5.777  18.997  0.00  0.00    +0.000 NA
ATOM      7  N   UNL     1       7.266   5.775  18.582  0.00  0.00    +0.000 N 
ATOM      8  C   UNL     1       7.504   4.882  17.580  0.00  0.00    +0.000 A 
ATOM      9  C   UNL     1       6.271   4.414  17.197  0.00  0.00    +0.000 A 
ENDROOT
BRANCH   1  10
ATOM     10  C   UNL     1       6.231   4.259  14.688  0.00  0.00    +0.000 C 
BRANCH  10  11
ATOM     11  O   UNL     1       5.239   4.013  13.686  0.00  0.00    +0.000 OA
BRANCH  11  13
ATOM     12  C   UNL     1       4.662   3.071  11.573  0.00  0.00    +0.000 C 
ATOM     13  C   UNL     1       5.799   3.446  12.505  0.00  0.00    +0.000 C 
ENDBRANCH  11  13
ENDBRANCH  10  11
ENDBRANCH   1  10
BRANCH   3  14
ATOM     14  C   UNL     1       3.352   2.226  18.041  0.00  0.00    +0.000 C 
BRANCH  14  15
ATOM     15  C   UNL     1       2.692   2.514  19.361  0.00  0.00    +0.000 A 
ATOM     16  C   UNL     1       1.316   2.802  19.619  0.00  0.00    +0.000 A 
ATOM     17  C   UNL     1       1.198   2.997  20.975  0.00  0.00    +0.000 A 
ATOM     18  O   UNL     1       2.402   2.859  21.577  0.00  0.00    +0.000 OA
ATOM     19  C   UNL     1       3.302   2.573  20.601  0.00  0.00    +0.000 A 
ENDBRANCH  14  15
ENDBRANCH   3  14
BRANCH   7  20
ATOM     20  C   UNL     1       8.197   6.840  18.971  0.00  0.00    +0.000 C 
BRANCH  20  21
ATOM     21  C   UNL     1       8.378   7.916  17.945  0.00  0.00    +0.000 C 
ATOM     22  C   UNL     1       7.325   8.955  17.644  0.00  0.00    +0.000 C 
ATOM     23  C   UNL     1       8.559   9.349  18.401  0.00  0.00    +0.000 C 
ENDBRANCH  20  21
ENDBRANCH   7  20
TORSDOF 7
ENDMDL
MODEL 5
REMARK VINA RESULT:      -6.4      3.155      7.332
REMARK  Name = 
REMARK  8 active torsions:
REMARK  status: ('A' for Active; 'I' for Inactive)
REMARK    1  A    between atoms: C_1  and  C_2
REMARK    2  A    between atoms: C_2  and  O_3
REMARK    3  A    between atoms: O_3  and  C_4
REMARK    4  A    between atoms: C_4  and  C_5
REMARK    5  A    between atoms: N_7  and  C_8
REMARK    6  A    between atoms: C_8  and  C_9
REMARK    7  A    between atoms: N_17  and  C_18
REMARK    8  A    between atoms: C_18  and  C_19
REMARK                            x       y       z     vdW  Elec       q    Type
REMARK                         _______ _______ _______ _____ _____    ______ ____
ROOT
ATOM      1  C   UNL     1       2.406   4.868  18.959  0.00  0.00    +0.000 C 
ATOM      2  C   UNL     1       3.752   4.073  18.941  0.00  0.00    +0.000 C 
ATOM      3  N   UNL     1       4.815   4.424  17.975  0.00  0.00    +0.000 NA
ATOM      4  C   UNL     1       5.047   5.878  17.786  0.00  0.00    +0.000 C 
ATOM      5  C   UNL     1       3.786   6.687  17.817  0.00  0.00    +0.000 A 
ATOM      6  N   UNL     1       3.704   7.982  17.465  0.00  0.00    +0.000 NA
ATOM      7  N   UNL     1       2.412   8.300  17.734  0.00  0.00    +0.000 N 
ATOM      8  C   UNL     1       1.673   7.231  18.146  0.00  0.00    +0.000 A 
ATOM      9  C   UNL     1       2.570   6.208  18.333  0.00  0.00    +0.000 A 
ENDROOT
BRANCH   1  10
ATOM     10  C   UNL     1       1.939   4.981  20.435  0.00  0.00    +0.000 C 
BRANCH  10  11
ATOM     11  O   UNL     1       0.769   4.194  20.678  0.00  0.00    +0.000 OA
BRANCH  11  13
ATOM     12  C   UNL     1       2.011   2.516  21.828  0.00  0.00    +0.000 C 
ATOM     13  C   UNL     1       1.052   2.799  20.687  0.00  0.00    +0.000 C 
ENDBRANCH  11  13
ENDBRANCH  10  11
ENDBRANCH   1  10
BRANCH   3  14
ATOM     14  C   UNL     1       4.796   3.662  16.725  0.00  0.00    +0.000 C 
BRANCH  14  15
ATOM     15  C   UNL     1       5.845   4.187  15.784  0.00  0.00    +0.000 A 
ATOM     16  C   UNL     1       5.731   4.437  14.382  0.00  0.00    +0.000 A 
ATOM     17  C   UNL     1       6.952   4.908  13.960  0.00  0.00    +0.000 A 
ATOM     18  O   UNL     1       7.819   4.960  14.997  0.00  0.00    +0.000 OA
ATOM     19  C   UNL     1       7.151   4.521  16.095  0.00  0.00    +0.000 A 
ENDBRANCH  14  15
ENDBRANCH   3  14
BRANCH   7  20
ATOM     20  C   UNL     1       1.976   9.696  17.857  0.00  0.00    +0.000 C 
BRANCH  20  21
ATOM     21  C   UNL     1       0.893   9.924  18.866  0.00  0.00    +0.000 C 
ATOM     22  C   UNL     1       0.336  11.291  19.185  0.00  0.00    +0.000 C 
ATOM     23  C   UNL     1      -0.489  10.321  18.390  0.00  0.00    +0.000 C 
ENDBRANCH  20  21
ENDBRANCH   7  20
TORSDOF 7
ENDMDL
MODEL 6
REMARK VINA RESULT:      -6.4      2.708      7.634
REMARK  Name = 
REMARK  8 active torsions:
REMARK  status: ('A' for Active; 'I' for Inactive)
REMARK    1  A    between atoms: C_1  and  C_2
REMARK    2  A    between atoms: C_2  and  O_3
REMARK    3  A    between atoms: O_3  and  C_4
REMARK    4  A    between atoms: C_4  and  C_5
REMARK    5  A    between atoms: N_7  and  C_8
REMARK    6  A    between atoms: C_8  and  C_9
REMARK    7  A    between atoms: N_17  and  C_18
REMARK    8  A    between atoms: C_18  and  C_19
REMARK                            x       y       z     vdW  Elec       q    Type
REMARK                         _______ _______ _______ _____ _____    ______ ____
ROOT
ATOM      1  C   UNL     1       3.808   3.997  18.462  0.00  0.00    +0.000 C 
ATOM      2  C   UNL     1       5.102   3.787  17.610  0.00  0.00    +0.000 C 
ATOM      3  N   UNL     1       5.417   4.702  16.492  0.00  0.00    +0.000 NA
ATOM      4  C   UNL     1       5.181   6.142  16.763  0.00  0.00    +0.000 C 
ATOM      5  C   UNL     1       3.962   6.394  17.598  0.00  0.00    +0.000 A 
ATOM      6  N   UNL     1       3.419   7.607  17.804  0.00  0.00    +0.000 NA
ATOM      7  N   UNL     1       2.407   7.355  18.673  0.00  0.00    +0.000 N 
ATOM      8  C   UNL     1       2.245   6.026  18.935  0.00  0.00    +0.000 A 
ATOM      9  C   UNL     1       3.321   5.399  18.355  0.00  0.00    +0.000 A 
ENDROOT
BRANCH   1  10
ATOM     10  C   UNL     1       4.139   3.620  19.930  0.00  0.00    +0.000 C 
BRANCH  10  11
ATOM     11  O   UNL     1       3.370   2.496  20.371  0.00  0.00    +0.000 OA
BRANCH  11  13
ATOM     12  C   UNL     1       1.156   3.126  20.992  0.00  0.00    +0.000 C 
ATOM     13  C   UNL     1       2.553   2.812  21.494  0.00  0.00    +0.000 C 
ENDBRANCH  11  13
ENDBRANCH  10  11
ENDBRANCH   1  10
BRANCH   3  14
ATOM     14  C   UNL     1       4.946   4.265  15.177  0.00  0.00    +0.000 C 
BRANCH  14  15
ATOM     15  C   UNL     1       6.030   4.449  14.152  0.00  0.00    +0.000 A 
ATOM     16  C   UNL     1       6.181   3.786  12.894  0.00  0.00    +0.000 A 
ATOM     17  C   UNL     1       7.323   4.286  12.315  0.00  0.00    +0.000 A 
ATOM     18  O   UNL     1       7.897   5.205  13.125  0.00  0.00    +0.000 OA
ATOM     19  C   UNL     1       7.119   5.298  14.234  0.00  0.00    +0.000 A 
ENDBRANCH  14  15
ENDBRANCH   3  14
BRANCH   7  20
ATOM     20  C   UNL     1       1.786   8.427  19.458  0.00  0.00    +0.000 C 
BRANCH  20  21
ATOM     21  C   UNL     1       1.441   8.049  20.866  0.00  0.00    +0.000 C 
ATOM     22  C   UNL     1       1.310   9.057  21.983  0.00  0.00    +0.000 C 
ATOM     23  C   UNL     1       0.078   8.414  21.416  0.00  0.00    +0.000 C 
ENDBRANCH  20  21
ENDBRANCH   7  20
TORSDOF 7
ENDMDL
MODEL 7
REMARK VINA RESULT:      -6.3      3.732      5.575
REMARK  Name = 
REMARK  8 active torsions:
REMARK  status: ('A' for Active; 'I' for Inactive)
REMARK    1  A    between atoms: C_1  and  C_2
REMARK    2  A    between atoms: C_2  and  O_3
REMARK    3  A    between atoms: O_3  and  C_4
REMARK    4  A    between atoms: C_4  and  C_5
REMARK    5  A    between atoms: N_7  and  C_8
REMARK    6  A    between atoms: C_8  and  C_9
REMARK    7  A    between atoms: N_17  and  C_18
REMARK    8  A    between atoms: C_18  and  C_19
REMARK                            x       y       z     vdW  Elec       q    Type
REMARK                         _______ _______ _______ _____ _____    ______ ____
ROOT
ATOM      1  C   UNL     1       2.777   5.125  20.259  0.00  0.00    +0.000 C 
ATOM      2  C   UNL     1       1.500   5.920  20.687  0.00  0.00    +0.000 C 
ATOM      3  N   UNL     1       1.395   7.370  20.414  0.00  0.00    +0.000 NA
ATOM      4  C   UNL     1       1.872   7.800  19.076  0.00  0.00    +0.000 C 
ATOM      5  C   UNL     1       3.084   7.051  18.611  0.00  0.00    +0.000 A 
ATOM      6  N   UNL     1       3.825   7.392  17.542  0.00  0.00    +0.000 NA
ATOM      7  N   UNL     1       4.742   6.394  17.464  0.00  0.00    +0.000 N 
ATOM      8  C   UNL     1       4.656   5.506  18.496  0.00  0.00    +0.000 A 
ATOM      9  C   UNL     1       3.509   5.837  19.176  0.00  0.00    +0.000 A 
ENDROOT
BRANCH   1  10
ATOM     10  C   UNL     1       2.328   3.710  19.809  0.00  0.00    +0.000 C 
BRANCH  10  11
ATOM     11  O   UNL     1       3.320   2.723  20.110  0.00  0.00    +0.000 OA
BRANCH  11  13
ATOM     12  C   UNL     1       2.732   2.331  17.833  0.00  0.00    +0.000 C 
ATOM     13  C   UNL     1       3.629   1.910  18.982  0.00  0.00    +0.000 C 
ENDBRANCH  11  13
ENDBRANCH  10  11
ENDBRANCH   1  10
BRANCH   3  14
ATOM     14  C   UNL     1       1.832   8.242  21.505  0.00  0.00    +0.000 C 
BRANCH  14  15
ATOM     15  C   UNL     1       0.731   9.198  21.875  0.00  0.00    +0.000 A 
ATOM     16  C   UNL     1       0.150   9.423  23.161  0.00  0.00    +0.000 A 
ATOM     17  C   UNL     1      -0.818  10.386  22.997  0.00  0.00    +0.000 A 
ATOM     18  O   UNL     1      -0.886  10.768  21.701  0.00  0.00    +0.000 OA
ATOM     19  C   UNL     1       0.046  10.047  21.026  0.00  0.00    +0.000 A 
ENDBRANCH  14  15
ENDBRANCH   3  14
BRANCH   7  20
ATOM     20  C   UNL     1       5.513   6.155  16.239  0.00  0.00    +0.000 C 
BRANCH  20  21
ATOM     21  C   UNL     1       5.173   4.882  15.526  0.00  0.00    +0.000 C 
ATOM     22  C   UNL     1       5.876   4.426  14.271  0.00  0.00    +0.000 C 
ATOM     23  C   UNL     1       6.150   3.727  15.570  0.00  0.00    +0.000 C 
ENDBRANCH  20  21
ENDBRANCH   7  20
TORSDOF 7
ENDMDL
MODEL 8
REMARK VINA RESULT:      -6.3      3.361      5.472
REMARK  Name = 
REMARK  8 active torsions:
REMARK  status: ('A' for Active; 'I' for Inactive)
REMARK    1  A    between atoms: C_1  and  C_2
REMARK    2  A    between atoms: C_2  and  O_3
REMARK    3  A    between atoms: O_3  and  C_4
REMARK    4  A    between atoms: C_4  and  C_5
REMARK    5  A    between atoms: N_7  and  C_8
REMARK    6  A    between atoms: C_8  and  C_9
REMARK    7  A    between atoms: N_17  and  C_18
REMARK    8  A    between atoms: C_18  and  C_19
REMARK                            x       y       z     vdW  Elec       q    Type
REMARK                         _______ _______ _______ _____ _____    ______ ____
ROOT
ATOM      1  C   UNL     1       3.328   4.961  20.149  0.00  0.00    +0.000 C 
ATOM      2  C   UNL     1       1.940   5.675  20.043  0.00  0.00    +0.000 C 
ATOM      3  N   UNL     1       1.836   7.021  19.440  0.00  0.00    +0.000 NA
ATOM      4  C   UNL     1       2.643   7.232  18.212  0.00  0.00    +0.000 C 
ATOM      5  C   UNL     1       3.976   6.547  18.256  0.00  0.00    +0.000 A 
ATOM      6  N   UNL     1       4.966   6.752  17.370  0.00  0.00    +0.000 NA
ATOM      7  N   UNL     1       5.922   5.868  17.755  0.00  0.00    +0.000 N 
ATOM      8  C   UNL     1       5.600   5.197  18.898  0.00  0.00    +0.000 A 
ATOM      9  C   UNL     1       4.292   5.523  19.165  0.00  0.00    +0.000 A 
ENDROOT
BRANCH   1  10
ATOM     10  C   UNL     1       3.100   3.443  19.921  0.00  0.00    +0.000 C 
BRANCH  10  11
ATOM     11  O   UNL     1       1.886   3.195  19.204  0.00  0.00    +0.000 OA
BRANCH  11  13
ATOM     12  C   UNL     1       3.509   1.989  17.942  0.00  0.00    +0.000 C 
ATOM     13  C   UNL     1       2.032   2.152  18.245  0.00  0.00    +0.000 C 
ENDBRANCH  11  13
ENDBRANCH  10  11
ENDBRANCH   1  10
BRANCH   3  14
ATOM     14  C   UNL     1       1.903   8.135  20.387  0.00  0.00    +0.000 C 
BRANCH  14  15
ATOM     15  C   UNL     1       0.869   9.171  20.041  0.00  0.00    +0.000 A 
ATOM     16  C   UNL     1       0.704   9.880  18.811  0.00  0.00    +0.000 A 
ATOM     17  C   UNL     1      -0.373  10.719  18.976  0.00  0.00    +0.000 A 
ATOM     18  O   UNL     1      -0.883  10.588  20.223  0.00  0.00    +0.000 OA
ATOM     19  C   UNL     1      -0.129   9.658  20.864  0.00  0.00    +0.000 A 
ENDBRANCH  14  15
ENDBRANCH   3  14
BRANCH   7  20
ATOM     20  C   UNL     1       7.015   5.482  16.857  0.00  0.00    +0.000 C 
BRANCH  20  21
ATOM     21  C   UNL     1       6.704   4.325  15.958  0.00  0.00    +0.000 C 
ATOM     22  C   UNL     1       5.436   4.229  15.145  0.00  0.00    +0.000 C 
ATOM     23  C   UNL     1       6.736   4.526  14.457  0.00  0.00    +0.000 C 
ENDBRANCH  20  21
ENDBRANCH   7  20
TORSDOF 7
ENDMDL
MODEL 9
REMARK VINA RESULT:      -6.3      3.845      6.373
REMARK  Name = 
REMARK  8 active torsions:
REMARK  status: ('A' for Active; 'I' for Inactive)
REMARK    1  A    between atoms: C_1  and  C_2
REMARK    2  A    between atoms: C_2  and  O_3
REMARK    3  A    between atoms: O_3  and  C_4
REMARK    4  A    between atoms: C_4  and  C_5
REMARK    5  A    between atoms: N_7  and  C_8
REMARK    6  A    between atoms: C_8  and  C_9
REMARK    7  A    between atoms: N_17  and  C_18
REMARK    8  A    between atoms: C_18  and  C_19
REMARK                            x       y       z     vdW  Elec       q    Type
REMARK                         _______ _______ _______ _____ _____    ______ ____
ROOT
ATOM      1  C   UNL     1       2.197   5.382  20.763  0.00  0.00    +0.000 C 
ATOM      2  C   UNL     1       1.078   6.452  20.981  0.00  0.00    +0.000 C 
ATOM      3  N   UNL     1       1.266   7.840  20.505  0.00  0.00    +0.000 NA
ATOM      4  C   UNL     1       1.882   7.972  19.161  0.00  0.00    +0.000 C 
ATOM      5  C   UNL     1       2.948   6.953  18.895  0.00  0.00    +0.000 A 
ATOM      6  N   UNL     1       3.792   6.990  17.849  0.00  0.00    +0.000 NA
ATOM      7  N   UNL     1       4.503   5.840  17.978  0.00  0.00    +0.000 N 
ATOM      8  C   UNL     1       4.198   5.147  19.111  0.00  0.00    +0.000 A 
ATOM      9  C   UNL     1       3.104   5.779  19.651  0.00  0.00    +0.000 A 
ENDROOT
BRANCH   1  10
ATOM     10  C   UNL     1       1.507   4.022  20.478  0.00  0.00    +0.000 C 
BRANCH  10  11
ATOM     11  O   UNL     1       1.090   3.920  19.113  0.00  0.00    +0.000 OA
BRANCH  11  13
ATOM     12  C   UNL     1       2.293   2.294  17.852  0.00  0.00    +0.000 C 
ATOM     13  C   UNL     1       1.043   2.568  18.666  0.00  0.00    +0.000 C 
ENDBRANCH  11  13
ENDBRANCH  10  11
ENDBRANCH   1  10
BRANCH   3  14
ATOM     14  C   UNL     1       1.809   8.769  21.496  0.00  0.00    +0.000 C 
BRANCH  14  15
ATOM     15  C   UNL     1       0.712   9.640  22.044  0.00  0.00    +0.000 A 
ATOM     16  C   UNL     1       0.123  10.799  21.451  0.00  0.00    +0.000 A 
ATOM     17  C   UNL     1      -0.835  11.252  22.328  0.00  0.00    +0.000 A 
ATOM     18  O   UNL     1      -0.877  10.463  23.426  0.00  0.00    +0.000 OA
ATOM     19  C   UNL     1       0.060   9.495  23.255  0.00  0.00    +0.000 A 
ENDBRANCH  14  15
ENDBRANCH   3  14
BRANCH   7  20
ATOM     20  C   UNL     1       5.272   5.286  16.858  0.00  0.00    +0.000 C 
BRANCH  20  21
ATOM     21  C   UNL     1       6.739   5.583  16.902  0.00  0.00    +0.000 C 
ATOM     22  C   UNL     1       7.450   6.053  18.149  0.00  0.00    +0.000 C 
ATOM     23  C   UNL     1       7.660   4.650  17.661  0.00  0.00    +0.000 C 
ENDBRANCH  20  21
ENDBRANCH   7  20
TORSDOF 7
ENDMDL
