MODEL 1
REMARK VINA RESULT:      -7.5      0.000      0.000
REMARK  Name = 
REMARK  5 active torsions:
REMARK  status: ('A' for Active; 'I' for Inactive)
REMARK    1  A    between atoms: C_1  and  C_2
REMARK    2  A    between atoms: N_4  and  C_5
REMARK    3  A    between atoms: C_13  and  C_14
REMARK    4  A    between atoms: N_16  and  C_17
REMARK    5  A    between atoms: C_20  and  N_21
REMARK                            x       y       z     vdW  Elec       q    Type
REMARK                         _______ _______ _______ _____ _____    ______ ____
ROOT
ATOM      1  C   UNL     1      -0.346  10.430  22.660  0.00  0.00    +0.000 C 
ATOM      2  C   UNL     1       0.098  10.679  21.268  0.00  0.00    +0.000 A 
ATOM      3  N   UNL     1      -0.021  11.912  20.714  0.00  0.00    +0.000 NA
ATOM      4  N   UNL     1       0.513  11.777  19.464  0.00  0.00    +0.000 N 
ATOM      5  C   UNL     1       0.861  10.496  19.216  0.00  0.00    +0.000 A 
ATOM      6  S   UNL     1       1.587   9.651  17.990  0.00  0.00    +0.000 S 
ATOM      7  C   UNL     1       1.812   8.301  19.071  0.00  0.00    +0.000 A 
ATOM      8  C   UNL     1       1.222   8.530  20.325  0.00  0.00    +0.000 A 
ATOM      9  C   UNL     1       0.699   9.820  20.352  0.00  0.00    +0.000 A 
ENDROOT
BRANCH   4  10
ATOM     10  C   UNL     1       1.000  12.911  18.682  0.00  0.00    +0.000 C 
ATOM     11  C   UNL     1       0.137  14.171  18.747  0.00  0.00    +0.000 C 
ATOM     12  C   UNL     1       0.462  15.095  19.915  0.00  0.00    +0.000 C 
ATOM     13  C   UNL     1       1.957  15.359  20.043  0.00  0.00    +0.000 C 
ATOM     14  C   UNL     1       2.742  14.061  20.165  0.00  0.00    +0.000 C 
ATOM     15  C   UNL     1       2.494  13.161  18.960  0.00  0.00    +0.000 C 
ENDBRANCH   4  10
BRANCH   7  16
ATOM     16  C   UNL     1       2.600   7.143  18.651  0.00  0.00    +0.000 C 
ATOM     17  O   UNL     1       3.559   7.288  17.899  0.00  0.00    +0.000 OA
ATOM     18  N   UNL     1       2.157   5.927  19.152  0.00  0.00    +0.000 N 
ATOM     19  H   UNL     1       1.361   5.973  19.774  0.00  0.00    +0.000 HD
BRANCH  18  20
ATOM     20  C   UNL     1       2.711   4.649  18.941  0.00  0.00    +0.000 A 
ATOM     21  C   UNL     1       3.737   4.121  19.726  0.00  0.00    +0.000 A 
ATOM     22  C   UNL     1       4.209   2.824  19.502  0.00  0.00    +0.000 A 
ATOM     23  C   UNL     1       3.708   2.047  18.461  0.00  0.00    +0.000 A 
ATOM     24  C   UNL     1       2.669   2.564  17.688  0.00  0.00    +0.000 A 
ATOM     25  C   UNL     1       2.188   3.863  17.904  0.00  0.00    +0.000 A 
BRANCH  23  26
ATOM     26  N   UNL     1       4.074   0.701  18.360  0.00  0.00    +0.000 N 
ATOM     27  H   UNL     1       4.944   0.478  18.832  0.00  0.00    +0.000 HD
ATOM     28  H   UNL     1       4.033   0.323  17.420  0.00  0.00    +0.000 HD
ENDBRANCH  23  26
ENDBRANCH  18  20
ENDBRANCH   7  16
TORSDOF 4
ENDMDL
MODEL 2
REMARK VINA RESULT:      -7.3      0.628      1.201
REMARK  Name = 
REMARK  5 active torsions:
REMARK  status: ('A' for Active; 'I' for Inactive)
REMARK    1  A    between atoms: C_1  and  C_2
REMARK    2  A    between atoms: N_4  and  C_5
REMARK    3  A    between atoms: C_13  and  C_14
REMARK    4  A    between atoms: N_16  and  C_17
REMARK    5  A    between atoms: C_20  and  N_21
REMARK                            x       y       z     vdW  Elec       q    Type
REMARK                         _______ _______ _______ _____ _____    ______ ____
ROOT
ATOM      1  C   UNL     1      -0.333  10.006  23.104  0.00  0.00    +0.000 C 
ATOM      2  C   UNL     1       0.177  10.337  21.752  0.00  0.00    +0.000 A 
ATOM      3  N   UNL     1       0.175  11.619  21.308  0.00  0.00    +0.000 NA
ATOM      4  N   UNL     1       0.740  11.550  20.066  0.00  0.00    +0.000 N 
ATOM      5  C   UNL     1       0.994  10.271  19.714  0.00  0.00    +0.000 A 
ATOM      6  S   UNL     1       1.693   9.480  18.438  0.00  0.00    +0.000 S 
ATOM      7  C   UNL     1       1.773   8.027  19.400  0.00  0.00    +0.000 A 
ATOM      8  C   UNL     1       1.160   8.193  20.652  0.00  0.00    +0.000 A 
ATOM      9  C   UNL     1       0.740   9.515  20.780  0.00  0.00    +0.000 A 
ENDROOT
BRANCH   4  10
ATOM     10  C   UNL     1       1.342  12.704  19.402  0.00  0.00    +0.000 C 
ATOM     11  C   UNL     1       0.374  13.581  18.608  0.00  0.00    +0.000 C 
ATOM     12  C   UNL     1      -0.312  14.665  19.431  0.00  0.00    +0.000 C 
ATOM     13  C   UNL     1       0.675  15.449  20.289  0.00  0.00    +0.000 C 
ATOM     14  C   UNL     1       1.477  14.526  21.196  0.00  0.00    +0.000 C 
ATOM     15  C   UNL     1       2.237  13.487  20.380  0.00  0.00    +0.000 C 
ENDBRANCH   4  10
BRANCH   7  16
ATOM     16  C   UNL     1       2.482   6.850  18.900  0.00  0.00    +0.000 C 
ATOM     17  O   UNL     1       3.403   6.976  18.098  0.00  0.00    +0.000 OA
ATOM     18  N   UNL     1       2.012   5.638  19.388  0.00  0.00    +0.000 N 
ATOM     19  H   UNL     1       1.256   5.700  20.057  0.00  0.00    +0.000 HD
BRANCH  18  20
ATOM     20  C   UNL     1       2.493   4.345  19.107  0.00  0.00    +0.000 A 
ATOM     21  C   UNL     1       2.124   3.621  17.972  0.00  0.00    +0.000 A 
ATOM     22  C   UNL     1       2.679   2.362  17.719  0.00  0.00    +0.000 A 
ATOM     23  C   UNL     1       3.569   1.776  18.615  0.00  0.00    +0.000 A 
ATOM     24  C   UNL     1       3.956   2.506  19.739  0.00  0.00    +0.000 A 
ATOM     25  C   UNL     1       3.406   3.768  20.003  0.00  0.00    +0.000 A 
BRANCH  23  26
ATOM     26  N   UNL     1       4.235   0.598  18.263  0.00  0.00    +0.000 N 
ATOM     27  H   UNL     1       4.208  -0.116  18.983  0.00  0.00    +0.000 HD
ATOM     28  H   UNL     1       5.166   0.737  17.885  0.00  0.00    +0.000 HD
ENDBRANCH  23  26
ENDBRANCH  18  20
ENDBRANCH   7  16
TORSDOF 4
ENDMDL
MODEL 3
REMARK VINA RESULT:      -7.1      1.869      2.044
REMARK  Name = 
REMARK  5 active torsions:
REMARK  status: ('A' for Active; 'I' for Inactive)
REMARK    1  A    between atoms: C_1  and  C_2
REMARK    2  A    between atoms: N_4  and  C_5
REMARK    3  A    between atoms: C_13  and  C_14
REMARK    4  A    between atoms: N_16  and  C_17
REMARK    5  A    between atoms: C_20  and  N_21
REMARK                            x       y       z     vdW  Elec       q    Type
REMARK                         _______ _______ _______ _____ _____    ______ ____
ROOT
ATOM      1  C   UNL     1      -0.779  10.429  23.049  0.00  0.00    +0.000 C 
ATOM      2  C   UNL     1      -0.289  10.600  21.660  0.00  0.00    +0.000 A 
ATOM      3  N   UNL     1      -0.436  11.786  21.017  0.00  0.00    +0.000 NA
ATOM      4  N   UNL     1       0.154  11.588  19.800  0.00  0.00    +0.000 N 
ATOM      5  C   UNL     1       0.563  10.308  19.656  0.00  0.00    +0.000 A 
ATOM      6  S   UNL     1       1.371   9.413  18.521  0.00  0.00    +0.000 S 
ATOM      7  C   UNL     1       1.606   8.152  19.703  0.00  0.00    +0.000 A 
ATOM      8  C   UNL     1       0.957   8.441  20.914  0.00  0.00    +0.000 A 
ATOM      9  C   UNL     1       0.382   9.706  20.830  0.00  0.00    +0.000 A 
ENDROOT
BRANCH   4  10
ATOM     10  C   UNL     1       0.627  12.685  18.959  0.00  0.00    +0.000 C 
ATOM     11  C   UNL     1      -0.268  13.924  18.934  0.00  0.00    +0.000 C 
ATOM     12  C   UNL     1       0.012  14.924  20.049  0.00  0.00    +0.000 C 
ATOM     13  C   UNL     1       1.498  15.235  20.185  0.00  0.00    +0.000 C 
ATOM     14  C   UNL     1       2.313  13.967  20.398  0.00  0.00    +0.000 C 
ATOM     15  C   UNL     1       2.109  12.990  19.246  0.00  0.00    +0.000 C 
ENDBRANCH   4  10
BRANCH   7  16
ATOM     16  C   UNL     1       2.456   7.003  19.395  0.00  0.00    +0.000 C 
ATOM     17  O   UNL     1       2.663   6.141  20.245  0.00  0.00    +0.000 OA
ATOM     18  N   UNL     1       2.991   7.003  18.114  0.00  0.00    +0.000 N 
ATOM     19  H   UNL     1       2.713   7.775  17.524  0.00  0.00    +0.000 HD
BRANCH  18  20
ATOM     20  C   UNL     1       3.826   6.035  17.524  0.00  0.00    +0.000 A 
ATOM     21  C   UNL     1       3.496   4.681  17.450  0.00  0.00    +0.000 A 
ATOM     22  C   UNL     1       4.342   3.775  16.802  0.00  0.00    +0.000 A 
ATOM     23  C   UNL     1       5.557   4.187  16.263  0.00  0.00    +0.000 A 
ATOM     24  C   UNL     1       5.881   5.543  16.316  0.00  0.00    +0.000 A 
ATOM     25  C   UNL     1       5.040   6.460  16.964  0.00  0.00    +0.000 A 
BRANCH  23  26
ATOM     26  N   UNL     1       6.306   3.304  15.479  0.00  0.00    +0.000 N 
ATOM     27  H   UNL     1       7.293   3.291  15.709  0.00  0.00    +0.000 HD
ATOM     28  H   UNL     1       6.139   3.381  14.481  0.00  0.00    +0.000 HD
ENDBRANCH  23  26
ENDBRANCH  18  20
ENDBRANCH   7  16
TORSDOF 4
ENDMDL
MODEL 4
REMARK VINA RESULT:      -7.1      1.092      1.125
REMARK  Name = 
REMARK  5 active torsions:
REMARK  status: ('A' for Active; 'I' for Inactive)
REMARK    1  A    between atoms: C_1  and  C_2
REMARK    2  A    between atoms: N_4  and  C_5
REMARK    3  A    between atoms: C_13  and  C_14
REMARK    4  A    between atoms: N_16  and  C_17
REMARK    5  A    between atoms: C_20  and  N_21
REMARK                            x       y       z     vdW  Elec       q    Type
REMARK                         _______ _______ _______ _____ _____    ______ ____
ROOT
ATOM      1  C   UNL     1      -0.635  11.061  22.701  0.00  0.00    +0.000 C 
ATOM      2  C   UNL     1      -0.156  11.241  21.310  0.00  0.00    +0.000 A 
ATOM      3  N   UNL     1      -0.242  12.451  20.700  0.00  0.00    +0.000 NA
ATOM      4  N   UNL     1       0.318  12.252  19.470  0.00  0.00    +0.000 N 
ATOM      5  C   UNL     1       0.649  10.955  19.285  0.00  0.00    +0.000 A 
ATOM      6  S   UNL     1       1.386  10.045  18.115  0.00  0.00    +0.000 S 
ATOM      7  C   UNL     1       1.564   8.741  19.259  0.00  0.00    +0.000 A 
ATOM      8  C   UNL     1       0.951   9.034  20.487  0.00  0.00    +0.000 A 
ATOM      9  C   UNL     1       0.449  10.333  20.446  0.00  0.00    +0.000 A 
ENDROOT
BRANCH   4  10
ATOM     10  C   UNL     1       0.842  13.342  18.651  0.00  0.00    +0.000 C 
ATOM     11  C   UNL     1       0.133  14.686  18.818  0.00  0.00    +0.000 C 
ATOM     12  C   UNL     1       0.677  15.546  19.953  0.00  0.00    +0.000 C 
ATOM     13  C   UNL     1       2.198  15.645  19.924  0.00  0.00    +0.000 C 
ATOM     14  C   UNL     1       2.844  14.267  19.951  0.00  0.00    +0.000 C 
ATOM     15  C   UNL     1       2.375  13.423  18.771  0.00  0.00    +0.000 C 
ENDBRANCH   4  10
BRANCH   7  16
ATOM     16  C   UNL     1       2.340   7.553  18.907  0.00  0.00    +0.000 C 
ATOM     17  O   UNL     1       2.902   7.480  17.817  0.00  0.00    +0.000 OA
ATOM     18  N   UNL     1       2.356   6.561  19.878  0.00  0.00    +0.000 N 
ATOM     19  H   UNL     1       1.859   6.777  20.732  0.00  0.00    +0.000 HD
BRANCH  18  20
ATOM     20  C   UNL     1       3.022   5.321  19.840  0.00  0.00    +0.000 A 
ATOM     21  C   UNL     1       4.307   5.158  19.319  0.00  0.00    +0.000 A 
ATOM     22  C   UNL     1       4.938   3.910  19.359  0.00  0.00    +0.000 A 
ATOM     23  C   UNL     1       4.285   2.791  19.867  0.00  0.00    +0.000 A 
ATOM     24  C   UNL     1       3.009   2.955  20.406  0.00  0.00    +0.000 A 
ATOM     25  C   UNL     1       2.367   4.200  20.372  0.00  0.00    +0.000 A 
BRANCH  23  26
ATOM     26  N   UNL     1       4.991   1.597  20.048  0.00  0.00    +0.000 N 
ATOM     27  H   UNL     1       5.994   1.724  20.120  0.00  0.00    +0.000 HD
ATOM     28  H   UNL     1       4.736   0.855  19.404  0.00  0.00    +0.000 HD
ENDBRANCH  23  26
ENDBRANCH  18  20
ENDBRANCH   7  16
TORSDOF 4
ENDMDL
MODEL 5
REMARK VINA RESULT:      -7.0      2.612      3.801
REMARK  Name = 
REMARK  5 active torsions:
REMARK  status: ('A' for Active; 'I' for Inactive)
REMARK    1  A    between atoms: C_1  and  C_2
REMARK    2  A    between atoms: N_4  and  C_5
REMARK    3  A    between atoms: C_13  and  C_14
REMARK    4  A    between atoms: N_16  and  C_17
REMARK    5  A    between atoms: C_20  and  N_21
REMARK                            x       y       z     vdW  Elec       q    Type
REMARK                         _______ _______ _______ _____ _____    ______ ____
ROOT
ATOM      1  C   UNL     1      -3.740  11.646  18.366  0.00  0.00    +0.000 C 
ATOM      2  C   UNL     1      -2.547  11.757  19.238  0.00  0.00    +0.000 A 
ATOM      3  N   UNL     1      -2.601  12.461  20.397  0.00  0.00    +0.000 NA
ATOM      4  N   UNL     1      -1.357  12.315  20.943  0.00  0.00    +0.000 N 
ATOM      5  C   UNL     1      -0.536  11.632  20.115  0.00  0.00    +0.000 A 
ATOM      6  S   UNL     1       1.018  11.061  20.147  0.00  0.00    +0.000 S 
ATOM      7  C   UNL     1       0.666  10.064  18.760  0.00  0.00    +0.000 A 
ATOM      8  C   UNL     1      -0.630  10.290  18.266  0.00  0.00    +0.000 A 
ATOM      9  C   UNL     1      -1.279  11.199  19.099  0.00  0.00    +0.000 A 
ENDROOT
BRANCH   4  10
ATOM     10  C   UNL     1      -1.085  12.515  22.364  0.00  0.00    +0.000 C 
ATOM     11  C   UNL     1      -0.966  13.973  22.809  0.00  0.00    +0.000 C 
ATOM     12  C   UNL     1      -2.293  14.627  23.177  0.00  0.00    +0.000 C 
ATOM     13  C   UNL     1      -3.125  13.757  24.112  0.00  0.00    +0.000 C 
ATOM     14  C   UNL     1      -3.366  12.376  23.519  0.00  0.00    +0.000 C 
ATOM     15  C   UNL     1      -2.046  11.674  23.224  0.00  0.00    +0.000 C 
ENDBRANCH   4  10
BRANCH   7  16
ATOM     16  C   UNL     1       1.644   9.085  18.288  0.00  0.00    +0.000 C 
ATOM     17  O   UNL     1       2.221   9.254  17.217  0.00  0.00    +0.000 OA
ATOM     18  N   UNL     1       1.825   7.994  19.126  0.00  0.00    +0.000 N 
ATOM     19  H   UNL     1       1.288   8.006  19.983  0.00  0.00    +0.000 HD
BRANCH  18  20
ATOM     20  C   UNL     1       2.700   6.904  18.953  0.00  0.00    +0.000 A 
ATOM     21  C   UNL     1       3.638   6.831  17.923  0.00  0.00    +0.000 A 
ATOM     22  C   UNL     1       4.518   5.748  17.835  0.00  0.00    +0.000 A 
ATOM     23  C   UNL     1       4.448   4.691  18.738  0.00  0.00    +0.000 A 
ATOM     24  C   UNL     1       3.525   4.770  19.782  0.00  0.00    +0.000 A 
ATOM     25  C   UNL     1       2.638   5.852  19.879  0.00  0.00    +0.000 A 
BRANCH  23  26
ATOM     26  N   UNL     1       5.439   3.704  18.733  0.00  0.00    +0.000 N 
ATOM     27  H   UNL     1       6.322   4.016  18.344  0.00  0.00    +0.000 HD
ATOM     28  H   UNL     1       5.141   2.810  18.358  0.00  0.00    +0.000 HD
ENDBRANCH  23  26
ENDBRANCH  18  20
ENDBRANCH   7  16
TORSDOF 4
ENDMDL
MODEL 6
REMARK VINA RESULT:      -7.0      2.366      9.095
REMARK  Name = 
REMARK  5 active torsions:
REMARK  status: ('A' for Active; 'I' for Inactive)
REMARK    1  A    between atoms: C_1  and  C_2
REMARK    2  A    between atoms: N_4  and  C_5
REMARK    3  A    between atoms: C_13  and  C_14
REMARK    4  A    between atoms: N_16  and  C_17
REMARK    5  A    between atoms: C_20  and  N_21
REMARK                            x       y       z     vdW  Elec       q    Type
REMARK                         _______ _______ _______ _____ _____    ______ ____
ROOT
ATOM      1  C   UNL     1       6.423   5.369  15.872  0.00  0.00    +0.000 C 
ATOM      2  C   UNL     1       5.249   4.889  16.639  0.00  0.00    +0.000 A 
ATOM      3  N   UNL     1       5.079   3.565  16.887  0.00  0.00    +0.000 NA
ATOM      4  N   UNL     1       3.937   3.502  17.635  0.00  0.00    +0.000 N 
ATOM      5  C   UNL     1       3.369   4.721  17.765  0.00  0.00    +0.000 A 
ATOM      6  S   UNL     1       2.065   5.375  18.549  0.00  0.00    +0.000 S 
ATOM      7  C   UNL     1       2.713   6.970  18.268  0.00  0.00    +0.000 A 
ATOM      8  C   UNL     1       3.878   6.933  17.485  0.00  0.00    +0.000 A 
ATOM      9  C   UNL     1       4.214   5.604  17.236  0.00  0.00    +0.000 A 
ENDROOT
BRANCH   4  10
ATOM     10  C   UNL     1       3.610   2.365  18.491  0.00  0.00    +0.000 C 
ATOM     11  C   UNL     1       3.877   2.569  19.982  0.00  0.00    +0.000 C 
ATOM     12  C   UNL     1       2.726   3.217  20.743  0.00  0.00    +0.000 C 
ATOM     13  C   UNL     1       1.387   2.555  20.437  0.00  0.00    +0.000 C 
ATOM     14  C   UNL     1       1.097   2.556  18.942  0.00  0.00    +0.000 C 
ATOM     15  C   UNL     1       2.199   1.836  18.174  0.00  0.00    +0.000 C 
ENDBRANCH   4  10
BRANCH   7  16
ATOM     16  C   UNL     1       2.084   8.139  18.880  0.00  0.00    +0.000 C 
ATOM     17  O   UNL     1       1.852   8.157  20.086  0.00  0.00    +0.000 OA
ATOM     18  N   UNL     1       1.775   9.163  17.995  0.00  0.00    +0.000 N 
ATOM     19  H   UNL     1       2.044   9.005  17.033  0.00  0.00    +0.000 HD
BRANCH  18  20
ATOM     20  C   UNL     1       1.183  10.408  18.282  0.00  0.00    +0.000 A 
ATOM     21  C   UNL     1       1.914  11.589  18.417  0.00  0.00    +0.000 A 
ATOM     22  C   UNL     1       1.265  12.806  18.648  0.00  0.00    +0.000 A 
ATOM     23  C   UNL     1      -0.117  12.865  18.803  0.00  0.00    +0.000 A 
ATOM     24  C   UNL     1      -0.852  11.690  18.648  0.00  0.00    +0.000 A 
ATOM     25  C   UNL     1      -0.212  10.465  18.416  0.00  0.00    +0.000 A 
BRANCH  23  26
ATOM     26  N   UNL     1      -0.758  14.107  18.867  0.00  0.00    +0.000 N 
ATOM     27  H   UNL     1      -0.119  14.892  18.931  0.00  0.00    +0.000 HD
ATOM     28  H   UNL     1      -1.508  14.158  19.548  0.00  0.00    +0.000 HD
ENDBRANCH  23  26
ENDBRANCH  18  20
ENDBRANCH   7  16
TORSDOF 4
ENDMDL
MODEL 7
REMARK VINA RESULT:      -7.0      2.572      8.828
REMARK  Name = 
REMARK  5 active torsions:
REMARK  status: ('A' for Active; 'I' for Inactive)
REMARK    1  A    between atoms: C_1  and  C_2
REMARK    2  A    between atoms: N_4  and  C_5
REMARK    3  A    between atoms: C_13  and  C_14
REMARK    4  A    between atoms: N_16  and  C_17
REMARK    5  A    between atoms: C_20  and  N_21
REMARK                            x       y       z     vdW  Elec       q    Type
REMARK                         _______ _______ _______ _____ _____    ______ ____
ROOT
ATOM      1  C   UNL     1       6.383   4.996  15.898  0.00  0.00    +0.000 C 
ATOM      2  C   UNL     1       5.188   4.632  16.696  0.00  0.00    +0.000 A 
ATOM      3  N   UNL     1       4.958   3.341  17.045  0.00  0.00    +0.000 NA
ATOM      4  N   UNL     1       3.814   3.389  17.791  0.00  0.00    +0.000 N 
ATOM      5  C   UNL     1       3.302   4.639  17.823  0.00  0.00    +0.000 A 
ATOM      6  S   UNL     1       2.029   5.411  18.548  0.00  0.00    +0.000 S 
ATOM      7  C   UNL     1       2.749   6.948  18.146  0.00  0.00    +0.000 A 
ATOM      8  C   UNL     1       3.912   6.796  17.374  0.00  0.00    +0.000 A 
ATOM      9  C   UNL     1       4.187   5.438  17.230  0.00  0.00    +0.000 A 
ENDROOT
BRANCH   4  10
ATOM     10  C   UNL     1       3.435   2.338  18.732  0.00  0.00    +0.000 C 
ATOM     11  C   UNL     1       3.684   2.657  20.206  0.00  0.00    +0.000 C 
ATOM     12  C   UNL     1       2.544   3.403  20.889  0.00  0.00    +0.000 C 
ATOM     13  C   UNL     1       1.189   2.761  20.614  0.00  0.00    +0.000 C 
ATOM     14  C   UNL     1       0.922   2.647  19.119  0.00  0.00    +0.000 C 
ATOM     15  C   UNL     1       2.012   1.830  18.434  0.00  0.00    +0.000 C 
ENDBRANCH   4  10
BRANCH   7  16
ATOM     16  C   UNL     1       2.174   8.188  18.663  0.00  0.00    +0.000 C 
ATOM     17  O   UNL     1       2.243   9.223  18.006  0.00  0.00    +0.000 OA
ATOM     18  N   UNL     1       1.590   8.080  19.918  0.00  0.00    +0.000 N 
ATOM     19  H   UNL     1       1.597   7.154  20.325  0.00  0.00    +0.000 HD
BRANCH  18  20
ATOM     20  C   UNL     1       0.947   9.086  20.664  0.00  0.00    +0.000 A 
ATOM     21  C   UNL     1       0.419  10.244  20.092  0.00  0.00    +0.000 A 
ATOM     22  C   UNL     1      -0.258  11.182  20.878  0.00  0.00    +0.000 A 
ATOM     23  C   UNL     1      -0.377  11.013  22.255  0.00  0.00    +0.000 A 
ATOM     24  C   UNL     1       0.131   9.847  22.827  0.00  0.00    +0.000 A 
ATOM     25  C   UNL     1       0.811   8.900  22.048  0.00  0.00    +0.000 A 
BRANCH  23  26
ATOM     26  N   UNL     1      -1.197  11.874  22.993  0.00  0.00    +0.000 N 
ATOM     27  H   UNL     1      -1.440  12.727  22.500  0.00  0.00    +0.000 HD
ATOM     28  H   UNL     1      -0.880  12.047  23.941  0.00  0.00    +0.000 HD
ENDBRANCH  23  26
ENDBRANCH  18  20
ENDBRANCH   7  16
TORSDOF 4
ENDMDL
MODEL 8
REMARK VINA RESULT:      -7.0      1.136      1.228
REMARK  Name = 
REMARK  5 active torsions:
REMARK  status: ('A' for Active; 'I' for Inactive)
REMARK    1  A    between atoms: C_1  and  C_2
REMARK    2  A    between atoms: N_4  and  C_5
REMARK    3  A    between atoms: C_13  and  C_14
REMARK    4  A    between atoms: N_16  and  C_17
REMARK    5  A    between atoms: C_20  and  N_21
REMARK                            x       y       z     vdW  Elec       q    Type
REMARK                         _______ _______ _______ _____ _____    ______ ____
ROOT
ATOM      1  C   UNL     1      -0.853  10.815  22.991  0.00  0.00    +0.000 C 
ATOM      2  C   UNL     1      -0.317  11.031  21.626  0.00  0.00    +0.000 A 
ATOM      3  N   UNL     1      -0.371  12.257  21.047  0.00  0.00    +0.000 NA
ATOM      4  N   UNL     1       0.237  12.089  19.835  0.00  0.00    +0.000 N 
ATOM      5  C   UNL     1       0.569  10.796  19.629  0.00  0.00    +0.000 A 
ATOM      6  S   UNL     1       1.349   9.914  18.464  0.00  0.00    +0.000 S 
ATOM      7  C   UNL     1       1.474   8.578  19.578  0.00  0.00    +0.000 A 
ATOM      8  C   UNL     1       0.812   8.841  20.788  0.00  0.00    +0.000 A 
ATOM      9  C   UNL     1       0.319  10.143  20.762  0.00  0.00    +0.000 A 
ENDROOT
BRANCH   4  10
ATOM     10  C   UNL     1       0.799  13.198  19.069  0.00  0.00    +0.000 C 
ATOM     11  C   UNL     1      -0.055  14.465  19.026  0.00  0.00    +0.000 C 
ATOM     12  C   UNL     1       0.176  15.418  20.193  0.00  0.00    +0.000 C 
ATOM     13  C   UNL     1       1.657  15.676  20.442  0.00  0.00    +0.000 C 
ATOM     14  C   UNL     1       2.418  14.377  20.666  0.00  0.00    +0.000 C 
ATOM     15  C   UNL     1       2.266  13.446  19.468  0.00  0.00    +0.000 C 
ENDBRANCH   4  10
BRANCH   7  16
ATOM     16  C   UNL     1       2.258   7.395  19.225  0.00  0.00    +0.000 C 
ATOM     17  O   UNL     1       2.838   7.337  18.144  0.00  0.00    +0.000 OA
ATOM     18  N   UNL     1       2.260   6.393  20.185  0.00  0.00    +0.000 N 
ATOM     19  H   UNL     1       1.748   6.597  21.033  0.00  0.00    +0.000 HD
BRANCH  18  20
ATOM     20  C   UNL     1       2.929   5.154  20.143  0.00  0.00    +0.000 A 
ATOM     21  C   UNL     1       2.429   3.994  20.736  0.00  0.00    +0.000 A 
ATOM     22  C   UNL     1       3.112   2.780  20.613  0.00  0.00    +0.000 A 
ATOM     23  C   UNL     1       4.331   2.706  19.946  0.00  0.00    +0.000 A 
ATOM     24  C   UNL     1       4.824   3.859  19.334  0.00  0.00    +0.000 A 
ATOM     25  C   UNL     1       4.147   5.081  19.451  0.00  0.00    +0.000 A 
BRANCH  23  26
ATOM     26  N   UNL     1       4.912   1.459  19.693  0.00  0.00    +0.000 N 
ATOM     27  H   UNL     1       4.858   1.174  18.721  0.00  0.00    +0.000 HD
ATOM     28  H   UNL     1       4.626   0.724  20.332  0.00  0.00    +0.000 HD
ENDBRANCH  23  26
ENDBRANCH  18  20
ENDBRANCH   7  16
TORSDOF 4
ENDMDL
MODEL 9
REMARK VINA RESULT:      -6.9      2.416      9.089
REMARK  Name = 
REMARK  5 active torsions:
REMARK  status: ('A' for Active; 'I' for Inactive)
REMARK    1  A    between atoms: C_1  and  C_2
REMARK    2  A    between atoms: N_4  and  C_5
REMARK    3  A    between atoms: C_13  and  C_14
REMARK    4  A    between atoms: N_16  and  C_17
REMARK    5  A    between atoms: C_20  and  N_21
REMARK                            x       y       z     vdW  Elec       q    Type
REMARK                         _______ _______ _______ _____ _____    ______ ____
ROOT
ATOM      1  C   UNL     1       6.667   5.822  16.082  0.00  0.00    +0.000 C 
ATOM      2  C   UNL     1       5.470   5.236  16.729  0.00  0.00    +0.000 A 
ATOM      3  N   UNL     1       5.362   3.893  16.895  0.00  0.00    +0.000 NA
ATOM      4  N   UNL     1       4.173   3.725  17.546  0.00  0.00    +0.000 N 
ATOM      5  C   UNL     1       3.524   4.901  17.693  0.00  0.00    +0.000 A 
ATOM      6  S   UNL     1       2.128   5.436  18.404  0.00  0.00    +0.000 S 
ATOM      7  C   UNL     1       2.697   7.078  18.257  0.00  0.00    +0.000 A 
ATOM      8  C   UNL     1       3.919   7.149  17.568  0.00  0.00    +0.000 A 
ATOM      9  C   UNL     1       4.352   5.857  17.278  0.00  0.00    +0.000 A 
ENDROOT
BRANCH   4  10
ATOM     10  C   UNL     1       3.851   2.525  18.315  0.00  0.00    +0.000 C 
ATOM     11  C   UNL     1       3.996   2.659  19.831  0.00  0.00    +0.000 C 
ATOM     12  C   UNL     1       2.757   3.200  20.535  0.00  0.00    +0.000 C 
ATOM     13  C   UNL     1       1.486   2.484  20.094  0.00  0.00    +0.000 C 
ATOM     14  C   UNL     1       1.305   2.553  18.584  0.00  0.00    +0.000 C 
ATOM     15  C   UNL     1       2.500   1.938  17.865  0.00  0.00    +0.000 C 
ENDBRANCH   4  10
BRANCH   7  16
ATOM     16  C   UNL     1       1.954   8.174  18.876  0.00  0.00    +0.000 C 
ATOM     17  O   UNL     1       1.802   8.208  20.094  0.00  0.00    +0.000 OA
ATOM     18  N   UNL     1       1.450   9.111  17.984  0.00  0.00    +0.000 N 
ATOM     19  H   UNL     1       1.675   8.954  17.011  0.00  0.00    +0.000 HD
BRANCH  18  20
ATOM     20  C   UNL     1       0.713  10.275  18.275  0.00  0.00    +0.000 A 
ATOM     21  C   UNL     1      -0.682  10.318  18.272  0.00  0.00    +0.000 A 
ATOM     22  C   UNL     1      -1.359  11.491  18.622  0.00  0.00    +0.000 A 
ATOM     23  C   UNL     1      -0.664  12.657  18.931  0.00  0.00    +0.000 A 
ATOM     24  C   UNL     1       0.730  12.611  18.956  0.00  0.00    +0.000 A 
ATOM     25  C   UNL     1       1.419  11.441  18.605  0.00  0.00    +0.000 A 
BRANCH  23  26
ATOM     26  N   UNL     1      -1.352  13.764  19.437  0.00  0.00    +0.000 N 
ATOM     27  H   UNL     1      -0.773  14.385  19.991  0.00  0.00    +0.000 HD
ATOM     28  H   UNL     1      -2.231  13.541  19.892  0.00  0.00    +0.000 HD
ENDBRANCH  23  26
ENDBRANCH  18  20
ENDBRANCH   7  16
TORSDOF 4
ENDMDL
