MODEL 1
REMARK VINA RESULT:      -6.8      0.000      0.000
REMARK  Name = 
REMARK  4 active torsions:
REMARK  status: ('A' for Active; 'I' for Inactive)
REMARK    1  A    between atoms: C_1  and  N_2
REMARK    2  A    between atoms: N_2  and  C_3
REMARK    3  A    between atoms: N_14  and  C_15
REMARK    4  A    between atoms: C_15  and  C_16
REMARK                            x       y       z     vdW  Elec       q    Type
REMARK                         _______ _______ _______ _____ _____    ______ ____
ROOT
ATOM      1  C   UNL     1      -5.051  12.387  19.153  0.00  0.00    +0.000 C 
ATOM      2  N   UNL     1      -3.885  11.625  18.721  0.00  0.00    +0.000 N 
ATOM      3  C   UNL     1      -4.184  10.302  18.202  0.00  0.00    +0.000 C 
ATOM      4  C   UNL     1      -2.664  12.100  19.170  0.00  0.00    +0.000 C 
ATOM      5  O   UNL     1      -2.647  13.080  19.926  0.00  0.00    +0.000 OA
ATOM      6  N   UNL     1      -1.473  11.508  18.792  0.00  0.00    +0.000 N 
ATOM      7  C   UNL     1      -1.209  10.506  17.769  0.00  0.00    +0.000 C 
ATOM      8  C   UNL     1      -0.558   9.281  18.410  0.00  0.00    +0.000 C 
ATOM      9  C   UNL     1       0.758   9.663  19.122  0.00  0.00    +0.000 C 
ATOM     10  C   UNL     1       0.533  10.861  20.067  0.00  0.00    +0.000 C 
ATOM     11  C   UNL     1      -0.238  12.003  19.410  0.00  0.00    +0.000 C 
ATOM     12  C   UNL     1       1.906   9.885  18.113  0.00  0.00    +0.000 C 
ATOM     13  C   UNL     1       2.454   8.481  17.866  0.00  0.00    +0.000 C 
ATOM     14  N   UNL     1       2.235   7.827  19.127  0.00  0.00    +0.000 N 
ATOM     15  C   UNL     1       1.274   8.461  19.899  0.00  0.00    +0.000 C 
ATOM     16  O   UNL     1       0.881   8.084  20.995  0.00  0.00    +0.000 OA
ENDROOT
BRANCH  14  17
ATOM     17  C   UNL     1       2.949   6.628  19.527  0.00  0.00    +0.000 C 
BRANCH  17  18
ATOM     18  C   UNL     1       2.163   5.336  19.450  0.00  0.00    +0.000 A 
ATOM     19  C   UNL     1       1.647   4.743  20.603  0.00  0.00    +0.000 A 
ATOM     20  C   UNL     1       1.067   3.479  20.512  0.00  0.00    +0.000 A 
ATOM     21  C   UNL     1       1.019   2.837  19.281  0.00  0.00    +0.000 A 
ATOM     22  C   UNL     1       1.532   3.500  18.179  0.00  0.00    +0.000 A 
ATOM     23  N   UNL     1       2.094   4.730  18.235  0.00  0.00    +0.000 NA
ENDBRANCH  17  18
ENDBRANCH  14  17
TORSDOF 2
ENDMDL
MODEL 2
REMARK VINA RESULT:      -6.3      0.635      1.059
REMARK  Name = 
REMARK  4 active torsions:
REMARK  status: ('A' for Active; 'I' for Inactive)
REMARK    1  A    between atoms: C_1  and  N_2
REMARK    2  A    between atoms: N_2  and  C_3
REMARK    3  A    between atoms: N_14  and  C_15
REMARK    4  A    between atoms: C_15  and  C_16
REMARK                            x       y       z     vdW  Elec       q    Type
REMARK                         _______ _______ _______ _____ _____    ______ ____
ROOT
ATOM      1  C   UNL     1      -4.674  12.545  19.121  0.00  0.00    +0.000 C 
ATOM      2  N   UNL     1      -3.537  11.744  18.682  0.00  0.00    +0.000 N 
ATOM      3  C   UNL     1      -3.885  10.441  18.143  0.00  0.00    +0.000 C 
ATOM      4  C   UNL     1      -2.300  12.165  19.142  0.00  0.00    +0.000 C 
ATOM      5  O   UNL     1      -2.248  13.134  19.911  0.00  0.00    +0.000 OA
ATOM      6  N   UNL     1      -1.132  11.533  18.760  0.00  0.00    +0.000 N 
ATOM      7  C   UNL     1      -0.902  10.536  17.724  0.00  0.00    +0.000 C 
ATOM      8  C   UNL     1      -0.301   9.278  18.349  0.00  0.00    +0.000 C 
ATOM      9  C   UNL     1       1.025   9.599  19.072  0.00  0.00    +0.000 C 
ATOM     10  C   UNL     1       0.843  10.791  20.033  0.00  0.00    +0.000 C 
ATOM     11  C   UNL     1       0.119  11.972  19.389  0.00  0.00    +0.000 C 
ATOM     12  C   UNL     1       2.185   9.791  18.070  0.00  0.00    +0.000 C 
ATOM     13  C   UNL     1       2.680   8.370  17.805  0.00  0.00    +0.000 C 
ATOM     14  N   UNL     1       2.430   7.707  19.056  0.00  0.00    +0.000 N 
ATOM     15  C   UNL     1       1.491   8.368  19.834  0.00  0.00    +0.000 C 
ATOM     16  O   UNL     1       1.080   7.990  20.922  0.00  0.00    +0.000 OA
ENDROOT
BRANCH  14  17
ATOM     17  C   UNL     1       3.096   6.476  19.442  0.00  0.00    +0.000 C 
BRANCH  17  18
ATOM     18  C   UNL     1       2.308   5.203  19.216  0.00  0.00    +0.000 A 
ATOM     19  C   UNL     1       2.096   4.712  17.927  0.00  0.00    +0.000 A 
ATOM     20  C   UNL     1       1.238   3.629  17.748  0.00  0.00    +0.000 A 
ATOM     21  C   UNL     1       0.610   3.067  18.852  0.00  0.00    +0.000 A 
ATOM     22  C   UNL     1       0.888   3.595  20.100  0.00  0.00    +0.000 A 
ATOM     23  N   UNL     1       1.723   4.640  20.307  0.00  0.00    +0.000 NA
ENDBRANCH  17  18
ENDBRANCH  14  17
TORSDOF 2
ENDMDL
MODEL 3
REMARK VINA RESULT:      -6.3      0.918      1.163
REMARK  Name = 
REMARK  4 active torsions:
REMARK  status: ('A' for Active; 'I' for Inactive)
REMARK    1  A    between atoms: C_1  and  N_2
REMARK    2  A    between atoms: N_2  and  C_3
REMARK    3  A    between atoms: N_14  and  C_15
REMARK    4  A    between atoms: C_15  and  C_16
REMARK                            x       y       z     vdW  Elec       q    Type
REMARK                         _______ _______ _______ _____ _____    ______ ____
ROOT
ATOM      1  C   UNL     1      -5.140  12.436  19.035  0.00  0.00    +0.000 C 
ATOM      2  N   UNL     1      -3.964  11.688  18.608  0.00  0.00    +0.000 N 
ATOM      3  C   UNL     1      -4.243  10.356  18.100  0.00  0.00    +0.000 C 
ATOM      4  C   UNL     1      -2.749  12.186  19.050  0.00  0.00    +0.000 C 
ATOM      5  O   UNL     1      -2.746  13.173  19.796  0.00  0.00    +0.000 OA
ATOM      6  N   UNL     1      -1.550  11.609  18.674  0.00  0.00    +0.000 N 
ATOM      7  C   UNL     1      -1.273  10.602  17.659  0.00  0.00    +0.000 C 
ATOM      8  C   UNL     1      -0.601   9.394  18.310  0.00  0.00    +0.000 C 
ATOM      9  C   UNL     1       0.710   9.802  19.016  0.00  0.00    +0.000 C 
ATOM     10  C   UNL     1       0.468  11.004  19.951  0.00  0.00    +0.000 C 
ATOM     11  C   UNL     1      -0.322  12.129  19.285  0.00  0.00    +0.000 C 
ATOM     12  C   UNL     1       1.853  10.033  18.003  0.00  0.00    +0.000 C 
ATOM     13  C   UNL     1       2.422   8.636  17.767  0.00  0.00    +0.000 C 
ATOM     14  N   UNL     1       2.215   7.989  19.034  0.00  0.00    +0.000 N 
ATOM     15  C   UNL     1       1.246   8.616  19.803  0.00  0.00    +0.000 C 
ATOM     16  O   UNL     1       0.861   8.241  20.902  0.00  0.00    +0.000 OA
ENDROOT
BRANCH  14  17
ATOM     17  C   UNL     1       2.949   6.805  19.443  0.00  0.00    +0.000 C 
BRANCH  17  18
ATOM     18  C   UNL     1       2.791   5.592  18.551  0.00  0.00    +0.000 A 
ATOM     19  C   UNL     1       1.587   4.887  18.510  0.00  0.00    +0.000 A 
ATOM     20  C   UNL     1       1.529   3.689  17.801  0.00  0.00    +0.000 A 
ATOM     21  C   UNL     1       2.666   3.222  17.156  0.00  0.00    +0.000 A 
ATOM     22  C   UNL     1       3.816   3.989  17.224  0.00  0.00    +0.000 A 
ATOM     23  N   UNL     1       3.902   5.159  17.898  0.00  0.00    +0.000 NA
ENDBRANCH  17  18
ENDBRANCH  14  17
TORSDOF 2
ENDMDL
MODEL 4
REMARK VINA RESULT:      -6.3      1.976      3.220
REMARK  Name = 
REMARK  4 active torsions:
REMARK  status: ('A' for Active; 'I' for Inactive)
REMARK    1  A    between atoms: C_1  and  N_2
REMARK    2  A    between atoms: N_2  and  C_3
REMARK    3  A    between atoms: N_14  and  C_15
REMARK    4  A    between atoms: C_15  and  C_16
REMARK                            x       y       z     vdW  Elec       q    Type
REMARK                         _______ _______ _______ _____ _____    ______ ____
ROOT
ATOM      1  C   UNL     1       0.817  16.138  18.836  0.00  0.00    +0.000 C 
ATOM      2  N   UNL     1       1.027  14.821  19.428  0.00  0.00    +0.000 N 
ATOM      3  C   UNL     1       2.351  14.612  19.987  0.00  0.00    +0.000 C 
ATOM      4  C   UNL     1       0.094  13.858  19.081  0.00  0.00    +0.000 C 
ATOM      5  O   UNL     1      -0.800  14.155  18.278  0.00  0.00    +0.000 OA
ATOM      6  N   UNL     1       0.138  12.583  19.613  0.00  0.00    +0.000 N 
ATOM      7  C   UNL     1       0.933  12.054  20.712  0.00  0.00    +0.000 C 
ATOM      8  C   UNL     1       1.785  10.888  20.212  0.00  0.00    +0.000 C 
ATOM      9  C   UNL     1       0.900   9.771  19.619  0.00  0.00    +0.000 C 
ATOM     10  C   UNL     1      -0.090  10.353  18.590  0.00  0.00    +0.000 C 
ATOM     11  C   UNL     1      -0.818  11.595  19.099  0.00  0.00    +0.000 C 
ATOM     12  C   UNL     1       0.215   8.940  20.727  0.00  0.00    +0.000 C 
ATOM     13  C   UNL     1       1.265   7.899  21.107  0.00  0.00    +0.000 C 
ATOM     14  N   UNL     1       1.963   7.682  19.869  0.00  0.00    +0.000 N 
ATOM     15  C   UNL     1       1.788   8.721  18.967  0.00  0.00    +0.000 C 
ATOM     16  O   UNL     1       2.303   8.793  17.861  0.00  0.00    +0.000 OA
ENDROOT
BRANCH  14  17
ATOM     17  C   UNL     1       2.762   6.498  19.613  0.00  0.00    +0.000 C 
BRANCH  17  18
ATOM     18  C   UNL     1       1.998   5.194  19.520  0.00  0.00    +0.000 A 
ATOM     19  C   UNL     1       1.591   4.521  20.673  0.00  0.00    +0.000 A 
ATOM     20  C   UNL     1       1.031   3.251  20.552  0.00  0.00    +0.000 A 
ATOM     21  C   UNL     1       0.893   2.683  19.293  0.00  0.00    +0.000 A 
ATOM     22  C   UNL     1       1.298   3.423  18.195  0.00  0.00    +0.000 A 
ATOM     23  N   UNL     1       1.839   4.661  18.280  0.00  0.00    +0.000 NA
ENDBRANCH  17  18
ENDBRANCH  14  17
TORSDOF 2
ENDMDL
MODEL 5
REMARK VINA RESULT:      -6.1      6.056      8.262
REMARK  Name = 
REMARK  4 active torsions:
REMARK  status: ('A' for Active; 'I' for Inactive)
REMARK    1  A    between atoms: C_1  and  N_2
REMARK    2  A    between atoms: N_2  and  C_3
REMARK    3  A    between atoms: N_14  and  C_15
REMARK    4  A    between atoms: C_15  and  C_16
REMARK                            x       y       z     vdW  Elec       q    Type
REMARK                         _______ _______ _______ _____ _____    ______ ____
ROOT
ATOM      1  C   UNL     1       1.053   2.464  21.396  0.00  0.00    +0.000 C 
ATOM      2  N   UNL     1       1.526   3.091  20.167  0.00  0.00    +0.000 N 
ATOM      3  C   UNL     1       1.145   2.400  18.948  0.00  0.00    +0.000 C 
ATOM      4  C   UNL     1       2.534   4.027  20.327  0.00  0.00    +0.000 C 
ATOM      5  O   UNL     1       2.986   4.228  21.462  0.00  0.00    +0.000 OA
ATOM      6  N   UNL     1       3.038   4.740  19.255  0.00  0.00    +0.000 N 
ATOM      7  C   UNL     1       2.545   4.849  17.889  0.00  0.00    +0.000 C 
ATOM      8  C   UNL     1       3.629   4.385  16.917  0.00  0.00    +0.000 C 
ATOM      9  C   UNL     1       4.915   5.224  17.080  0.00  0.00    +0.000 C 
ATOM     10  C   UNL     1       5.339   5.281  18.561  0.00  0.00    +0.000 C 
ATOM     11  C   UNL     1       4.184   5.623  19.500  0.00  0.00    +0.000 C 
ATOM     12  C   UNL     1       4.771   6.617  16.429  0.00  0.00    +0.000 C 
ATOM     13  C   UNL     1       5.122   6.375  14.962  0.00  0.00    +0.000 C 
ATOM     14  N   UNL     1       6.085   5.311  15.037  0.00  0.00    +0.000 N 
ATOM     15  C   UNL     1       6.022   4.613  16.233  0.00  0.00    +0.000 C 
ATOM     16  O   UNL     1       6.709   3.645  16.527  0.00  0.00    +0.000 OA
ENDROOT
BRANCH  14  17
ATOM     17  C   UNL     1       7.013   5.013  13.961  0.00  0.00    +0.000 C 
BRANCH  17  18
ATOM     18  C   UNL     1       6.502   4.067  12.894  0.00  0.00    +0.000 A 
ATOM     19  C   UNL     1       5.132   3.888  12.694  0.00  0.00    +0.000 A 
ATOM     20  C   UNL     1       4.701   2.897  11.815  0.00  0.00    +0.000 A 
ATOM     21  C   UNL     1       5.640   2.109  11.162  0.00  0.00    +0.000 A 
ATOM     22  C   UNL     1       6.980   2.362  11.395  0.00  0.00    +0.000 A 
ATOM     23  N   UNL     1       7.429   3.322  12.237  0.00  0.00    +0.000 NA
ENDBRANCH  17  18
ENDBRANCH  14  17
TORSDOF 2
ENDMDL
MODEL 6
REMARK VINA RESULT:      -6.0      2.585      7.815
REMARK  Name = 
REMARK  4 active torsions:
REMARK  status: ('A' for Active; 'I' for Inactive)
REMARK    1  A    between atoms: C_1  and  N_2
REMARK    2  A    between atoms: N_2  and  C_3
REMARK    3  A    between atoms: N_14  and  C_15
REMARK    4  A    between atoms: C_15  and  C_16
REMARK                            x       y       z     vdW  Elec       q    Type
REMARK                         _______ _______ _______ _____ _____    ______ ____
ROOT
ATOM      1  C   UNL     1       2.810   4.097  19.019  0.00  0.00    +0.000 C 
ATOM      2  N   UNL     1       2.359   5.373  19.562  0.00  0.00    +0.000 N 
ATOM      3  C   UNL     1       1.478   5.266  20.711  0.00  0.00    +0.000 C 
ATOM      4  C   UNL     1       2.537   6.468  18.733  0.00  0.00    +0.000 C 
ATOM      5  O   UNL     1       3.007   6.289  17.601  0.00  0.00    +0.000 OA
ATOM      6  N   UNL     1       2.207   7.747  19.141  0.00  0.00    +0.000 N 
ATOM      7  C   UNL     1       1.851   8.245  20.462  0.00  0.00    +0.000 C 
ATOM      8  C   UNL     1       0.466   8.888  20.409  0.00  0.00    +0.000 C 
ATOM      9  C   UNL     1       0.431  10.043  19.385  0.00  0.00    +0.000 C 
ATOM     10  C   UNL     1       0.994   9.580  18.027  0.00  0.00    +0.000 C 
ATOM     11  C   UNL     1       2.318   8.828  18.155  0.00  0.00    +0.000 C 
ATOM     12  C   UNL     1       1.121  11.311  19.935  0.00  0.00    +0.000 C 
ATOM     13  C   UNL     1       0.026  12.003  20.745  0.00  0.00    +0.000 C 
ATOM     14  N   UNL     1      -1.170  11.646  20.033  0.00  0.00    +0.000 N 
ATOM     15  C   UNL     1      -1.002  10.530  19.229  0.00  0.00    +0.000 C 
ATOM     16  O   UNL     1      -1.876  10.006  18.551  0.00  0.00    +0.000 OA
ENDROOT
BRANCH  14  17
ATOM     17  C   UNL     1      -2.413  12.386  20.162  0.00  0.00    +0.000 C 
BRANCH  17  18
ATOM     18  C   UNL     1      -2.653  13.041  21.506  0.00  0.00    +0.000 A 
ATOM     19  C   UNL     1      -3.024  12.280  22.616  0.00  0.00    +0.000 A 
ATOM     20  C   UNL     1      -3.389  12.932  23.792  0.00  0.00    +0.000 A 
ATOM     21  C   UNL     1      -3.379  14.320  23.833  0.00  0.00    +0.000 A 
ATOM     22  C   UNL     1      -2.977  15.004  22.699  0.00  0.00    +0.000 A 
ATOM     23  N   UNL     1      -2.611  14.399  21.545  0.00  0.00    +0.000 NA
ENDBRANCH  17  18
ENDBRANCH  14  17
TORSDOF 2
ENDMDL
MODEL 7
REMARK VINA RESULT:      -6.0      2.041      3.321
REMARK  Name = 
REMARK  4 active torsions:
REMARK  status: ('A' for Active; 'I' for Inactive)
REMARK    1  A    between atoms: C_1  and  N_2
REMARK    2  A    between atoms: N_2  and  C_3
REMARK    3  A    between atoms: N_14  and  C_15
REMARK    4  A    between atoms: C_15  and  C_16
REMARK                            x       y       z     vdW  Elec       q    Type
REMARK                         _______ _______ _______ _____ _____    ______ ____
ROOT
ATOM      1  C   UNL     1       0.636  16.132  18.950  0.00  0.00    +0.000 C 
ATOM      2  N   UNL     1       0.929  14.802  19.470  0.00  0.00    +0.000 N 
ATOM      3  C   UNL     1       2.294  14.616  19.927  0.00  0.00    +0.000 C 
ATOM      4  C   UNL     1       0.005  13.821  19.147  0.00  0.00    +0.000 C 
ATOM      5  O   UNL     1      -0.952  14.119  18.421  0.00  0.00    +0.000 OA
ATOM      6  N   UNL     1       0.127  12.528  19.620  0.00  0.00    +0.000 N 
ATOM      7  C   UNL     1       1.013  11.983  20.638  0.00  0.00    +0.000 C 
ATOM      8  C   UNL     1       1.865  10.869  20.031  0.00  0.00    +0.000 C 
ATOM      9  C   UNL     1       0.977   9.746  19.453  0.00  0.00    +0.000 C 
ATOM     10  C   UNL     1      -0.101  10.335  18.520  0.00  0.00    +0.000 C 
ATOM     11  C   UNL     1      -0.831  11.529  19.131  0.00  0.00    +0.000 C 
ATOM     12  C   UNL     1       0.398   8.848  20.569  0.00  0.00    +0.000 C 
ATOM     13  C   UNL     1       1.505   7.829  20.831  0.00  0.00    +0.000 C 
ATOM     14  N   UNL     1       2.120   7.687  19.540  0.00  0.00    +0.000 N 
ATOM     15  C   UNL     1       1.850   8.755  18.698  0.00  0.00    +0.000 C 
ATOM     16  O   UNL     1       2.284   8.890  17.562  0.00  0.00    +0.000 OA
ENDROOT
BRANCH  14  17
ATOM     17  C   UNL     1       2.938   6.543  19.178  0.00  0.00    +0.000 C 
BRANCH  17  18
ATOM     18  C   UNL     1       2.262   5.192  19.283  0.00  0.00    +0.000 A 
ATOM     19  C   UNL     1       1.880   4.493  18.137  0.00  0.00    +0.000 A 
ATOM     20  C   UNL     1       1.123   3.331  18.274  0.00  0.00    +0.000 A 
ATOM     21  C   UNL     1       0.762   2.898  19.543  0.00  0.00    +0.000 A 
ATOM     22  C   UNL     1       1.198   3.633  20.632  0.00  0.00    +0.000 A 
ATOM     23  N   UNL     1       1.940   4.760  20.531  0.00  0.00    +0.000 NA
ENDBRANCH  17  18
ENDBRANCH  14  17
TORSDOF 2
ENDMDL
MODEL 8
REMARK VINA RESULT:      -5.9      5.717      8.735
REMARK  Name = 
REMARK  4 active torsions:
REMARK  status: ('A' for Active; 'I' for Inactive)
REMARK    1  A    between atoms: C_1  and  N_2
REMARK    2  A    between atoms: N_2  and  C_3
REMARK    3  A    between atoms: N_14  and  C_15
REMARK    4  A    between atoms: C_15  and  C_16
REMARK                            x       y       z     vdW  Elec       q    Type
REMARK                         _______ _______ _______ _____ _____    ______ ____
ROOT
ATOM      1  C   UNL     1       7.243   4.341  11.026  0.00  0.00    +0.000 C 
ATOM      2  N   UNL     1       6.829   4.109  12.405  0.00  0.00    +0.000 N 
ATOM      3  C   UNL     1       5.636   3.295  12.551  0.00  0.00    +0.000 C 
ATOM      4  C   UNL     1       7.398   4.952  13.346  0.00  0.00    +0.000 C 
ATOM      5  O   UNL     1       8.157   5.850  12.960  0.00  0.00    +0.000 OA
ATOM      6  N   UNL     1       7.139   4.809  14.696  0.00  0.00    +0.000 N 
ATOM      7  C   UNL     1       6.473   3.730  15.413  0.00  0.00    +0.000 C 
ATOM      8  C   UNL     1       5.271   4.288  16.173  0.00  0.00    +0.000 C 
ATOM      9  C   UNL     1       5.705   5.388  17.165  0.00  0.00    +0.000 C 
ATOM     10  C   UNL     1       6.582   6.440  16.457  0.00  0.00    +0.000 C 
ATOM     11  C   UNL     1       7.689   5.819  15.607  0.00  0.00    +0.000 C 
ATOM     12  C   UNL     1       6.365   4.787  18.426  0.00  0.00    +0.000 C 
ATOM     13  C   UNL     1       5.182   4.445  19.331  0.00  0.00    +0.000 C 
ATOM     14  N   UNL     1       4.219   5.456  18.993  0.00  0.00    +0.000 N 
ATOM     15  C   UNL     1       4.467   6.042  17.761  0.00  0.00    +0.000 C 
ATOM     16  O   UNL     1       3.775   6.901  17.232  0.00  0.00    +0.000 OA
ENDROOT
BRANCH  14  17
ATOM     17  C   UNL     1       3.110   5.808  19.861  0.00  0.00    +0.000 C 
BRANCH  17  18
ATOM     18  C   UNL     1       2.192   4.669  20.252  0.00  0.00    +0.000 A 
ATOM     19  C   UNL     1       2.274   4.086  21.518  0.00  0.00    +0.000 A 
ATOM     20  C   UNL     1       1.526   2.942  21.786  0.00  0.00    +0.000 A 
ATOM     21  C   UNL     1       0.720   2.405  20.790  0.00  0.00    +0.000 A 
ATOM     22  C   UNL     1       0.675   3.052  19.568  0.00  0.00    +0.000 A 
ATOM     23  N   UNL     1       1.384   4.169  19.280  0.00  0.00    +0.000 NA
ENDBRANCH  17  18
ENDBRANCH  14  17
TORSDOF 2
ENDMDL
MODEL 9
REMARK VINA RESULT:      -5.9      5.919      8.178
REMARK  Name = 
REMARK  4 active torsions:
REMARK  status: ('A' for Active; 'I' for Inactive)
REMARK    1  A    between atoms: C_1  and  N_2
REMARK    2  A    between atoms: N_2  and  C_3
REMARK    3  A    between atoms: N_14  and  C_15
REMARK    4  A    between atoms: C_15  and  C_16
REMARK                            x       y       z     vdW  Elec       q    Type
REMARK                         _______ _______ _______ _____ _____    ______ ____
ROOT
ATOM      1  C   UNL     1       0.999   2.217  21.830  0.00  0.00    +0.000 C 
ATOM      2  N   UNL     1       1.534   2.808  20.609  0.00  0.00    +0.000 N 
ATOM      3  C   UNL     1       1.570   1.913  19.467  0.00  0.00    +0.000 C 
ATOM      4  C   UNL     1       2.239   3.989  20.779  0.00  0.00    +0.000 C 
ATOM      5  O   UNL     1       2.405   4.424  21.926  0.00  0.00    +0.000 OA
ATOM      6  N   UNL     1       2.753   4.687  19.703  0.00  0.00    +0.000 N 
ATOM      7  C   UNL     1       2.520   4.513  18.276  0.00  0.00    +0.000 C 
ATOM      8  C   UNL     1       3.848   4.246  17.570  0.00  0.00    +0.000 C 
ATOM      9  C   UNL     1       4.841   5.406  17.802  0.00  0.00    +0.000 C 
ATOM     10  C   UNL     1       4.948   5.735  19.305  0.00  0.00    +0.000 C 
ATOM     11  C   UNL     1       3.586   5.861  19.986  0.00  0.00    +0.000 C 
ATOM     12  C   UNL     1       4.495   6.633  16.929  0.00  0.00    +0.000 C 
ATOM     13  C   UNL     1       5.167   6.333  15.591  0.00  0.00    +0.000 C 
ATOM     14  N   UNL     1       6.325   5.574  15.979  0.00  0.00    +0.000 N 
ATOM     15  C   UNL     1       6.202   5.020  17.244  0.00  0.00    +0.000 C 
ATOM     16  O   UNL     1       7.032   4.304  17.788  0.00  0.00    +0.000 OA
ENDROOT
BRANCH  14  17
ATOM     17  C   UNL     1       7.485   5.414  15.122  0.00  0.00    +0.000 C 
BRANCH  17  18
ATOM     18  C   UNL     1       7.237   4.715  13.801  0.00  0.00    +0.000 A 
ATOM     19  C   UNL     1       7.843   5.167  12.628  0.00  0.00    +0.000 A 
ATOM     20  C   UNL     1       7.469   4.599  11.412  0.00  0.00    +0.000 A 
ATOM     21  C   UNL     1       6.503   3.602  11.393  0.00  0.00    +0.000 A 
ATOM     22  C   UNL     1       5.965   3.192  12.600  0.00  0.00    +0.000 A 
ATOM     23  N   UNL     1       6.312   3.719  13.797  0.00  0.00    +0.000 NA
ENDBRANCH  17  18
ENDBRANCH  14  17
TORSDOF 2
ENDMDL
