MODEL 1
REMARK VINA RESULT:      -7.0      0.000      0.000
REMARK  Name = 
REMARK  9 active torsions:
REMARK  status: ('A' for Active; 'I' for Inactive)
REMARK    1  A    between atoms: C_2  and  C_4
REMARK    2  A    between atoms: C_9  and  C_10
REMARK    3  A    between atoms: N_12  and  C_13
REMARK    4  A    between atoms: C_13  and  C_14
REMARK    5  A    between atoms: C_14  and  C_15
REMARK    6  A    between atoms: C_15  and  C_16
REMARK    7  A    between atoms: C_16  and  C_17
REMARK    8  A    between atoms: C_17  and  C_18
REMARK    9  A    between atoms: C_18  and  O_20
REMARK                            x       y       z     vdW  Elec       q    Type
REMARK                         _______ _______ _______ _____ _____    ______ ____
ROOT
ATOM      1  C   UNL     1       0.414  10.584  19.093  0.00  0.00    +0.000 A 
ATOM      2  C   UNL     1       0.272  10.022  20.366  0.00  0.00    +0.000 A 
ATOM      3  C   UNL     1       0.926   8.828  20.709  0.00  0.00    +0.000 A 
ATOM      4  C   UNL     1       1.728   8.227  19.728  0.00  0.00    +0.000 A 
ATOM      5  N   UNL     1       2.483   7.072  19.760  0.00  0.00    +0.000 N 
ATOM      6  C   UNL     1       3.116   6.864  18.546  0.00  0.00    +0.000 A 
ATOM      7  C   UNL     1       2.764   7.928  17.738  0.00  0.00    +0.000 A 
ATOM      8  C   UNL     1       1.892   8.777  18.461  0.00  0.00    +0.000 A 
ATOM      9  C   UNL     1       1.233   9.974  18.136  0.00  0.00    +0.000 A 
ATOM     10  H   UNL     1       2.574   6.450  20.553  0.00  0.00    +0.000 HD
ENDROOT
BRANCH   1  12
ATOM     11  N   UNL     1       0.380  12.870  18.329  0.00  0.00    +0.000 NA
ATOM     12  C   UNL     1      -0.297  11.847  18.735  0.00  0.00    +0.000 C 
ATOM     13  N   UNL     1      -1.656  11.923  18.846  0.00  0.00    +0.000 N 
ATOM     14  H   UNL     1      -0.261  13.624  18.083  0.00  0.00    +0.000 HD
ATOM     15  H   UNL     1      -2.045  12.855  18.896  0.00  0.00    +0.000 HD
ATOM     16  H   UNL     1      -2.076  11.305  19.537  0.00  0.00    +0.000 HD
ENDBRANCH   1  12
BRANCH   6  17
ATOM     17  C   UNL     1       3.965   5.720  18.293  0.00  0.00    +0.000 C 
ATOM     18  O   UNL     1       5.185   5.760  18.417  0.00  0.00    +0.000 OA
ATOM     19  N   UNL     1       3.290   4.586  17.906  0.00  0.00    +0.000 N 
ATOM     20  H   UNL     1       2.278   4.597  17.907  0.00  0.00    +0.000 HD
BRANCH  19  21
ATOM     21  C   UNL     1       3.962   3.343  17.608  0.00  0.00    +0.000 C 
BRANCH  21  22
ATOM     22  C   UNL     1       3.032   2.138  17.750  0.00  0.00    +0.000 C 
BRANCH  22  23
ATOM     23  C   UNL     1       2.441   1.995  19.157  0.00  0.00    +0.000 C 
BRANCH  23  24
ATOM     24  C   UNL     1       0.993   2.496  19.265  0.00  0.00    +0.000 C 
BRANCH  24  25
ATOM     25  C   UNL     1       0.784   3.662  20.228  0.00  0.00    +0.000 C 
BRANCH  25  26
ATOM     26  C   UNL     1       1.812   3.668  21.332  0.00  0.00    +0.000 C 
ATOM     27  O   UNL     1       1.906   2.790  22.178  0.00  0.00    +0.000 OA
BRANCH  26  28
ATOM     28  O   UNL     1       2.666   4.711  21.269  0.00  0.00    +0.000 OA
ATOM     29  H   UNL     1       3.012   4.998  22.135  0.00  0.00    +0.000 HD
ENDBRANCH  26  28
ENDBRANCH  25  26
ENDBRANCH  24  25
ENDBRANCH  23  24
ENDBRANCH  22  23
ENDBRANCH  21  22
ENDBRANCH  19  21
ENDBRANCH   6  17
TORSDOF 9
ENDMDL
MODEL 2
REMARK VINA RESULT:      -7.0      1.156      1.452
REMARK  Name = 
REMARK  9 active torsions:
REMARK  status: ('A' for Active; 'I' for Inactive)
REMARK    1  A    between atoms: C_2  and  C_4
REMARK    2  A    between atoms: C_9  and  C_10
REMARK    3  A    between atoms: N_12  and  C_13
REMARK    4  A    between atoms: C_13  and  C_14
REMARK    5  A    between atoms: C_14  and  C_15
REMARK    6  A    between atoms: C_15  and  C_16
REMARK    7  A    between atoms: C_16  and  C_17
REMARK    8  A    between atoms: C_17  and  C_18
REMARK    9  A    between atoms: C_18  and  O_20
REMARK                            x       y       z     vdW  Elec       q    Type
REMARK                         _______ _______ _______ _____ _____    ______ ____
ROOT
ATOM      1  C   UNL     1      -0.383  10.904  19.093  0.00  0.00    +0.000 A 
ATOM      2  C   UNL     1      -0.297  10.637  20.464  0.00  0.00    +0.000 A 
ATOM      3  C   UNL     1       0.506   9.594  20.951  0.00  0.00    +0.000 A 
ATOM      4  C   UNL     1       1.220   8.837  20.011  0.00  0.00    +0.000 A 
ATOM      5  N   UNL     1       2.078   7.768  20.174  0.00  0.00    +0.000 N 
ATOM      6  C   UNL     1       2.557   7.330  18.952  0.00  0.00    +0.000 A 
ATOM      7  C   UNL     1       2.001   8.160  17.997  0.00  0.00    +0.000 A 
ATOM      8  C   UNL     1       1.158   9.096  18.646  0.00  0.00    +0.000 A 
ATOM      9  C   UNL     1       0.352  10.145  18.176  0.00  0.00    +0.000 A 
ATOM     10  H   UNL     1       2.334   7.349  21.059  0.00  0.00    +0.000 HD
ENDROOT
BRANCH   1  12
ATOM     11  N   UNL     1      -2.136  12.537  19.364  0.00  0.00    +0.000 NA
ATOM     12  C   UNL     1      -1.251  12.007  18.585  0.00  0.00    +0.000 C 
ATOM     13  N   UNL     1      -1.116  12.448  17.299  0.00  0.00    +0.000 N 
ATOM     14  H   UNL     1      -2.602  13.301  18.875  0.00  0.00    +0.000 HD
ATOM     15  H   UNL     1      -1.905  12.953  16.918  0.00  0.00    +0.000 HD
ATOM     16  H   UNL     1      -0.754  11.765  16.636  0.00  0.00    +0.000 HD
ENDBRANCH   1  12
BRANCH   6  17
ATOM     17  C   UNL     1       3.468   6.213  18.823  0.00  0.00    +0.000 C 
ATOM     18  O   UNL     1       4.022   5.695  19.788  0.00  0.00    +0.000 OA
ATOM     19  N   UNL     1       3.657   5.780  17.531  0.00  0.00    +0.000 N 
ATOM     20  H   UNL     1       3.104   6.195  16.792  0.00  0.00    +0.000 HD
BRANCH  19  21
ATOM     21  C   UNL     1       4.528   4.678  17.199  0.00  0.00    +0.000 C 
BRANCH  21  22
ATOM     22  C   UNL     1       3.815   3.330  17.302  0.00  0.00    +0.000 C 
BRANCH  22  23
ATOM     23  C   UNL     1       2.286   3.454  17.284  0.00  0.00    +0.000 C 
BRANCH  23  24
ATOM     24  C   UNL     1       1.607   2.802  18.497  0.00  0.00    +0.000 C 
BRANCH  24  25
ATOM     25  C   UNL     1       2.556   2.367  19.610  0.00  0.00    +0.000 C 
BRANCH  25  26
ATOM     26  C   UNL     1       1.990   2.661  20.977  0.00  0.00    +0.000 C 
ATOM     27  O   UNL     1       2.628   2.554  22.015  0.00  0.00    +0.000 OA
BRANCH  26  28
ATOM     28  O   UNL     1       0.719   3.115  20.949  0.00  0.00    +0.000 OA
ATOM     29  H   UNL     1       0.067   2.505  21.344  0.00  0.00    +0.000 HD
ENDBRANCH  26  28
ENDBRANCH  25  26
ENDBRANCH  24  25
ENDBRANCH  23  24
ENDBRANCH  22  23
ENDBRANCH  21  22
ENDBRANCH  19  21
ENDBRANCH   6  17
TORSDOF 9
ENDMDL
MODEL 3
REMARK VINA RESULT:      -7.0      1.973      3.636
REMARK  Name = 
REMARK  9 active torsions:
REMARK  status: ('A' for Active; 'I' for Inactive)
REMARK    1  A    between atoms: C_2  and  C_4
REMARK    2  A    between atoms: C_9  and  C_10
REMARK    3  A    between atoms: N_12  and  C_13
REMARK    4  A    between atoms: C_13  and  C_14
REMARK    5  A    between atoms: C_14  and  C_15
REMARK    6  A    between atoms: C_15  and  C_16
REMARK    7  A    between atoms: C_16  and  C_17
REMARK    8  A    between atoms: C_17  and  C_18
REMARK    9  A    between atoms: C_18  and  O_20
REMARK                            x       y       z     vdW  Elec       q    Type
REMARK                         _______ _______ _______ _____ _____    ______ ____
ROOT
ATOM      1  C   UNL     1       0.575  10.430  19.667  0.00  0.00    +0.000 A 
ATOM      2  C   UNL     1       0.544   9.947  20.979  0.00  0.00    +0.000 A 
ATOM      3  C   UNL     1       1.133   8.717  21.313  0.00  0.00    +0.000 A 
ATOM      4  C   UNL     1       1.756   7.999  20.283  0.00  0.00    +0.000 A 
ATOM      5  N   UNL     1       2.411   6.784  20.294  0.00  0.00    +0.000 N 
ATOM      6  C   UNL     1       2.871   6.460  19.029  0.00  0.00    +0.000 A 
ATOM      7  C   UNL     1       2.513   7.511  18.205  0.00  0.00    +0.000 A 
ATOM      8  C   UNL     1       1.809   8.469  18.975  0.00  0.00    +0.000 A 
ATOM      9  C   UNL     1       1.217   9.703  18.658  0.00  0.00    +0.000 A 
ATOM     10  H   UNL     1       2.547   6.197  21.107  0.00  0.00    +0.000 HD
ENDROOT
BRANCH   1  12
ATOM     11  N   UNL     1      -0.617  11.888  18.161  0.00  0.00    +0.000 NA
ATOM     12  C   UNL     1      -0.067  11.733  19.320  0.00  0.00    +0.000 C 
ATOM     13  N   UNL     1      -0.063  12.759  20.222  0.00  0.00    +0.000 N 
ATOM     14  H   UNL     1      -1.046  12.812  18.111  0.00  0.00    +0.000 HD
ATOM     15  H   UNL     1      -0.220  13.683  19.842  0.00  0.00    +0.000 HD
ATOM     16  H   UNL     1       0.705  12.755  20.890  0.00  0.00    +0.000 HD
ENDBRANCH   1  12
BRANCH   6  17
ATOM     17  C   UNL     1       3.585   5.234  18.746  0.00  0.00    +0.000 C 
ATOM     18  O   UNL     1       3.930   4.450  19.625  0.00  0.00    +0.000 OA
ATOM     19  N   UNL     1       3.841   5.021  17.411  0.00  0.00    +0.000 N 
ATOM     20  H   UNL     1       3.454   5.663  16.732  0.00  0.00    +0.000 HD
BRANCH  19  21
ATOM     21  C   UNL     1       4.542   3.854  16.930  0.00  0.00    +0.000 C 
BRANCH  21  22
ATOM     22  C   UNL     1       5.264   4.122  15.609  0.00  0.00    +0.000 C 
BRANCH  22  23
ATOM     23  C   UNL     1       5.796   5.555  15.493  0.00  0.00    +0.000 C 
BRANCH  23  24
ATOM     24  C   UNL     1       7.175   5.749  16.139  0.00  0.00    +0.000 C 
BRANCH  24  25
ATOM     25  C   UNL     1       7.154   6.400  17.519  0.00  0.00    +0.000 C 
BRANCH  25  26
ATOM     26  C   UNL     1       7.432   5.401  18.614  0.00  0.00    +0.000 C 
ATOM     27  O   UNL     1       7.153   5.586  19.790  0.00  0.00    +0.000 OA
BRANCH  26  28
ATOM     28  O   UNL     1       7.971   4.246  18.169  0.00  0.00    +0.000 OA
ATOM     29  H   UNL     1       7.609   3.445  18.593  0.00  0.00    +0.000 HD
ENDBRANCH  26  28
ENDBRANCH  25  26
ENDBRANCH  24  25
ENDBRANCH  23  24
ENDBRANCH  22  23
ENDBRANCH  21  22
ENDBRANCH  19  21
ENDBRANCH   6  17
TORSDOF 9
ENDMDL
MODEL 4
REMARK VINA RESULT:      -6.9      3.674      5.408
REMARK  Name = 
REMARK  9 active torsions:
REMARK  status: ('A' for Active; 'I' for Inactive)
REMARK    1  A    between atoms: C_2  and  C_4
REMARK    2  A    between atoms: C_9  and  C_10
REMARK    3  A    between atoms: N_12  and  C_13
REMARK    4  A    between atoms: C_13  and  C_14
REMARK    5  A    between atoms: C_14  and  C_15
REMARK    6  A    between atoms: C_15  and  C_16
REMARK    7  A    between atoms: C_16  and  C_17
REMARK    8  A    between atoms: C_17  and  C_18
REMARK    9  A    between atoms: C_18  and  O_20
REMARK                            x       y       z     vdW  Elec       q    Type
REMARK                         _______ _______ _______ _____ _____    ______ ____
ROOT
ATOM      1  C   UNL     1       0.658   9.435  21.029  0.00  0.00    +0.000 A 
ATOM      2  C   UNL     1       0.805  10.027  19.770  0.00  0.00    +0.000 A 
ATOM      3  C   UNL     1       1.447   9.351  18.721  0.00  0.00    +0.000 A 
ATOM      4  C   UNL     1       1.928   8.060  18.984  0.00  0.00    +0.000 A 
ATOM      5  N   UNL     1       2.590   7.158  18.175  0.00  0.00    +0.000 N 
ATOM      6  C   UNL     1       2.877   5.995  18.866  0.00  0.00    +0.000 A 
ATOM      7  C   UNL     1       2.363   6.162  20.138  0.00  0.00    +0.000 A 
ATOM      8  C   UNL     1       1.779   7.449  20.225  0.00  0.00    +0.000 A 
ATOM      9  C   UNL     1       1.132   8.139  21.262  0.00  0.00    +0.000 A 
ATOM     10  H   UNL     1       2.839   7.311  17.206  0.00  0.00    +0.000 HD
ENDROOT
BRANCH   1  12
ATOM     11  N   UNL     1      -0.104  11.456  22.098  0.00  0.00    +0.000 NA
ATOM     12  C   UNL     1      -0.015  10.168  22.142  0.00  0.00    +0.000 C 
ATOM     13  N   UNL     1      -0.524   9.480  23.206  0.00  0.00    +0.000 N 
ATOM     14  H   UNL     1      -0.632  11.787  22.906  0.00  0.00    +0.000 HD
ATOM     15  H   UNL     1      -0.679  10.018  24.049  0.00  0.00    +0.000 HD
ATOM     16  H   UNL     1      -0.077   8.588  23.409  0.00  0.00    +0.000 HD
ENDBRANCH   1  12
BRANCH   6  17
ATOM     17  C   UNL     1       3.578   4.880  18.265  0.00  0.00    +0.000 C 
ATOM     18  O   UNL     1       3.616   3.766  18.779  0.00  0.00    +0.000 OA
ATOM     19  N   UNL     1       4.194   5.174  17.070  0.00  0.00    +0.000 N 
ATOM     20  H   UNL     1       4.051   6.088  16.661  0.00  0.00    +0.000 HD
BRANCH  19  21
ATOM     21  C   UNL     1       4.941   4.195  16.319  0.00  0.00    +0.000 C 
BRANCH  21  22
ATOM     22  C   UNL     1       6.410   4.590  16.160  0.00  0.00    +0.000 C 
BRANCH  22  23
ATOM     23  C   UNL     1       6.902   4.510  14.711  0.00  0.00    +0.000 C 
BRANCH  23  24
ATOM     24  C   UNL     1       5.819   4.053  13.722  0.00  0.00    +0.000 C 
BRANCH  24  25
ATOM     25  C   UNL     1       6.340   3.594  12.363  0.00  0.00    +0.000 C 
BRANCH  25  26
ATOM     26  C   UNL     1       5.415   2.592  11.718  0.00  0.00    +0.000 C 
ATOM     27  O   UNL     1       4.306   2.871  11.285  0.00  0.00    +0.000 OA
BRANCH  26  28
ATOM     28  O   UNL     1       5.948   1.357  11.607  0.00  0.00    +0.000 OA
ATOM     29  H   UNL     1       5.335   0.634  11.836  0.00  0.00    +0.000 HD
ENDBRANCH  26  28
ENDBRANCH  25  26
ENDBRANCH  24  25
ENDBRANCH  23  24
ENDBRANCH  22  23
ENDBRANCH  21  22
ENDBRANCH  19  21
ENDBRANCH   6  17
TORSDOF 9
ENDMDL
MODEL 5
REMARK VINA RESULT:      -6.8      1.005      1.161
REMARK  Name = 
REMARK  9 active torsions:
REMARK  status: ('A' for Active; 'I' for Inactive)
REMARK    1  A    between atoms: C_2  and  C_4
REMARK    2  A    between atoms: C_9  and  C_10
REMARK    3  A    between atoms: N_12  and  C_13
REMARK    4  A    between atoms: C_13  and  C_14
REMARK    5  A    between atoms: C_14  and  C_15
REMARK    6  A    between atoms: C_15  and  C_16
REMARK    7  A    between atoms: C_16  and  C_17
REMARK    8  A    between atoms: C_17  and  C_18
REMARK    9  A    between atoms: C_18  and  O_20
REMARK                            x       y       z     vdW  Elec       q    Type
REMARK                         _______ _______ _______ _____ _____    ______ ____
ROOT
ATOM      1  C   UNL     1      -0.228  10.823  19.218  0.00  0.00    +0.000 A 
ATOM      2  C   UNL     1      -0.177  10.219  20.479  0.00  0.00    +0.000 A 
ATOM      3  C   UNL     1       0.635   9.099  20.714  0.00  0.00    +0.000 A 
ATOM      4  C   UNL     1       1.395   8.615  19.640  0.00  0.00    +0.000 A 
ATOM      5  N   UNL     1       2.272   7.552  19.557  0.00  0.00    +0.000 N 
ATOM      6  C   UNL     1       2.797   7.445  18.281  0.00  0.00    +0.000 A 
ATOM      7  C   UNL     1       2.251   8.482  17.548  0.00  0.00    +0.000 A 
ATOM      8  C   UNL     1       1.368   9.210  18.383  0.00  0.00    +0.000 A 
ATOM      9  C   UNL     1       0.553  10.332  18.165  0.00  0.00    +0.000 A 
ATOM     10  H   UNL     1       2.511   6.927  20.316  0.00  0.00    +0.000 HD
ENDROOT
BRANCH   1  12
ATOM     11  N   UNL     1      -1.751  12.537  19.960  0.00  0.00    +0.000 NA
ATOM     12  C   UNL     1      -1.105  12.006  18.976  0.00  0.00    +0.000 C 
ATOM     13  N   UNL     1      -1.231  12.518  17.715  0.00  0.00    +0.000 N 
ATOM     14  H   UNL     1      -2.259  13.358  19.629  0.00  0.00    +0.000 HD
ATOM     15  H   UNL     1      -2.047  13.093  17.550  0.00  0.00    +0.000 HD
ATOM     16  H   UNL     1      -1.079  11.858  16.955  0.00  0.00    +0.000 HD
ENDBRANCH   1  12
BRANCH   6  17
ATOM     17  C   UNL     1       3.737   6.411  17.906  0.00  0.00    +0.000 C 
ATOM     18  O   UNL     1       4.940   6.621  17.782  0.00  0.00    +0.000 OA
ATOM     19  N   UNL     1       3.170   5.174  17.704  0.00  0.00    +0.000 N 
ATOM     20  H   UNL     1       2.186   5.050  17.906  0.00  0.00    +0.000 HD
BRANCH  19  21
ATOM     21  C   UNL     1       3.943   4.016  17.324  0.00  0.00    +0.000 C 
BRANCH  21  22
ATOM     22  C   UNL     1       3.245   2.709  17.703  0.00  0.00    +0.000 C 
BRANCH  22  23
ATOM     23  C   UNL     1       1.824   2.918  18.239  0.00  0.00    +0.000 C 
BRANCH  23  24
ATOM     24  C   UNL     1       1.507   2.068  19.478  0.00  0.00    +0.000 C 
BRANCH  24  25
ATOM     25  C   UNL     1       1.788   2.749  20.814  0.00  0.00    +0.000 C 
BRANCH  25  26
ATOM     26  C   UNL     1       1.737   4.252  20.700  0.00  0.00    +0.000 C 
ATOM     27  O   UNL     1       0.704   4.886  20.535  0.00  0.00    +0.000 OA
BRANCH  26  28
ATOM     28  O   UNL     1       2.938   4.847  20.855  0.00  0.00    +0.000 OA
ATOM     29  H   UNL     1       3.477   4.880  20.042  0.00  0.00    +0.000 HD
ENDBRANCH  26  28
ENDBRANCH  25  26
ENDBRANCH  24  25
ENDBRANCH  23  24
ENDBRANCH  22  23
ENDBRANCH  21  22
ENDBRANCH  19  21
ENDBRANCH   6  17
TORSDOF 9
ENDMDL
MODEL 6
REMARK VINA RESULT:      -6.8      3.834      8.018
REMARK  Name = 
REMARK  9 active torsions:
REMARK  status: ('A' for Active; 'I' for Inactive)
REMARK    1  A    between atoms: C_2  and  C_4
REMARK    2  A    between atoms: C_9  and  C_10
REMARK    3  A    between atoms: N_12  and  C_13
REMARK    4  A    between atoms: C_13  and  C_14
REMARK    5  A    between atoms: C_14  and  C_15
REMARK    6  A    between atoms: C_15  and  C_16
REMARK    7  A    between atoms: C_16  and  C_17
REMARK    8  A    between atoms: C_17  and  C_18
REMARK    9  A    between atoms: C_18  and  O_20
REMARK                            x       y       z     vdW  Elec       q    Type
REMARK                         _______ _______ _______ _____ _____    ______ ____
ROOT
ATOM      1  C   UNL     1       6.281   4.826  15.950  0.00  0.00    +0.000 A 
ATOM      2  C   UNL     1       7.100   4.692  17.076  0.00  0.00    +0.000 A 
ATOM      3  C   UNL     1       6.601   4.923  18.368  0.00  0.00    +0.000 A 
ATOM      4  C   UNL     1       5.251   5.285  18.483  0.00  0.00    +0.000 A 
ATOM      5  N   UNL     1       4.482   5.572  19.594  0.00  0.00    +0.000 N 
ATOM      6  C   UNL     1       3.186   5.887  19.227  0.00  0.00    +0.000 A 
ATOM      7  C   UNL     1       3.133   5.774  17.850  0.00  0.00    +0.000 A 
ATOM      8  C   UNL     1       4.418   5.410  17.377  0.00  0.00    +0.000 A 
ATOM      9  C   UNL     1       4.932   5.173  16.092  0.00  0.00    +0.000 A 
ATOM     10  H   UNL     1       4.807   5.558  20.552  0.00  0.00    +0.000 HD
ENDROOT
BRANCH   1  12
ATOM     11  N   UNL     1       6.413   3.580  13.891  0.00  0.00    +0.000 NA
ATOM     12  C   UNL     1       6.826   4.592  14.580  0.00  0.00    +0.000 C 
ATOM     13  N   UNL     1       7.763   5.440  14.063  0.00  0.00    +0.000 N 
ATOM     14  H   UNL     1       6.848   3.600  12.968  0.00  0.00    +0.000 HD
ATOM     15  H   UNL     1       8.313   5.077  13.295  0.00  0.00    +0.000 HD
ATOM     16  H   UNL     1       8.346   5.922  14.745  0.00  0.00    +0.000 HD
ENDBRANCH   1  12
BRANCH   6  17
ATOM     17  C   UNL     1       2.164   6.240  20.190  0.00  0.00    +0.000 C 
ATOM     18  O   UNL     1       1.476   5.403  20.763  0.00  0.00    +0.000 OA
ATOM     19  N   UNL     1       2.035   7.593  20.408  0.00  0.00    +0.000 N 
ATOM     20  H   UNL     1       2.691   8.223  19.967  0.00  0.00    +0.000 HD
BRANCH  19  21
ATOM     21  C   UNL     1       1.071   8.142  21.332  0.00  0.00    +0.000 C 
BRANCH  21  22
ATOM     22  C   UNL     1       0.259   9.277  20.708  0.00  0.00    +0.000 C 
BRANCH  22  23
ATOM     23  C   UNL     1       0.775  10.669  21.092  0.00  0.00    +0.000 C 
BRANCH  23  24
ATOM     24  C   UNL     1       0.015  11.813  20.404  0.00  0.00    +0.000 C 
BRANCH  24  25
ATOM     25  C   UNL     1       0.476  12.128  18.983  0.00  0.00    +0.000 C 
BRANCH  25  26
ATOM     26  C   UNL     1      -0.370  13.200  18.344  0.00  0.00    +0.000 C 
ATOM     27  O   UNL     1      -0.321  14.381  18.657  0.00  0.00    +0.000 OA
BRANCH  26  28
ATOM     28  O   UNL     1      -1.155  12.746  17.345  0.00  0.00    +0.000 OA
ATOM     29  H   UNL     1      -1.266  11.776  17.332  0.00  0.00    +0.000 HD
ENDBRANCH  26  28
ENDBRANCH  25  26
ENDBRANCH  24  25
ENDBRANCH  23  24
ENDBRANCH  22  23
ENDBRANCH  21  22
ENDBRANCH  19  21
ENDBRANCH   6  17
TORSDOF 9
ENDMDL
MODEL 7
REMARK VINA RESULT:      -6.8      3.325      7.692
REMARK  Name = 
REMARK  9 active torsions:
REMARK  status: ('A' for Active; 'I' for Inactive)
REMARK    1  A    between atoms: C_2  and  C_4
REMARK    2  A    between atoms: C_9  and  C_10
REMARK    3  A    between atoms: N_12  and  C_13
REMARK    4  A    between atoms: C_13  and  C_14
REMARK    5  A    between atoms: C_14  and  C_15
REMARK    6  A    between atoms: C_15  and  C_16
REMARK    7  A    between atoms: C_16  and  C_17
REMARK    8  A    between atoms: C_17  and  C_18
REMARK    9  A    between atoms: C_18  and  O_20
REMARK                            x       y       z     vdW  Elec       q    Type
REMARK                         _______ _______ _______ _____ _____    ______ ____
ROOT
ATOM      1  C   UNL     1       6.266   4.825  16.012  0.00  0.00    +0.000 A 
ATOM      2  C   UNL     1       7.069   4.661  17.145  0.00  0.00    +0.000 A 
ATOM      3  C   UNL     1       6.558   4.881  18.434  0.00  0.00    +0.000 A 
ATOM      4  C   UNL     1       5.213   5.264  18.538  0.00  0.00    +0.000 A 
ATOM      5  N   UNL     1       4.435   5.547  19.643  0.00  0.00    +0.000 N 
ATOM      6  C   UNL     1       3.148   5.888  19.266  0.00  0.00    +0.000 A 
ATOM      7  C   UNL     1       3.111   5.796  17.887  0.00  0.00    +0.000 A 
ATOM      8  C   UNL     1       4.395   5.418  17.424  0.00  0.00    +0.000 A 
ATOM      9  C   UNL     1       4.922   5.192  16.142  0.00  0.00    +0.000 A 
ATOM     10  H   UNL     1       4.747   5.514  20.606  0.00  0.00    +0.000 HD
ENDROOT
BRANCH   1  12
ATOM     11  N   UNL     1       6.442   3.578  13.956  0.00  0.00    +0.000 NA
ATOM     12  C   UNL     1       6.824   4.602  14.645  0.00  0.00    +0.000 C 
ATOM     13  N   UNL     1       7.742   5.473  14.130  0.00  0.00    +0.000 N 
ATOM     14  H   UNL     1       6.881   3.606  13.036  0.00  0.00    +0.000 HD
ATOM     15  H   UNL     1       8.305   5.122  13.366  0.00  0.00    +0.000 HD
ATOM     16  H   UNL     1       8.308   5.971  14.814  0.00  0.00    +0.000 HD
ENDBRANCH   1  12
BRANCH   6  17
ATOM     17  C   UNL     1       2.121   6.245  20.221  0.00  0.00    +0.000 C 
ATOM     18  O   UNL     1       1.413   5.410  20.774  0.00  0.00    +0.000 OA
ATOM     19  N   UNL     1       2.010   7.596  20.457  0.00  0.00    +0.000 N 
ATOM     20  H   UNL     1       2.682   8.222  20.032  0.00  0.00    +0.000 HD
BRANCH  19  21
ATOM     21  C   UNL     1       1.044   8.147  21.377  0.00  0.00    +0.000 C 
BRANCH  21  22
ATOM     22  C   UNL     1       0.866   9.654  21.188  0.00  0.00    +0.000 C 
BRANCH  22  23
ATOM     23  C   UNL     1      -0.271  10.010  20.223  0.00  0.00    +0.000 C 
BRANCH  23  24
ATOM     24  C   UNL     1       0.222  10.475  18.845  0.00  0.00    +0.000 C 
BRANCH  24  25
ATOM     25  C   UNL     1       0.297  11.989  18.665  0.00  0.00    +0.000 C 
BRANCH  25  26
ATOM     26  C   UNL     1       1.717  12.493  18.742  0.00  0.00    +0.000 C 
ATOM     27  O   UNL     1       2.261  12.838  19.781  0.00  0.00    +0.000 OA
BRANCH  26  28
ATOM     28  O   UNL     1       2.362  12.474  17.556  0.00  0.00    +0.000 OA
ATOM     29  H   UNL     1       1.927  12.996  16.856  0.00  0.00    +0.000 HD
ENDBRANCH  26  28
ENDBRANCH  25  26
ENDBRANCH  24  25
ENDBRANCH  23  24
ENDBRANCH  22  23
ENDBRANCH  21  22
ENDBRANCH  19  21
ENDBRANCH   6  17
TORSDOF 9
ENDMDL
MODEL 8
REMARK VINA RESULT:      -6.8      6.634      7.797
REMARK  Name = 
REMARK  9 active torsions:
REMARK  status: ('A' for Active; 'I' for Inactive)
REMARK    1  A    between atoms: C_2  and  C_4
REMARK    2  A    between atoms: C_9  and  C_10
REMARK    3  A    between atoms: N_12  and  C_13
REMARK    4  A    between atoms: C_13  and  C_14
REMARK    5  A    between atoms: C_14  and  C_15
REMARK    6  A    between atoms: C_15  and  C_16
REMARK    7  A    between atoms: C_16  and  C_17
REMARK    8  A    between atoms: C_17  and  C_18
REMARK    9  A    between atoms: C_18  and  O_20
REMARK                            x       y       z     vdW  Elec       q    Type
REMARK                         _______ _______ _______ _____ _____    ______ ____
ROOT
ATOM      1  C   UNL     1       9.952  13.573  18.890  0.00  0.00    +0.000 A 
ATOM      2  C   UNL     1      10.530  12.960  20.007  0.00  0.00    +0.000 A 
ATOM      3  C   UNL     1      10.351  11.590  20.256  0.00  0.00    +0.000 A 
ATOM      4  C   UNL     1       9.578  10.863  19.340  0.00  0.00    +0.000 A 
ATOM      5  N   UNL     1       9.228   9.528  19.310  0.00  0.00    +0.000 N 
ATOM      6  C   UNL     1       8.441   9.250  18.206  0.00  0.00    +0.000 A 
ATOM      7  C   UNL     1       8.311  10.439  17.513  0.00  0.00    +0.000 A 
ATOM      8  C   UNL     1       9.007  11.451  18.217  0.00  0.00    +0.000 A 
ATOM      9  C   UNL     1       9.198  12.822  17.981  0.00  0.00    +0.000 A 
ATOM     10  H   UNL     1       9.501   8.833  19.993  0.00  0.00    +0.000 HD
ENDROOT
BRANCH   1  12
ATOM     11  N   UNL     1      10.029  15.498  17.442  0.00  0.00    +0.000 NA
ATOM     12  C   UNL     1      10.137  15.033  18.642  0.00  0.00    +0.000 C 
ATOM     13  N   UNL     1      10.429  15.872  19.681  0.00  0.00    +0.000 N 
ATOM     14  H   UNL     1      10.135  16.512  17.461  0.00  0.00    +0.000 HD
ATOM     15  H   UNL     1      10.842  16.760  19.429  0.00  0.00    +0.000 HD
ATOM     16  H   UNL     1      10.911  15.445  20.469  0.00  0.00    +0.000 HD
ENDBRANCH   1  12
BRANCH   6  17
ATOM     17  C   UNL     1       7.919   7.928  17.929  0.00  0.00    +0.000 C 
ATOM     18  O   UNL     1       7.285   7.666  16.912  0.00  0.00    +0.000 OA
ATOM     19  N   UNL     1       8.198   6.994  18.900  0.00  0.00    +0.000 N 
ATOM     20  H   UNL     1       8.798   7.256  19.671  0.00  0.00    +0.000 HD
BRANCH  19  21
ATOM     21  C   UNL     1       7.763   5.621  18.805  0.00  0.00    +0.000 C 
BRANCH  21  22
ATOM     22  C   UNL     1       6.239   5.496  18.842  0.00  0.00    +0.000 C 
BRANCH  22  23
ATOM     23  C   UNL     1       5.723   4.211  18.183  0.00  0.00    +0.000 C 
BRANCH  23  24
ATOM     24  C   UNL     1       4.713   4.467  17.055  0.00  0.00    +0.000 C 
BRANCH  24  25
ATOM     25  C   UNL     1       5.221   5.360  15.927  0.00  0.00    +0.000 C 
BRANCH  25  26
ATOM     26  C   UNL     1       6.358   4.719  15.172  0.00  0.00    +0.000 C 
ATOM     27  O   UNL     1       6.262   3.658  14.571  0.00  0.00    +0.000 OA
BRANCH  26  28
ATOM     28  O   UNL     1       7.489   5.455  15.171  0.00  0.00    +0.000 OA
ATOM     29  H   UNL     1       7.472   6.216  15.781  0.00  0.00    +0.000 HD
ENDBRANCH  26  28
ENDBRANCH  25  26
ENDBRANCH  24  25
ENDBRANCH  23  24
ENDBRANCH  22  23
ENDBRANCH  21  22
ENDBRANCH  19  21
ENDBRANCH   6  17
TORSDOF 9
ENDMDL
MODEL 9
REMARK VINA RESULT:      -6.7      5.313      8.622
REMARK  Name = 
REMARK  9 active torsions:
REMARK  status: ('A' for Active; 'I' for Inactive)
REMARK    1  A    between atoms: C_2  and  C_4
REMARK    2  A    between atoms: C_9  and  C_10
REMARK    3  A    between atoms: N_12  and  C_13
REMARK    4  A    between atoms: C_13  and  C_14
REMARK    5  A    between atoms: C_14  and  C_15
REMARK    6  A    between atoms: C_15  and  C_16
REMARK    7  A    between atoms: C_16  and  C_17
REMARK    8  A    between atoms: C_17  and  C_18
REMARK    9  A    between atoms: C_18  and  O_20
REMARK                            x       y       z     vdW  Elec       q    Type
REMARK                         _______ _______ _______ _____ _____    ______ ____
ROOT
ATOM      1  C   UNL     1       2.508   3.518  19.574  0.00  0.00    +0.000 A 
ATOM      2  C   UNL     1       2.322   3.137  18.241  0.00  0.00    +0.000 A 
ATOM      3  C   UNL     1       3.158   3.625  17.224  0.00  0.00    +0.000 A 
ATOM      4  C   UNL     1       4.186   4.502  17.599  0.00  0.00    +0.000 A 
ATOM      5  N   UNL     1       5.153   5.138  16.846  0.00  0.00    +0.000 N 
ATOM      6  C   UNL     1       5.965   5.921  17.647  0.00  0.00    +0.000 A 
ATOM      7  C   UNL     1       5.509   5.756  18.942  0.00  0.00    +0.000 A 
ATOM      8  C   UNL     1       4.395   4.882  18.921  0.00  0.00    +0.000 A 
ATOM      9  C   UNL     1       3.551   4.382  19.926  0.00  0.00    +0.000 A 
ATOM     10  H   UNL     1       5.267   5.054  15.844  0.00  0.00    +0.000 HD
ENDROOT
BRANCH   1  12
ATOM     11  N   UNL     1       0.358   2.787  20.383  0.00  0.00    +0.000 NA
ATOM     12  C   UNL     1       1.604   3.004  20.646  0.00  0.00    +0.000 C 
ATOM     13  N   UNL     1       2.093   2.774  21.901  0.00  0.00    +0.000 N 
ATOM     14  H   UNL     1      -0.098   2.395  21.208  0.00  0.00    +0.000 HD
ATOM     15  H   UNL     1       1.406   2.733  22.643  0.00  0.00    +0.000 HD
ATOM     16  H   UNL     1       2.900   3.334  22.169  0.00  0.00    +0.000 HD
ENDBRANCH   1  12
BRANCH   6  17
ATOM     17  C   UNL     1       7.058   6.710  17.120  0.00  0.00    +0.000 C 
ATOM     18  O   UNL     1       7.673   6.396  16.106  0.00  0.00    +0.000 OA
ATOM     19  N   UNL     1       7.345   7.841  17.850  0.00  0.00    +0.000 N 
ATOM     20  H   UNL     1       6.745   8.085  18.626  0.00  0.00    +0.000 HD
BRANCH  19  21
ATOM     21  C   UNL     1       8.400   8.755  17.483  0.00  0.00    +0.000 C 
BRANCH  21  22
ATOM     22  C   UNL     1       8.746   9.718  18.619  0.00  0.00    +0.000 C 
BRANCH  22  23
ATOM     23  C   UNL     1       8.915  11.168  18.150  0.00  0.00    +0.000 C 
BRANCH  23  24
ATOM     24  C   UNL     1      10.382  11.585  17.970  0.00  0.00    +0.000 C 
BRANCH  24  25
ATOM     25  C   UNL     1      11.270  11.358  19.190  0.00  0.00    +0.000 C 
BRANCH  25  26
ATOM     26  C   UNL     1      10.910  12.283  20.326  0.00  0.00    +0.000 C 
ATOM     27  O   UNL     1      11.166  13.478  20.336  0.00  0.00    +0.000 OA
BRANCH  26  28
ATOM     28  O   UNL     1      10.221  11.678  21.317  0.00  0.00    +0.000 OA
ATOM     29  H   UNL     1       9.276  11.918  21.352  0.00  0.00    +0.000 HD
ENDBRANCH  26  28
ENDBRANCH  25  26
ENDBRANCH  24  25
ENDBRANCH  23  24
ENDBRANCH  22  23
ENDBRANCH  21  22
ENDBRANCH  19  21
ENDBRANCH   6  17
TORSDOF 9
ENDMDL
