MODEL 1
REMARK VINA RESULT:      -7.3      0.000      0.000
REMARK  Name = 
REMARK  11 active torsions:
REMARK  status: ('A' for Active; 'I' for Inactive)
REMARK    1  A    between atoms: N_3  and  C_4
REMARK    2  A    between atoms: C_5  and  C_6
REMARK    3  A    between atoms: C_6  and  O_7
REMARK    4  A    between atoms: O_7  and  P_8
REMARK    5  A    between atoms: P_8  and  O_10
REMARK    6  A    between atoms: P_8  and  O_11
REMARK    7  A    between atoms: C_13  and  N_14
REMARK    8  A    between atoms: C_24  and  O_25
REMARK    9  A    between atoms: O_25  and  P_26
REMARK   10  A    between atoms: P_26  and  O_28
REMARK   11  A    between atoms: P_26  and  O_29
REMARK                            x       y       z     vdW  Elec       q    Type
REMARK                         _______ _______ _______ _____ _____    ______ ____
ROOT
ATOM      1  C   UNL     1       4.192   4.742  17.520  0.00  0.00    +0.000 C 
ATOM      2  C   UNL     1       4.665   4.832  18.975  0.00  0.00    +0.000 C 
ATOM      3  O   UNL     1       3.571   5.363  19.753  0.00  0.00    +0.000 OA
ATOM      4  C   UNL     1       2.426   5.536  18.899  0.00  0.00    +0.000 C 
ATOM      5  C   UNL     1       2.674   4.698  17.631  0.00  0.00    +0.000 C 
ENDROOT
BRANCH   4   6
ATOM      6  N   UNL     1       2.222   6.962  18.731  0.00  0.00    +0.000 N 
ATOM      7  C   UNL     1       2.556   7.681  17.608  0.00  0.00    +0.000 A 
ATOM      8  N   UNL     1       2.304   8.965  17.752  0.00  0.00    +0.000 NA
ATOM      9  C   UNL     1       1.776   9.083  19.018  0.00  0.00    +0.000 A 
ATOM     10  C   UNL     1       1.304  10.178  19.767  0.00  0.00    +0.000 A 
ATOM     11  N   UNL     1       1.232  11.470  19.277  0.00  0.00    +0.000 N 
ATOM     12  N   UNL     1       0.905   9.968  21.045  0.00  0.00    +0.000 NA
ATOM     13  C   UNL     1       0.933   8.715  21.531  0.00  0.00    +0.000 A 
ATOM     14  N   UNL     1       1.310   7.598  20.890  0.00  0.00    +0.000 NA
ATOM     15  C   UNL     1       1.734   7.852  19.645  0.00  0.00    +0.000 A 
ATOM     16  H   UNL     1       1.830  11.640  18.479  0.00  0.00    +0.000 HD
ATOM     17  H   UNL     1       1.212  12.157  20.017  0.00  0.00    +0.000 HD
ENDBRANCH   4   6
BRANCH   1  20
ATOM     18  N   UNL     1       6.454   4.070  15.238  0.00  0.00    +0.000 NA
ATOM     19  N   UNL     1       5.646   3.822  16.000  0.00  0.00    +0.000 NA
ATOM     20  N   UNL     1       4.775   3.568  16.857  0.00  0.00    +0.000 NA
ENDBRANCH   1  20
BRANCH   2  21
ATOM     21  C   UNL     1       5.884   5.755  19.092  0.00  0.00    +0.000 C 
BRANCH  21  22
ATOM     22  O   UNL     1       5.931   6.689  18.021  0.00  0.00    +0.000 OA
BRANCH  22  23
ATOM     23  P   UNL     1       7.396   7.191  17.612  0.00  0.00    +0.000 P 
ATOM     24  O   UNL     1       7.539   8.625  17.246  0.00  0.00    +0.000 OA
BRANCH  23  25
ATOM     25  O   UNL     1       8.343   6.672  18.783  0.00  0.00    +0.000 OA
ATOM     26  H   UNL     1       9.136   7.230  18.868  0.00  0.00    +0.000 HD
ENDBRANCH  23  25
BRANCH  23  27
ATOM     27  O   UNL     1       7.831   6.224  16.418  0.00  0.00    +0.000 OA
ATOM     28  H   UNL     1       8.075   5.349  16.778  0.00  0.00    +0.000 HD
ENDBRANCH  23  27
ENDBRANCH  22  23
ENDBRANCH  21  22
ENDBRANCH   2  21
BRANCH   5  29
ATOM     29  O   UNL     1       2.173   3.362  17.741  0.00  0.00    +0.000 OA
BRANCH  29  30
ATOM     30  P   UNL     1       1.275   3.124  19.200  0.00  0.00    +0.000 P 
ATOM     31  O   UNL     1       0.311   2.153  18.532  0.00  0.00    +0.000 OA
BRANCH  30  32
ATOM     32  O   UNL     1       2.481   2.256  19.849  0.00  0.00    +0.000 OA
ATOM     33  H   UNL     1       2.167   1.581  20.476  0.00  0.00    +0.000 HD
ENDBRANCH  30  32
BRANCH  30  34
ATOM     34  O   UNL     1       0.376   2.886  20.659  0.00  0.00    +0.000 OA
ATOM     35  H   UNL     1       0.121   3.807  20.887  0.00  0.00    +0.000 HD
ENDBRANCH  30  34
ENDBRANCH  29  30
ENDBRANCH   5  29
TORSDOF 11
ENDMDL
MODEL 2
REMARK VINA RESULT:      -7.3      1.811      2.405
REMARK  Name = 
REMARK  11 active torsions:
REMARK  status: ('A' for Active; 'I' for Inactive)
REMARK    1  A    between atoms: N_3  and  C_4
REMARK    2  A    between atoms: C_5  and  C_6
REMARK    3  A    between atoms: C_6  and  O_7
REMARK    4  A    between atoms: O_7  and  P_8
REMARK    5  A    between atoms: P_8  and  O_10
REMARK    6  A    between atoms: P_8  and  O_11
REMARK    7  A    between atoms: C_13  and  N_14
REMARK    8  A    between atoms: C_24  and  O_25
REMARK    9  A    between atoms: O_25  and  P_26
REMARK   10  A    between atoms: P_26  and  O_28
REMARK   11  A    between atoms: P_26  and  O_29
REMARK                            x       y       z     vdW  Elec       q    Type
REMARK                         _______ _______ _______ _____ _____    ______ ____
ROOT
ATOM      1  C   UNL     1       3.459   4.870  17.752  0.00  0.00    +0.000 C 
ATOM      2  C   UNL     1       4.740   5.702  17.633  0.00  0.00    +0.000 C 
ATOM      3  O   UNL     1       4.648   6.780  18.589  0.00  0.00    +0.000 OA
ATOM      4  C   UNL     1       3.435   6.631  19.349  0.00  0.00    +0.000 C 
ATOM      5  C   UNL     1       2.950   5.183  19.153  0.00  0.00    +0.000 C 
ENDROOT
BRANCH   4   6
ATOM      6  N   UNL     1       2.539   7.699  18.947  0.00  0.00    +0.000 N 
ATOM      7  C   UNL     1       2.546   8.315  17.719  0.00  0.00    +0.000 A 
ATOM      8  N   UNL     1       1.657   9.283  17.649  0.00  0.00    +0.000 NA
ATOM      9  C   UNL     1       1.041   9.289  18.880  0.00  0.00    +0.000 A 
ATOM     10  C   UNL     1       0.011  10.071  19.439  0.00  0.00    +0.000 A 
ATOM     11  N   UNL     1      -0.676  11.048  18.740  0.00  0.00    +0.000 N 
ATOM     12  N   UNL     1      -0.327   9.870  20.735  0.00  0.00    +0.000 NA
ATOM     13  C   UNL     1       0.303   8.902  21.423  0.00  0.00    +0.000 A 
ATOM     14  N   UNL     1       1.253   8.068  20.974  0.00  0.00    +0.000 NA
ATOM     15  C   UNL     1       1.588   8.324  19.703  0.00  0.00    +0.000 A 
ATOM     16  H   UNL     1      -0.188  11.389  17.923  0.00  0.00    +0.000 HD
ATOM     17  H   UNL     1      -1.109  11.722  19.356  0.00  0.00    +0.000 HD
ENDBRANCH   4   6
BRANCH   1  20
ATOM     18  N   UNL     1       1.808   2.056  17.396  0.00  0.00    +0.000 NA
ATOM     19  N   UNL     1       2.737   2.709  17.468  0.00  0.00    +0.000 NA
ATOM     20  N   UNL     1       3.742   3.447  17.525  0.00  0.00    +0.000 NA
ENDBRANCH   1  20
BRANCH   2  21
ATOM     21  C   UNL     1       4.885   6.272  16.216  0.00  0.00    +0.000 C 
BRANCH  21  22
ATOM     22  O   UNL     1       6.251   6.361  15.831  0.00  0.00    +0.000 OA
BRANCH  22  23
ATOM     23  P   UNL     1       6.964   4.964  15.507  0.00  0.00    +0.000 P 
ATOM     24  O   UNL     1       7.854   4.402  16.558  0.00  0.00    +0.000 OA
BRANCH  23  25
ATOM     25  O   UNL     1       5.787   4.014  15.009  0.00  0.00    +0.000 OA
ATOM     26  H   UNL     1       5.080   3.950  15.675  0.00  0.00    +0.000 HD
ENDBRANCH  23  25
BRANCH  23  27
ATOM     27  O   UNL     1       7.746   5.222  14.140  0.00  0.00    +0.000 OA
ATOM     28  H   UNL     1       8.629   5.596  14.333  0.00  0.00    +0.000 HD
ENDBRANCH  23  27
ENDBRANCH  22  23
ENDBRANCH  21  22
ENDBRANCH   2  21
BRANCH   5  29
ATOM     29  O   UNL     1       3.471   4.284  20.138  0.00  0.00    +0.000 OA
BRANCH  29  30
ATOM     30  P   UNL     1       2.215   3.531  21.058  0.00  0.00    +0.000 P 
ATOM     31  O   UNL     1       1.130   4.372  20.397  0.00  0.00    +0.000 OA
BRANCH  30  32
ATOM     32  O   UNL     1       2.361   2.157  20.209  0.00  0.00    +0.000 OA
ATOM     33  H   UNL     1       2.413   1.367  20.773  0.00  0.00    +0.000 HD
ENDBRANCH  30  32
BRANCH  30  34
ATOM     34  O   UNL     1       0.957   2.778  21.978  0.00  0.00    +0.000 OA
ATOM     35  H   UNL     1       0.534   3.554  22.406  0.00  0.00    +0.000 HD
ENDBRANCH  30  34
ENDBRANCH  29  30
ENDBRANCH   5  29
TORSDOF 11
ENDMDL
MODEL 3
REMARK VINA RESULT:      -7.0      1.925      2.556
REMARK  Name = 
REMARK  11 active torsions:
REMARK  status: ('A' for Active; 'I' for Inactive)
REMARK    1  A    between atoms: N_3  and  C_4
REMARK    2  A    between atoms: C_5  and  C_6
REMARK    3  A    between atoms: C_6  and  O_7
REMARK    4  A    between atoms: O_7  and  P_8
REMARK    5  A    between atoms: P_8  and  O_10
REMARK    6  A    between atoms: P_8  and  O_11
REMARK    7  A    between atoms: C_13  and  N_14
REMARK    8  A    between atoms: C_24  and  O_25
REMARK    9  A    between atoms: O_25  and  P_26
REMARK   10  A    between atoms: P_26  and  O_28
REMARK   11  A    between atoms: P_26  and  O_29
REMARK                            x       y       z     vdW  Elec       q    Type
REMARK                         _______ _______ _______ _____ _____    ______ ____
ROOT
ATOM      1  C   UNL     1       3.653   4.791  17.639  0.00  0.00    +0.000 C 
ATOM      2  C   UNL     1       4.959   5.590  17.585  0.00  0.00    +0.000 C 
ATOM      3  O   UNL     1       4.842   6.677  18.528  0.00  0.00    +0.000 OA
ATOM      4  C   UNL     1       3.586   6.564  19.222  0.00  0.00    +0.000 C 
ATOM      5  C   UNL     1       3.076   5.127  19.008  0.00  0.00    +0.000 C 
ENDROOT
BRANCH   4   6
ATOM      6  N   UNL     1       2.740   7.651  18.766  0.00  0.00    +0.000 N 
ATOM      7  C   UNL     1       2.829   8.257  17.536  0.00  0.00    +0.000 A 
ATOM      8  N   UNL     1       1.969   9.246  17.412  0.00  0.00    +0.000 NA
ATOM      9  C   UNL     1       1.289   9.277  18.608  0.00  0.00    +0.000 A 
ATOM     10  C   UNL     1       0.251  10.089  19.106  0.00  0.00    +0.000 A 
ATOM     11  N   UNL     1      -0.372  11.078  18.366  0.00  0.00    +0.000 N 
ATOM     12  N   UNL     1      -0.160   9.907  20.384  0.00  0.00    +0.000 NA
ATOM     13  C   UNL     1       0.408   8.929  21.111  0.00  0.00    +0.000 A 
ATOM     14  N   UNL     1       1.359   8.068  20.719  0.00  0.00    +0.000 NA
ATOM     15  C   UNL     1       1.767   8.305  19.465  0.00  0.00    +0.000 A 
ATOM     16  H   UNL     1       0.167  11.399  17.573  0.00  0.00    +0.000 HD
ATOM     17  H   UNL     1      -0.821  11.767  18.953  0.00  0.00    +0.000 HD
ENDBRANCH   4   6
BRANCH   1  20
ATOM     18  N   UNL     1       1.954   2.004  17.298  0.00  0.00    +0.000 NA
ATOM     19  N   UNL     1       2.894   2.641  17.375  0.00  0.00    +0.000 NA
ATOM     20  N   UNL     1       3.912   3.360  17.437  0.00  0.00    +0.000 NA
ENDBRANCH   1  20
BRANCH   2  21
ATOM     21  C   UNL     1       5.195   6.147  16.175  0.00  0.00    +0.000 C 
BRANCH  21  22
ATOM     22  O   UNL     1       4.966   5.156  15.182  0.00  0.00    +0.000 OA
BRANCH  22  23
ATOM     23  P   UNL     1       6.271   4.379  14.675  0.00  0.00    +0.000 P 
ATOM     24  O   UNL     1       6.282   3.934  13.256  0.00  0.00    +0.000 OA
BRANCH  23  25
ATOM     25  O   UNL     1       7.491   5.298  15.127  0.00  0.00    +0.000 OA
ATOM     26  H   UNL     1       7.506   5.413  16.093  0.00  0.00    +0.000 HD
ENDBRANCH  23  25
BRANCH  23  27
ATOM     27  O   UNL     1       6.424   3.152  15.686  0.00  0.00    +0.000 OA
ATOM     28  H   UNL     1       5.577   2.666  15.741  0.00  0.00    +0.000 HD
ENDBRANCH  23  27
ENDBRANCH  22  23
ENDBRANCH  21  22
ENDBRANCH   2  21
BRANCH   5  29
ATOM     29  O   UNL     1       3.521   4.223  20.025  0.00  0.00    +0.000 OA
BRANCH  29  30
ATOM     30  P   UNL     1       2.198   3.496  20.870  0.00  0.00    +0.000 P 
ATOM     31  O   UNL     1       1.167   4.309  20.098  0.00  0.00    +0.000 OA
BRANCH  30  32
ATOM     32  O   UNL     1       2.412   2.094  20.083  0.00  0.00    +0.000 OA
ATOM     33  H   UNL     1       3.255   2.056  19.599  0.00  0.00    +0.000 HD
ENDBRANCH  30  32
BRANCH  30  34
ATOM     34  O   UNL     1       0.874   2.770  21.715  0.00  0.00    +0.000 OA
ATOM     35  H   UNL     1       0.155   2.834  21.049  0.00  0.00    +0.000 HD
ENDBRANCH  30  34
ENDBRANCH  29  30
ENDBRANCH   5  29
TORSDOF 11
ENDMDL
MODEL 4
REMARK VINA RESULT:      -7.0      2.048      2.728
REMARK  Name = 
REMARK  11 active torsions:
REMARK  status: ('A' for Active; 'I' for Inactive)
REMARK    1  A    between atoms: N_3  and  C_4
REMARK    2  A    between atoms: C_5  and  C_6
REMARK    3  A    between atoms: C_6  and  O_7
REMARK    4  A    between atoms: O_7  and  P_8
REMARK    5  A    between atoms: P_8  and  O_10
REMARK    6  A    between atoms: P_8  and  O_11
REMARK    7  A    between atoms: C_13  and  N_14
REMARK    8  A    between atoms: C_24  and  O_25
REMARK    9  A    between atoms: O_25  and  P_26
REMARK   10  A    between atoms: P_26  and  O_28
REMARK   11  A    between atoms: P_26  and  O_29
REMARK                            x       y       z     vdW  Elec       q    Type
REMARK                         _______ _______ _______ _____ _____    ______ ____
ROOT
ATOM      1  C   UNL     1       3.193   4.154  17.624  0.00  0.00    +0.000 C 
ATOM      2  C   UNL     1       4.575   4.701  17.253  0.00  0.00    +0.000 C 
ATOM      3  O   UNL     1       4.837   5.834  18.108  0.00  0.00    +0.000 OA
ATOM      4  C   UNL     1       3.748   5.982  19.037  0.00  0.00    +0.000 C 
ATOM      5  C   UNL     1       2.972   4.652  19.045  0.00  0.00    +0.000 C 
ENDROOT
BRANCH   4   6
ATOM      6  N   UNL     1       3.021   7.181  18.664  0.00  0.00    +0.000 N 
ATOM      7  C   UNL     1       3.184   7.869  17.486  0.00  0.00    +0.000 A 
ATOM      8  N   UNL     1       2.430   8.947  17.436  0.00  0.00    +0.000 NA
ATOM      9  C   UNL     1       1.742   8.953  18.629  0.00  0.00    +0.000 A 
ATOM     10  C   UNL     1       0.785   9.825  19.184  0.00  0.00    +0.000 A 
ATOM     11  N   UNL     1       0.272  10.926  18.521  0.00  0.00    +0.000 N 
ATOM     12  N   UNL     1       0.341   9.587  20.442  0.00  0.00    +0.000 NA
ATOM     13  C   UNL     1       0.800   8.503  21.093  0.00  0.00    +0.000 A 
ATOM     14  N   UNL     1       1.665   7.583  20.638  0.00  0.00    +0.000 NA
ATOM     15  C   UNL     1       2.109   7.874  19.409  0.00  0.00    +0.000 A 
ATOM     16  H   UNL     1       0.850  11.251  17.758  0.00  0.00    +0.000 HD
ATOM     17  H   UNL     1      -0.112  11.609  19.159  0.00  0.00    +0.000 HD
ENDBRANCH   4   6
BRANCH   1  20
ATOM     18  N   UNL     1       1.061   1.690  18.016  0.00  0.00    +0.000 NA
ATOM     19  N   UNL     1       2.070   2.157  17.777  0.00  0.00    +0.000 NA
ATOM     20  N   UNL     1       3.162   2.691  17.494  0.00  0.00    +0.000 NA
ENDBRANCH   1  20
BRANCH   2  21
ATOM     21  C   UNL     1       4.609   5.138  15.783  0.00  0.00    +0.000 C 
BRANCH  21  22
ATOM     22  O   UNL     1       5.827   5.798  15.467  0.00  0.00    +0.000 OA
BRANCH  22  23
ATOM     23  P   UNL     1       7.077   4.836  15.188  0.00  0.00    +0.000 P 
ATOM     24  O   UNL     1       7.936   4.492  16.351  0.00  0.00    +0.000 OA
BRANCH  23  25
ATOM     25  O   UNL     1       6.466   3.604  14.383  0.00  0.00    +0.000 OA
ATOM     26  H   UNL     1       5.889   3.064  14.950  0.00  0.00    +0.000 HD
ENDBRANCH  23  25
BRANCH  23  27
ATOM     27  O   UNL     1       7.900   5.574  14.036  0.00  0.00    +0.000 OA
ATOM     28  H   UNL     1       8.290   6.398  14.389  0.00  0.00    +0.000 HD
ENDBRANCH  23  27
ENDBRANCH  22  23
ENDBRANCH  21  22
ENDBRANCH   2  21
BRANCH   5  29
ATOM     29  O   UNL     1       3.457   3.733  20.029  0.00  0.00    +0.000 OA
BRANCH  29  30
ATOM     30  P   UNL     1       2.215   3.246  21.130  0.00  0.00    +0.000 P 
ATOM     31  O   UNL     1       3.171   2.372  21.932  0.00  0.00    +0.000 OA
BRANCH  30  32
ATOM     32  O   UNL     1       2.193   4.714  21.818  0.00  0.00    +0.000 OA
ATOM     33  H   UNL     1       2.120   4.678  22.787  0.00  0.00    +0.000 HD
ENDBRANCH  30  32
BRANCH  30  34
ATOM     34  O   UNL     1       0.973   2.758  22.232  0.00  0.00    +0.000 OA
ATOM     35  H   UNL     1       0.357   2.279  21.636  0.00  0.00    +0.000 HD
ENDBRANCH  30  34
ENDBRANCH  29  30
ENDBRANCH   5  29
TORSDOF 11
ENDMDL
MODEL 5
REMARK VINA RESULT:      -7.0      1.645      1.994
REMARK  Name = 
REMARK  11 active torsions:
REMARK  status: ('A' for Active; 'I' for Inactive)
REMARK    1  A    between atoms: N_3  and  C_4
REMARK    2  A    between atoms: C_5  and  C_6
REMARK    3  A    between atoms: C_6  and  O_7
REMARK    4  A    between atoms: O_7  and  P_8
REMARK    5  A    between atoms: P_8  and  O_10
REMARK    6  A    between atoms: P_8  and  O_11
REMARK    7  A    between atoms: C_13  and  N_14
REMARK    8  A    between atoms: C_24  and  O_25
REMARK    9  A    between atoms: O_25  and  P_26
REMARK   10  A    between atoms: P_26  and  O_28
REMARK   11  A    between atoms: P_26  and  O_29
REMARK                            x       y       z     vdW  Elec       q    Type
REMARK                         _______ _______ _______ _____ _____    ______ ____
ROOT
ATOM      1  C   UNL     1       3.123   5.001  17.507  0.00  0.00    +0.000 C 
ATOM      2  C   UNL     1       4.344   5.298  18.385  0.00  0.00    +0.000 C 
ATOM      3  O   UNL     1       3.868   5.949  19.582  0.00  0.00    +0.000 OA
ATOM      4  C   UNL     1       2.431   6.008  19.546  0.00  0.00    +0.000 C 
ATOM      5  C   UNL     1       1.960   4.991  18.489  0.00  0.00    +0.000 C 
ENDROOT
BRANCH   4   6
ATOM      6  N   UNL     1       2.059   7.397  19.353  0.00  0.00    +0.000 N 
ATOM      7  C   UNL     1       2.172   8.087  18.169  0.00  0.00    +0.000 A 
ATOM      8  N   UNL     1       1.807   9.345  18.297  0.00  0.00    +0.000 NA
ATOM      9  C   UNL     1       1.434   9.475  19.615  0.00  0.00    +0.000 A 
ATOM     10  C   UNL     1       0.949  10.555  20.378  0.00  0.00    +0.000 A 
ATOM     11  N   UNL     1       0.682  11.807  19.853  0.00  0.00    +0.000 N 
ATOM     12  N   UNL     1       0.739  10.372  21.704  0.00  0.00    +0.000 NA
ATOM     13  C   UNL     1       0.960   9.155  22.230  0.00  0.00    +0.000 A 
ATOM     14  N   UNL     1       1.366   8.050  21.587  0.00  0.00    +0.000 NA
ATOM     15  C   UNL     1       1.601   8.280  20.288  0.00  0.00    +0.000 A 
ATOM     16  H   UNL     1       1.152  11.994  18.978  0.00  0.00    +0.000 HD
ATOM     17  H   UNL     1       0.684  12.526  20.563  0.00  0.00    +0.000 HD
ENDBRANCH   4   6
BRANCH   1  20
ATOM     18  N   UNL     1       4.328   1.997  18.050  0.00  0.00    +0.000 NA
ATOM     19  N   UNL     1       3.848   2.825  17.433  0.00  0.00    +0.000 NA
ATOM     20  N   UNL     1       3.301   3.737  16.782  0.00  0.00    +0.000 NA
ENDBRANCH   1  20
BRANCH   2  21
ATOM     21  C   UNL     1       5.330   6.214  17.650  0.00  0.00    +0.000 C 
BRANCH  21  22
ATOM     22  O   UNL     1       5.582   5.750  16.330  0.00  0.00    +0.000 OA
BRANCH  22  23
ATOM     23  P   UNL     1       6.825   4.752  16.178  0.00  0.00    +0.000 P 
ATOM     24  O   UNL     1       7.796   4.709  17.304  0.00  0.00    +0.000 OA
BRANCH  23  25
ATOM     25  O   UNL     1       6.177   3.358  15.762  0.00  0.00    +0.000 OA
ATOM     26  H   UNL     1       6.552   2.626  16.283  0.00  0.00    +0.000 HD
ENDBRANCH  23  25
BRANCH  23  27
ATOM     27  O   UNL     1       7.521   5.185  14.808  0.00  0.00    +0.000 OA
ATOM     28  H   UNL     1       8.426   4.819  14.770  0.00  0.00    +0.000 HD
ENDBRANCH  23  27
ENDBRANCH  22  23
ENDBRANCH  21  22
ENDBRANCH   2  21
BRANCH   5  29
ATOM     29  O   UNL     1       1.719   3.692  19.039  0.00  0.00    +0.000 OA
BRANCH  29  30
ATOM     30  P   UNL     1       1.992   3.648  20.746  0.00  0.00    +0.000 P 
ATOM     31  O   UNL     1       0.785   2.749  20.986  0.00  0.00    +0.000 OA
BRANCH  30  32
ATOM     32  O   UNL     1       3.289   2.694  20.556  0.00  0.00    +0.000 OA
ATOM     33  H   UNL     1       3.851   2.656  21.349  0.00  0.00    +0.000 HD
ENDBRANCH  30  32
BRANCH  30  34
ATOM     34  O   UNL     1       2.263   3.604  22.454  0.00  0.00    +0.000 OA
ATOM     35  H   UNL     1       2.153   2.647  22.648  0.00  0.00    +0.000 HD
ENDBRANCH  30  34
ENDBRANCH  29  30
ENDBRANCH   5  29
TORSDOF 11
ENDMDL
MODEL 6
REMARK VINA RESULT:      -6.9      1.596      5.246
REMARK  Name = 
REMARK  11 active torsions:
REMARK  status: ('A' for Active; 'I' for Inactive)
REMARK    1  A    between atoms: N_3  and  C_4
REMARK    2  A    between atoms: C_5  and  C_6
REMARK    3  A    between atoms: C_6  and  O_7
REMARK    4  A    between atoms: O_7  and  P_8
REMARK    5  A    between atoms: P_8  and  O_10
REMARK    6  A    between atoms: P_8  and  O_11
REMARK    7  A    between atoms: C_13  and  N_14
REMARK    8  A    between atoms: C_24  and  O_25
REMARK    9  A    between atoms: O_25  and  P_26
REMARK   10  A    between atoms: P_26  and  O_28
REMARK   11  A    between atoms: P_26  and  O_29
REMARK                            x       y       z     vdW  Elec       q    Type
REMARK                         _______ _______ _______ _____ _____    ______ ____
ROOT
ATOM      1  C   UNL     1       4.262   4.030  18.909  0.00  0.00    +0.000 C 
ATOM      2  C   UNL     1       3.558   4.152  17.554  0.00  0.00    +0.000 C 
ATOM      3  O   UNL     1       3.460   5.558  17.241  0.00  0.00    +0.000 OA
ATOM      4  C   UNL     1       4.124   6.315  18.269  0.00  0.00    +0.000 C 
ATOM      5  C   UNL     1       5.030   5.338  19.041  0.00  0.00    +0.000 C 
ENDROOT
BRANCH   4   6
ATOM      6  N   UNL     1       3.100   7.016  19.020  0.00  0.00    +0.000 N 
ATOM      7  C   UNL     1       2.537   6.570  20.193  0.00  0.00    +0.000 A 
ATOM      8  N   UNL     1       1.598   7.384  20.627  0.00  0.00    +0.000 NA
ATOM      9  C   UNL     1       1.556   8.404  19.704  0.00  0.00    +0.000 A 
ATOM     10  C   UNL     1       0.779   9.574  19.594  0.00  0.00    +0.000 A 
ATOM     11  N   UNL     1      -0.147   9.972  20.541  0.00  0.00    +0.000 N 
ATOM     12  N   UNL     1       0.933  10.356  18.498  0.00  0.00    +0.000 NA
ATOM     13  C   UNL     1       1.853  10.007  17.582  0.00  0.00    +0.000 A 
ATOM     14  N   UNL     1       2.679   8.951  17.615  0.00  0.00    +0.000 NA
ATOM     15  C   UNL     1       2.469   8.182  18.691  0.00  0.00    +0.000 A 
ATOM     16  H   UNL     1      -0.465   9.224  21.144  0.00  0.00    +0.000 HD
ATOM     17  H   UNL     1      -0.835  10.605  20.158  0.00  0.00    +0.000 HD
ENDBRANCH   4   6
BRANCH   1  20
ATOM     18  N   UNL     1       5.015   1.605  20.989  0.00  0.00    +0.000 NA
ATOM     19  N   UNL     1       5.077   2.191  20.015  0.00  0.00    +0.000 NA
ATOM     20  N   UNL     1       5.112   2.833  18.946  0.00  0.00    +0.000 NA
ENDBRANCH   1  20
BRANCH   2  21
ATOM     21  C   UNL     1       2.155   3.533  17.614  0.00  0.00    +0.000 C 
BRANCH  21  22
ATOM     22  O   UNL     1       1.460   3.940  18.786  0.00  0.00    +0.000 OA
BRANCH  22  23
ATOM     23  P   UNL     1       1.255   2.800  19.892  0.00  0.00    +0.000 P 
ATOM     24  O   UNL     1       1.627   3.144  21.290  0.00  0.00    +0.000 OA
BRANCH  23  25
ATOM     25  O   UNL     1      -0.238   2.288  19.673  0.00  0.00    +0.000 OA
ATOM     26  H   UNL     1      -0.849   2.707  20.304  0.00  0.00    +0.000 HD
ENDBRANCH  23  25
BRANCH  23  27
ATOM     27  O   UNL     1       2.088   1.554  19.342  0.00  0.00    +0.000 OA
ATOM     28  H   UNL     1       1.477   0.822  19.126  0.00  0.00    +0.000 HD
ENDBRANCH  23  27
ENDBRANCH  22  23
ENDBRANCH  21  22
ENDBRANCH   2  21
BRANCH   5  29
ATOM     29  O   UNL     1       6.350   5.254  18.493  0.00  0.00    +0.000 OA
BRANCH  29  30
ATOM     30  P   UNL     1       6.875   6.764  17.833  0.00  0.00    +0.000 P 
ATOM     31  O   UNL     1       8.092   6.821  18.749  0.00  0.00    +0.000 OA
BRANCH  30  32
ATOM     32  O   UNL     1       7.330   6.049  16.451  0.00  0.00    +0.000 OA
ATOM     33  H   UNL     1       6.624   6.032  15.783  0.00  0.00    +0.000 HD
ENDBRANCH  30  32
BRANCH  30  34
ATOM     34  O   UNL     1       7.402   8.275  17.174  0.00  0.00    +0.000 OA
ATOM     35  H   UNL     1       7.275   8.879  17.938  0.00  0.00    +0.000 HD
ENDBRANCH  30  34
ENDBRANCH  29  30
ENDBRANCH   5  29
TORSDOF 11
ENDMDL
MODEL 7
REMARK VINA RESULT:      -6.9      1.653      5.125
REMARK  Name = 
REMARK  11 active torsions:
REMARK  status: ('A' for Active; 'I' for Inactive)
REMARK    1  A    between atoms: N_3  and  C_4
REMARK    2  A    between atoms: C_5  and  C_6
REMARK    3  A    between atoms: C_6  and  O_7
REMARK    4  A    between atoms: O_7  and  P_8
REMARK    5  A    between atoms: P_8  and  O_10
REMARK    6  A    between atoms: P_8  and  O_11
REMARK    7  A    between atoms: C_13  and  N_14
REMARK    8  A    between atoms: C_24  and  O_25
REMARK    9  A    between atoms: O_25  and  P_26
REMARK   10  A    between atoms: P_26  and  O_28
REMARK   11  A    between atoms: P_26  and  O_29
REMARK                            x       y       z     vdW  Elec       q    Type
REMARK                         _______ _______ _______ _____ _____    ______ ____
ROOT
ATOM      1  C   UNL     1       4.231   4.468  18.817  0.00  0.00    +0.000 C 
ATOM      2  C   UNL     1       3.398   4.513  17.532  0.00  0.00    +0.000 C 
ATOM      3  O   UNL     1       3.165   5.903  17.215  0.00  0.00    +0.000 OA
ATOM      4  C   UNL     1       3.861   6.725  18.170  0.00  0.00    +0.000 C 
ATOM      5  C   UNL     1       4.906   5.831  18.864  0.00  0.00    +0.000 C 
ENDROOT
BRANCH   4   6
ATOM      6  N   UNL     1       2.859   7.360  19.006  0.00  0.00    +0.000 N 
ATOM      7  C   UNL     1       2.392   6.857  20.197  0.00  0.00    +0.000 A 
ATOM      8  N   UNL     1       1.450   7.618  20.715  0.00  0.00    +0.000 NA
ATOM      9  C   UNL     1       1.307   8.661  19.828  0.00  0.00    +0.000 A 
ATOM     10  C   UNL     1       0.478   9.799  19.804  0.00  0.00    +0.000 A 
ATOM     11  N   UNL     1      -0.401  10.130  20.820  0.00  0.00    +0.000 N 
ATOM     12  N   UNL     1       0.530  10.618  18.726  0.00  0.00    +0.000 NA
ATOM     13  C   UNL     1       1.402  10.335  17.742  0.00  0.00    +0.000 A 
ATOM     14  N   UNL     1       2.271   9.314  17.691  0.00  0.00    +0.000 NA
ATOM     15  C   UNL     1       2.162   8.506  18.754  0.00  0.00    +0.000 A 
ATOM     16  H   UNL     1      -0.649   9.353  21.418  0.00  0.00    +0.000 HD
ATOM     17  H   UNL     1      -1.137  10.744  20.501  0.00  0.00    +0.000 HD
ENDBRANCH   4   6
BRANCH   1  20
ATOM     18  N   UNL     1       4.924   1.791  20.586  0.00  0.00    +0.000 NA
ATOM     19  N   UNL     1       5.056   2.530  19.731  0.00  0.00    +0.000 NA
ATOM     20  N   UNL     1       5.169   3.339  18.787  0.00  0.00    +0.000 NA
ENDBRANCH   1  20
BRANCH   2  21
ATOM     21  C   UNL     1       2.058   3.792  17.728  0.00  0.00    +0.000 C 
BRANCH  21  22
ATOM     22  O   UNL     1       1.513   4.055  19.014  0.00  0.00    +0.000 OA
BRANCH  22  23
ATOM     23  P   UNL     1       1.260   2.765  19.929  0.00  0.00    +0.000 P 
ATOM     24  O   UNL     1       1.630   2.873  21.365  0.00  0.00    +0.000 OA
BRANCH  23  25
ATOM     25  O   UNL     1      -0.246   2.343  19.626  0.00  0.00    +0.000 OA
ATOM     26  H   UNL     1      -0.352   2.053  18.703  0.00  0.00    +0.000 HD
ENDBRANCH  23  25
BRANCH  23  27
ATOM     27  O   UNL     1       2.057   1.592  19.195  0.00  0.00    +0.000 OA
ATOM     28  H   UNL     1       3.015   1.787  19.212  0.00  0.00    +0.000 HD
ENDBRANCH  23  27
ENDBRANCH  22  23
ENDBRANCH  21  22
ENDBRANCH   2  21
BRANCH   5  29
ATOM     29  O   UNL     1       6.173   5.838  18.197  0.00  0.00    +0.000 OA
BRANCH  29  30
ATOM     30  P   UNL     1       7.480   5.527  19.286  0.00  0.00    +0.000 P 
ATOM     31  O   UNL     1       8.060   4.439  18.390  0.00  0.00    +0.000 OA
BRANCH  30  32
ATOM     32  O   UNL     1       8.196   6.927  18.891  0.00  0.00    +0.000 OA
ATOM     33  H   UNL     1       8.292   7.530  19.647  0.00  0.00    +0.000 HD
ENDBRANCH  30  32
BRANCH  30  34
ATOM     34  O   UNL     1       8.788   5.215  20.375  0.00  0.00    +0.000 OA
ATOM     35  H   UNL     1       8.746   4.237  20.460  0.00  0.00    +0.000 HD
ENDBRANCH  30  34
ENDBRANCH  29  30
ENDBRANCH   5  29
TORSDOF 11
ENDMDL
MODEL 8
REMARK VINA RESULT:      -6.9      1.823      2.251
REMARK  Name = 
REMARK  11 active torsions:
REMARK  status: ('A' for Active; 'I' for Inactive)
REMARK    1  A    between atoms: N_3  and  C_4
REMARK    2  A    between atoms: C_5  and  C_6
REMARK    3  A    between atoms: C_6  and  O_7
REMARK    4  A    between atoms: O_7  and  P_8
REMARK    5  A    between atoms: P_8  and  O_10
REMARK    6  A    between atoms: P_8  and  O_11
REMARK    7  A    between atoms: C_13  and  N_14
REMARK    8  A    between atoms: C_24  and  O_25
REMARK    9  A    between atoms: O_25  and  P_26
REMARK   10  A    between atoms: P_26  and  O_28
REMARK   11  A    between atoms: P_26  and  O_29
REMARK                            x       y       z     vdW  Elec       q    Type
REMARK                         _______ _______ _______ _____ _____    ______ ____
ROOT
ATOM      1  C   UNL     1       2.409   4.659  17.531  0.00  0.00    +0.000 C 
ATOM      2  C   UNL     1       3.824   4.911  18.061  0.00  0.00    +0.000 C 
ATOM      3  O   UNL     1       3.702   5.684  19.275  0.00  0.00    +0.000 OA
ATOM      4  C   UNL     1       2.306   5.864  19.578  0.00  0.00    +0.000 C 
ATOM      5  C   UNL     1       1.524   4.819  18.760  0.00  0.00    +0.000 C 
ENDROOT
BRANCH   4   6
ATOM      6  N   UNL     1       1.992   7.263  19.355  0.00  0.00    +0.000 N 
ATOM      7  C   UNL     1       2.143   7.925  18.160  0.00  0.00    +0.000 A 
ATOM      8  N   UNL     1       1.827   9.199  18.261  0.00  0.00    +0.000 NA
ATOM      9  C   UNL     1       1.447   9.368  19.573  0.00  0.00    +0.000 A 
ATOM     10  C   UNL     1       0.998  10.481  20.311  0.00  0.00    +0.000 A 
ATOM     11  N   UNL     1       0.785  11.732  19.760  0.00  0.00    +0.000 N 
ATOM     12  N   UNL     1       0.768  10.331  21.638  0.00  0.00    +0.000 NA
ATOM     13  C   UNL     1       0.935   9.116  22.188  0.00  0.00    +0.000 A 
ATOM     14  N   UNL     1       1.304   7.984  21.570  0.00  0.00    +0.000 NA
ATOM     15  C   UNL     1       1.560   8.181  20.270  0.00  0.00    +0.000 A 
ATOM     16  H   UNL     1       1.271  11.884  18.886  0.00  0.00    +0.000 HD
ATOM     17  H   UNL     1       0.808  12.464  20.456  0.00  0.00    +0.000 HD
ENDBRANCH   4   6
BRANCH   1  20
ATOM     18  N   UNL     1       3.596   1.632  17.975  0.00  0.00    +0.000 NA
ATOM     19  N   UNL     1       2.993   2.441  17.449  0.00  0.00    +0.000 NA
ATOM     20  N   UNL     1       2.319   3.336  16.901  0.00  0.00    +0.000 NA
ENDBRANCH   1  20
BRANCH   2  21
ATOM     21  C   UNL     1       4.659   5.684  17.033  0.00  0.00    +0.000 C 
BRANCH  21  22
ATOM     22  O   UNL     1       6.049   5.570  17.304  0.00  0.00    +0.000 OA
BRANCH  22  23
ATOM     23  P   UNL     1       6.874   4.646  16.289  0.00  0.00    +0.000 P 
ATOM     24  O   UNL     1       6.129   3.545  15.622  0.00  0.00    +0.000 OA
BRANCH  23  25
ATOM     25  O   UNL     1       7.617   5.671  15.321  0.00  0.00    +0.000 OA
ATOM     26  H   UNL     1       7.163   6.532  15.305  0.00  0.00    +0.000 HD
ENDBRANCH  23  25
BRANCH  23  27
ATOM     27  O   UNL     1       8.100   4.099  17.152  0.00  0.00    +0.000 OA
ATOM     28  H   UNL     1       8.851   4.722  17.086  0.00  0.00    +0.000 HD
ENDBRANCH  23  27
ENDBRANCH  22  23
ENDBRANCH  21  22
ENDBRANCH   2  21
BRANCH   5  29
ATOM     29  O   UNL     1       1.340   3.587  19.465  0.00  0.00    +0.000 OA
BRANCH  29  30
ATOM     30  P   UNL     1       1.975   3.658  21.073  0.00  0.00    +0.000 P 
ATOM     31  O   UNL     1       0.949   2.661  21.597  0.00  0.00    +0.000 OA
BRANCH  30  32
ATOM     32  O   UNL     1       3.294   2.824  20.632  0.00  0.00    +0.000 OA
ATOM     33  H   UNL     1       4.069   3.022  21.185  0.00  0.00    +0.000 HD
ENDBRANCH  30  32
BRANCH  30  34
ATOM     34  O   UNL     1       2.609   3.728  22.681  0.00  0.00    +0.000 OA
ATOM     35  H   UNL     1       3.555   3.934  22.512  0.00  0.00    +0.000 HD
ENDBRANCH  30  34
ENDBRANCH  29  30
ENDBRANCH   5  29
TORSDOF 11
ENDMDL
MODEL 9
REMARK VINA RESULT:      -6.8      1.434      1.892
REMARK  Name = 
REMARK  11 active torsions:
REMARK  status: ('A' for Active; 'I' for Inactive)
REMARK    1  A    between atoms: N_3  and  C_4
REMARK    2  A    between atoms: C_5  and  C_6
REMARK    3  A    between atoms: C_6  and  O_7
REMARK    4  A    between atoms: O_7  and  P_8
REMARK    5  A    between atoms: P_8  and  O_10
REMARK    6  A    between atoms: P_8  and  O_11
REMARK    7  A    between atoms: C_13  and  N_14
REMARK    8  A    between atoms: C_24  and  O_25
REMARK    9  A    between atoms: O_25  and  P_26
REMARK   10  A    between atoms: P_26  and  O_28
REMARK   11  A    between atoms: P_26  and  O_29
REMARK                            x       y       z     vdW  Elec       q    Type
REMARK                         _______ _______ _______ _____ _____    ______ ____
ROOT
ATOM      1  C   UNL     1       2.638   4.375  17.475  0.00  0.00    +0.000 C 
ATOM      2  C   UNL     1       4.022   4.648  18.075  0.00  0.00    +0.000 C 
ATOM      3  O   UNL     1       3.833   5.489  19.233  0.00  0.00    +0.000 OA
ATOM      4  C   UNL     1       2.424   5.694  19.441  0.00  0.00    +0.000 C 
ATOM      5  C   UNL     1       1.683   4.609  18.637  0.00  0.00    +0.000 C 
ENDROOT
BRANCH   4   6
ATOM      6  N   UNL     1       2.137   7.080  19.121  0.00  0.00    +0.000 N 
ATOM      7  C   UNL     1       2.378   7.676  17.907  0.00  0.00    +0.000 A 
ATOM      8  N   UNL     1       2.065   8.955  17.916  0.00  0.00    +0.000 NA
ATOM      9  C   UNL     1       1.593   9.196  19.187  0.00  0.00    +0.000 A 
ATOM     10  C   UNL     1       1.101  10.348  19.830  0.00  0.00    +0.000 A 
ATOM     11  N   UNL     1       0.937  11.568  19.199  0.00  0.00    +0.000 N 
ATOM     12  N   UNL     1       0.775  10.271  21.143  0.00  0.00    +0.000 NA
ATOM     13  C   UNL     1       0.894   9.087  21.768  0.00  0.00    +0.000 A 
ATOM     14  N   UNL     1       1.297   7.922  21.239  0.00  0.00    +0.000 NA
ATOM     15  C   UNL     1       1.647   8.047  19.952  0.00  0.00    +0.000 A 
ATOM     16  H   UNL     1       1.485  11.672  18.355  0.00  0.00    +0.000 HD
ATOM     17  H   UNL     1       0.916  12.337  19.855  0.00  0.00    +0.000 HD
ENDBRANCH   4   6
BRANCH   1  20
ATOM     18  N   UNL     1       3.720   1.360  18.190  0.00  0.00    +0.000 NA
ATOM     19  N   UNL     1       3.181   2.147  17.569  0.00  0.00    +0.000 NA
ATOM     20  N   UNL     1       2.574   3.019  16.915  0.00  0.00    +0.000 NA
ENDBRANCH   1  20
BRANCH   2  21
ATOM     21  C   UNL     1       4.924   5.357  17.057  0.00  0.00    +0.000 C 
BRANCH  21  22
ATOM     22  O   UNL     1       5.517   6.522  17.615  0.00  0.00    +0.000 OA
BRANCH  22  23
ATOM     23  P   UNL     1       7.111   6.609  17.487  0.00  0.00    +0.000 P 
ATOM     24  O   UNL     1       7.908   6.082  18.626  0.00  0.00    +0.000 OA
BRANCH  23  25
ATOM     25  O   UNL     1       7.437   5.983  16.059  0.00  0.00    +0.000 OA
ATOM     26  H   UNL     1       7.052   6.519  15.344  0.00  0.00    +0.000 HD
ENDBRANCH  23  25
BRANCH  23  27
ATOM     27  O   UNL     1       7.407   8.154  17.216  0.00  0.00    +0.000 OA
ATOM     28  H   UNL     1       7.244   8.667  18.033  0.00  0.00    +0.000 HD
ENDBRANCH  23  27
ENDBRANCH  22  23
ENDBRANCH  21  22
ENDBRANCH   2  21
BRANCH   5  29
ATOM     29  O   UNL     1       1.444   3.420  19.397  0.00  0.00    +0.000 OA
BRANCH  29  30
ATOM     30  P   UNL     1       2.003   3.570  21.027  0.00  0.00    +0.000 P 
ATOM     31  O   UNL     1       0.931   2.625  21.555  0.00  0.00    +0.000 OA
BRANCH  30  32
ATOM     32  O   UNL     1       3.322   2.686  20.700  0.00  0.00    +0.000 OA
ATOM     33  H   UNL     1       3.983   3.172  20.177  0.00  0.00    +0.000 HD
ENDBRANCH  30  32
BRANCH  30  34
ATOM     34  O   UNL     1       2.560   3.719  22.659  0.00  0.00    +0.000 OA
ATOM     35  H   UNL     1       3.534   3.751  22.533  0.00  0.00    +0.000 HD
ENDBRANCH  30  34
ENDBRANCH  29  30
ENDBRANCH   5  29
TORSDOF 11
ENDMDL
