MODEL 1
REMARK VINA RESULT:      -7.9      0.000      0.000
REMARK  Name = 
REMARK  4 active torsions:
REMARK  status: ('A' for Active; 'I' for Inactive)
REMARK    1  A    between atoms: C_5  and  O_6
REMARK    2  A    between atoms: C_5  and  C_7
REMARK    3  A    between atoms: C_12  and  O_13
REMARK    4  A    between atoms: C_15  and  O_16
REMARK                            x       y       z     vdW  Elec       q    Type
REMARK                         _______ _______ _______ _____ _____    ______ ____
ROOT
ATOM      1  C   UNL     1       1.992   7.159  19.501  0.00  0.00    +0.000 A 
ATOM      2  C   UNL     1       2.221   7.953  18.444  0.00  0.00    +0.000 A 
ATOM      3  C   UNL     1       1.829   9.364  18.481  0.00  0.00    +0.000 A 
ATOM      4  O   UNL     1       2.032  10.119  17.537  0.00  0.00    +0.000 OA
ATOM      5  C   UNL     1       1.193   9.841  19.712  0.00  0.00    +0.000 A 
ATOM      6  C   UNL     1       0.806  11.177  19.862  0.00  0.00    +0.000 A 
ATOM      7  C   UNL     1       0.214  11.605  21.047  0.00  0.00    +0.000 A 
ATOM      8  C   UNL     1       0.008  10.683  22.071  0.00  0.00    +0.000 A 
ATOM      9  C   UNL     1       0.386   9.349  21.929  0.00  0.00    +0.000 A 
ATOM     10  C   UNL     1       0.988   8.927  20.745  0.00  0.00    +0.000 A 
ATOM     11  O   UNL     1       1.362   7.607  20.663  0.00  0.00    +0.000 OA
ENDROOT
BRANCH   1  16
ATOM     12  O   UNL     1       0.924   1.887  18.756  0.00  0.00    +0.000 OA
ATOM     13  C   UNL     1       1.271   3.044  18.955  0.00  0.00    +0.000 C 
ATOM     14  C   UNL     1       1.087   3.684  20.278  0.00  0.00    +0.000 C 
ATOM     15  C   UNL     1       1.605   4.896  20.531  0.00  0.00    +0.000 C 
ATOM     16  C   UNL     1       2.413   5.692  19.532  0.00  0.00    +0.000 C 
ATOM     17  C   UNL     1       2.385   5.077  18.158  0.00  0.00    +0.000 C 
ATOM     18  C   UNL     1       1.873   3.867  17.883  0.00  0.00    +0.000 C 
BRANCH  16  19
ATOM     19  O   UNL     1       3.778   5.598  19.943  0.00  0.00    +0.000 OA
ATOM     20  H   UNL     1       4.322   5.501  19.145  0.00  0.00    +0.000 HD
ENDBRANCH  16  19
ENDBRANCH   1  16
BRANCH   6  21
ATOM     21  O   UNL     1       0.988  12.120  18.887  0.00  0.00    +0.000 OA
ATOM     22  H   UNL     1       1.604  12.807  19.231  0.00  0.00    +0.000 HD
ENDBRANCH   6  21
BRANCH   8  23
ATOM     23  O   UNL     1      -0.565  11.056  23.250  0.00  0.00    +0.000 OA
ATOM     24  H   UNL     1      -0.560  12.027  23.310  0.00  0.00    +0.000 HD
ENDBRANCH   8  23
TORSDOF 4
ENDMDL
MODEL 2
REMARK VINA RESULT:      -7.9      4.945      8.005
REMARK  Name = 
REMARK  4 active torsions:
REMARK  status: ('A' for Active; 'I' for Inactive)
REMARK    1  A    between atoms: C_5  and  O_6
REMARK    2  A    between atoms: C_5  and  C_7
REMARK    3  A    between atoms: C_12  and  O_13
REMARK    4  A    between atoms: C_15  and  O_16
REMARK                            x       y       z     vdW  Elec       q    Type
REMARK                         _______ _______ _______ _____ _____    ______ ____
ROOT
ATOM      1  C   UNL     1       4.910   4.550  17.079  0.00  0.00    +0.000 A 
ATOM      2  C   UNL     1       5.938   5.399  17.238  0.00  0.00    +0.000 A 
ATOM      3  C   UNL     1       6.884   5.626  16.142  0.00  0.00    +0.000 A 
ATOM      4  O   UNL     1       7.827   6.402  16.251  0.00  0.00    +0.000 OA
ATOM      5  C   UNL     1       6.642   4.893  14.897  0.00  0.00    +0.000 A 
ATOM      6  C   UNL     1       7.468   5.060  13.781  0.00  0.00    +0.000 A 
ATOM      7  C   UNL     1       7.209   4.358  12.607  0.00  0.00    +0.000 A 
ATOM      8  C   UNL     1       6.122   3.488  12.566  0.00  0.00    +0.000 A 
ATOM      9  C   UNL     1       5.295   3.312  13.675  0.00  0.00    +0.000 A 
ATOM     10  C   UNL     1       5.553   4.023  14.845  0.00  0.00    +0.000 A 
ATOM     11  O   UNL     1       4.696   3.831  15.902  0.00  0.00    +0.000 OA
ENDROOT
BRANCH   1  16
ATOM     12  O   UNL     1       0.322   2.250  18.851  0.00  0.00    +0.000 OA
ATOM     13  C   UNL     1       1.366   2.815  18.556  0.00  0.00    +0.000 C 
ATOM     14  C   UNL     1       1.366   4.175  17.970  0.00  0.00    +0.000 C 
ATOM     15  C   UNL     1       2.516   4.844  17.792  0.00  0.00    +0.000 C 
ATOM     16  C   UNL     1       3.874   4.303  18.172  0.00  0.00    +0.000 C 
ATOM     17  C   UNL     1       3.818   2.851  18.567  0.00  0.00    +0.000 C 
ATOM     18  C   UNL     1       2.680   2.163  18.752  0.00  0.00    +0.000 C 
BRANCH  16  19
ATOM     19  O   UNL     1       4.268   4.986  19.363  0.00  0.00    +0.000 OA
ATOM     20  H   UNL     1       4.421   5.917  19.134  0.00  0.00    +0.000 HD
ENDBRANCH  16  19
ENDBRANCH   1  16
BRANCH   6  21
ATOM     21  O   UNL     1       8.547   5.903  13.770  0.00  0.00    +0.000 OA
ATOM     22  H   UNL     1       8.370   6.640  14.399  0.00  0.00    +0.000 HD
ENDBRANCH   6  21
BRANCH   8  23
ATOM     23  O   UNL     1       5.827   2.782  11.438  0.00  0.00    +0.000 OA
ATOM     24  H   UNL     1       6.201   1.888  11.519  0.00  0.00    +0.000 HD
ENDBRANCH   8  23
TORSDOF 4
ENDMDL
MODEL 3
REMARK VINA RESULT:      -7.9      4.701      7.200
REMARK  Name = 
REMARK  4 active torsions:
REMARK  status: ('A' for Active; 'I' for Inactive)
REMARK    1  A    between atoms: C_5  and  O_6
REMARK    2  A    between atoms: C_5  and  C_7
REMARK    3  A    between atoms: C_12  and  O_13
REMARK    4  A    between atoms: C_15  and  O_16
REMARK                            x       y       z     vdW  Elec       q    Type
REMARK                         _______ _______ _______ _____ _____    ______ ____
ROOT
ATOM      1  C   UNL     1       3.611   4.339  17.926  0.00  0.00    +0.000 A 
ATOM      2  C   UNL     1       4.415   5.264  18.473  0.00  0.00    +0.000 A 
ATOM      3  C   UNL     1       5.611   5.720  17.759  0.00  0.00    +0.000 A 
ATOM      4  O   UNL     1       6.360   6.570  18.226  0.00  0.00    +0.000 OA
ATOM      5  C   UNL     1       5.862   5.122  16.445  0.00  0.00    +0.000 A 
ATOM      6  C   UNL     1       6.959   5.508  15.667  0.00  0.00    +0.000 A 
ATOM      7  C   UNL     1       7.169   4.931  14.417  0.00  0.00    +0.000 A 
ATOM      8  C   UNL     1       6.275   3.965  13.961  0.00  0.00    +0.000 A 
ATOM      9  C   UNL     1       5.182   3.571  14.731  0.00  0.00    +0.000 A 
ATOM     10  C   UNL     1       4.970   4.158  15.977  0.00  0.00    +0.000 A 
ATOM     11  O   UNL     1       3.866   3.751  16.687  0.00  0.00    +0.000 OA
ENDROOT
BRANCH   1  16
ATOM     12  O   UNL     1       0.955   2.492  22.288  0.00  0.00    +0.000 OA
ATOM     13  C   UNL     1       1.453   2.903  21.248  0.00  0.00    +0.000 C 
ATOM     14  C   UNL     1       2.040   1.973  20.257  0.00  0.00    +0.000 C 
ATOM     15  C   UNL     1       2.447   2.417  19.057  0.00  0.00    +0.000 C 
ATOM     16  C   UNL     1       2.334   3.855  18.609  0.00  0.00    +0.000 C 
ATOM     17  C   UNL     1       1.922   4.771  19.731  0.00  0.00    +0.000 C 
ATOM     18  C   UNL     1       1.512   4.349  20.937  0.00  0.00    +0.000 C 
BRANCH  16  19
ATOM     19  O   UNL     1       1.250   3.910  17.681  0.00  0.00    +0.000 OA
ATOM     20  H   UNL     1       1.514   3.419  16.886  0.00  0.00    +0.000 HD
ENDBRANCH  16  19
ENDBRANCH   1  16
BRANCH   6  21
ATOM     21  O   UNL     1       7.864   6.453  16.070  0.00  0.00    +0.000 OA
ATOM     22  H   UNL     1       8.413   6.069  16.790  0.00  0.00    +0.000 HD
ENDBRANCH   6  21
BRANCH   8  23
ATOM     23  O   UNL     1       6.438   3.375  12.743  0.00  0.00    +0.000 OA
ATOM     24  H   UNL     1       5.613   3.467  12.236  0.00  0.00    +0.000 HD
ENDBRANCH   8  23
TORSDOF 4
ENDMDL
MODEL 4
REMARK VINA RESULT:      -7.8      5.574      6.510
REMARK  Name = 
REMARK  4 active torsions:
REMARK  status: ('A' for Active; 'I' for Inactive)
REMARK    1  A    between atoms: C_5  and  O_6
REMARK    2  A    between atoms: C_5  and  C_7
REMARK    3  A    between atoms: C_12  and  O_13
REMARK    4  A    between atoms: C_15  and  O_16
REMARK                            x       y       z     vdW  Elec       q    Type
REMARK                         _______ _______ _______ _____ _____    ______ ____
ROOT
ATOM      1  C   UNL     1       4.043   3.330  18.247  0.00  0.00    +0.000 A 
ATOM      2  C   UNL     1       4.015   3.322  16.905  0.00  0.00    +0.000 A 
ATOM      3  C   UNL     1       4.953   4.149  16.142  0.00  0.00    +0.000 A 
ATOM      4  O   UNL     1       4.960   4.157  14.916  0.00  0.00    +0.000 OA
ATOM      5  C   UNL     1       5.899   4.958  16.914  0.00  0.00    +0.000 A 
ATOM      6  C   UNL     1       6.856   5.760  16.283  0.00  0.00    +0.000 A 
ATOM      7  C   UNL     1       7.751   6.511  17.041  0.00  0.00    +0.000 A 
ATOM      8  C   UNL     1       7.672   6.454  18.430  0.00  0.00    +0.000 A 
ATOM      9  C   UNL     1       6.719   5.661  19.068  0.00  0.00    +0.000 A 
ATOM     10  C   UNL     1       5.832   4.904  18.306  0.00  0.00    +0.000 A 
ATOM     11  O   UNL     1       4.927   4.122  18.982  0.00  0.00    +0.000 OA
ENDROOT
BRANCH   1  16
ATOM     12  O   UNL     1       0.881   2.584  22.598  0.00  0.00    +0.000 OA
ATOM     13  C   UNL     1       1.566   2.644  21.586  0.00  0.00    +0.000 C 
ATOM     14  C   UNL     1       2.995   2.255  21.601  0.00  0.00    +0.000 C 
ATOM     15  C   UNL     1       3.697   2.182  20.458  0.00  0.00    +0.000 C 
ATOM     16  C   UNL     1       3.114   2.462  19.093  0.00  0.00    +0.000 C 
ATOM     17  C   UNL     1       1.728   3.044  19.172  0.00  0.00    +0.000 C 
ATOM     18  C   UNL     1       1.009   3.127  20.303  0.00  0.00    +0.000 C 
BRANCH  16  19
ATOM     19  O   UNL     1       2.939   1.196  18.456  0.00  0.00    +0.000 OA
ATOM     20  H   UNL     1       2.245   1.295  17.784  0.00  0.00    +0.000 HD
ENDBRANCH  16  19
ENDBRANCH   1  16
BRANCH   6  21
ATOM     21  O   UNL     1       6.975   5.849  14.922  0.00  0.00    +0.000 OA
ATOM     22  H   UNL     1       6.129   6.198  14.559  0.00  0.00    +0.000 HD
ENDBRANCH   6  21
BRANCH   8  23
ATOM     23  O   UNL     1       8.528   7.169  19.214  0.00  0.00    +0.000 OA
ATOM     24  H   UNL     1       8.765   6.634  19.991  0.00  0.00    +0.000 HD
ENDBRANCH   8  23
TORSDOF 4
ENDMDL
MODEL 5
REMARK VINA RESULT:      -7.8      5.313      7.334
REMARK  Name = 
REMARK  4 active torsions:
REMARK  status: ('A' for Active; 'I' for Inactive)
REMARK    1  A    between atoms: C_5  and  O_6
REMARK    2  A    between atoms: C_5  and  C_7
REMARK    3  A    between atoms: C_12  and  O_13
REMARK    4  A    between atoms: C_15  and  O_16
REMARK                            x       y       z     vdW  Elec       q    Type
REMARK                         _______ _______ _______ _____ _____    ______ ____
ROOT
ATOM      1  C   UNL     1       4.268   3.482  18.286  0.00  0.00    +0.000 A 
ATOM      2  C   UNL     1       4.955   4.472  18.879  0.00  0.00    +0.000 A 
ATOM      3  C   UNL     1       5.936   5.250  18.118  0.00  0.00    +0.000 A 
ATOM      4  O   UNL     1       6.572   6.166  18.627  0.00  0.00    +0.000 OA
ATOM      5  C   UNL     1       6.110   4.894  16.708  0.00  0.00    +0.000 A 
ATOM      6  C   UNL     1       7.000   5.594  15.884  0.00  0.00    +0.000 A 
ATOM      7  C   UNL     1       7.138   5.241  14.545  0.00  0.00    +0.000 A 
ATOM      8  C   UNL     1       6.385   4.182  14.044  0.00  0.00    +0.000 A 
ATOM      9  C   UNL     1       5.500   3.476  14.857  0.00  0.00    +0.000 A 
ATOM     10  C   UNL     1       5.357   3.839  16.195  0.00  0.00    +0.000 A 
ATOM     11  O   UNL     1       4.455   3.126  16.949  0.00  0.00    +0.000 OA
ENDROOT
BRANCH   1  16
ATOM     12  O   UNL     1       0.961   2.685  22.518  0.00  0.00    +0.000 OA
ATOM     13  C   UNL     1       1.664   2.767  21.520  0.00  0.00    +0.000 C 
ATOM     14  C   UNL     1       3.020   2.173  21.483  0.00  0.00    +0.000 C 
ATOM     15  C   UNL     1       3.722   2.136  20.339  0.00  0.00    +0.000 C 
ATOM     16  C   UNL     1       3.209   2.664  19.020  0.00  0.00    +0.000 C 
ATOM     17  C   UNL     1       1.922   3.430  19.173  0.00  0.00    +0.000 C 
ATOM     18  C   UNL     1       1.205   3.480  20.307  0.00  0.00    +0.000 C 
BRANCH  16  19
ATOM     19  O   UNL     1       2.860   1.525  18.232  0.00  0.00    +0.000 OA
ATOM     20  H   UNL     1       2.287   0.956  18.770  0.00  0.00    +0.000 HD
ENDBRANCH  16  19
ENDBRANCH   1  16
BRANCH   6  21
ATOM     21  O   UNL     1       7.760   6.642  16.328  0.00  0.00    +0.000 OA
ATOM     22  H   UNL     1       7.796   7.321  15.617  0.00  0.00    +0.000 HD
ENDBRANCH   6  21
BRANCH   8  23
ATOM     23  O   UNL     1       6.485   3.802  12.738  0.00  0.00    +0.000 OA
ATOM     24  H   UNL     1       5.691   3.295  12.496  0.00  0.00    +0.000 HD
ENDBRANCH   8  23
TORSDOF 4
ENDMDL
MODEL 6
REMARK VINA RESULT:      -7.7      1.230      1.356
REMARK  Name = 
REMARK  4 active torsions:
REMARK  status: ('A' for Active; 'I' for Inactive)
REMARK    1  A    between atoms: C_5  and  O_6
REMARK    2  A    between atoms: C_5  and  C_7
REMARK    3  A    between atoms: C_12  and  O_13
REMARK    4  A    between atoms: C_15  and  O_16
REMARK                            x       y       z     vdW  Elec       q    Type
REMARK                         _______ _______ _______ _____ _____    ______ ____
ROOT
ATOM      1  C   UNL     1       2.125   6.585  19.724  0.00  0.00    +0.000 A 
ATOM      2  C   UNL     1       2.325   7.203  18.548  0.00  0.00    +0.000 A 
ATOM      3  C   UNL     1       1.943   8.607  18.377  0.00  0.00    +0.000 A 
ATOM      4  O   UNL     1       2.121   9.202  17.321  0.00  0.00    +0.000 OA
ATOM      5  C   UNL     1       1.351   9.277  19.537  0.00  0.00    +0.000 A 
ATOM      6  C   UNL     1       0.978  10.624  19.490  0.00  0.00    +0.000 A 
ATOM      7  C   UNL     1       0.427  11.238  20.611  0.00  0.00    +0.000 A 
ATOM      8  C   UNL     1       0.249  10.490  21.772  0.00  0.00    +0.000 A 
ATOM      9  C   UNL     1       0.613   9.146  21.828  0.00  0.00    +0.000 A 
ATOM     10  C   UNL     1       1.173   8.537  20.707  0.00  0.00    +0.000 A 
ATOM     11  O   UNL     1       1.535   7.217  20.820  0.00  0.00    +0.000 OA
ENDROOT
BRANCH   1  16
ATOM     12  O   UNL     1       3.623   1.692  17.908  0.00  0.00    +0.000 OA
ATOM     13  C   UNL     1       3.294   2.752  18.424  0.00  0.00    +0.000 C 
ATOM     14  C   UNL     1       1.873   3.068  18.694  0.00  0.00    +0.000 C 
ATOM     15  C   UNL     1       1.535   4.162  19.394  0.00  0.00    +0.000 C 
ATOM     16  C   UNL     1       2.537   5.136  19.970  0.00  0.00    +0.000 C 
ATOM     17  C   UNL     1       3.937   4.866  19.486  0.00  0.00    +0.000 C 
ATOM     18  C   UNL     1       4.296   3.779  18.786  0.00  0.00    +0.000 C 
BRANCH  16  19
ATOM     19  O   UNL     1       2.585   4.889  21.376  0.00  0.00    +0.000 OA
ATOM     20  H   UNL     1       2.156   5.635  21.823  0.00  0.00    +0.000 HD
ENDBRANCH  16  19
ENDBRANCH   1  16
BRANCH   6  21
ATOM     21  O   UNL     1       1.134  11.402  18.374  0.00  0.00    +0.000 OA
ATOM     22  H   UNL     1       1.826  10.993  17.806  0.00  0.00    +0.000 HD
ENDBRANCH   6  21
BRANCH   8  23
ATOM     23  O   UNL     1      -0.284  11.049  22.896  0.00  0.00    +0.000 OA
ATOM     24  H   UNL     1       0.355  10.962  23.624  0.00  0.00    +0.000 HD
ENDBRANCH   8  23
TORSDOF 4
ENDMDL
MODEL 7
REMARK VINA RESULT:      -7.5      5.436      7.066
REMARK  Name = 
REMARK  4 active torsions:
REMARK  status: ('A' for Active; 'I' for Inactive)
REMARK    1  A    between atoms: C_5  and  O_6
REMARK    2  A    between atoms: C_5  and  C_7
REMARK    3  A    between atoms: C_12  and  O_13
REMARK    4  A    between atoms: C_15  and  O_16
REMARK                            x       y       z     vdW  Elec       q    Type
REMARK                         _______ _______ _______ _____ _____    ______ ____
ROOT
ATOM      1  C   UNL     1       5.156   4.390  17.839  0.00  0.00    +0.000 A 
ATOM      2  C   UNL     1       4.336   4.014  16.845  0.00  0.00    +0.000 A 
ATOM      3  C   UNL     1       3.026   3.431  17.149  0.00  0.00    +0.000 A 
ATOM      4  O   UNL     1       2.250   3.086  16.265  0.00  0.00    +0.000 OA
ATOM      5  C   UNL     1       2.677   3.292  18.565  0.00  0.00    +0.000 A 
ATOM      6  C   UNL     1       1.440   2.775  18.964  0.00  0.00    +0.000 A 
ATOM      7  C   UNL     1       1.131   2.664  20.317  0.00  0.00    +0.000 A 
ATOM      8  C   UNL     1       2.071   3.070  21.260  0.00  0.00    +0.000 A 
ATOM      9  C   UNL     1       3.309   3.583  20.873  0.00  0.00    +0.000 A 
ATOM     10  C   UNL     1       3.611   3.701  19.517  0.00  0.00    +0.000 A 
ATOM     11  O   UNL     1       4.834   4.232  19.188  0.00  0.00    +0.000 OA
ENDROOT
BRANCH   1  16
ATOM     12  O   UNL     1       8.742   8.394  18.610  0.00  0.00    +0.000 OA
ATOM     13  C   UNL     1       8.012   7.442  18.368  0.00  0.00    +0.000 C 
ATOM     14  C   UNL     1       7.064   7.470  17.230  0.00  0.00    +0.000 C 
ATOM     15  C   UNL     1       6.379   6.369  16.882  0.00  0.00    +0.000 C 
ATOM     16  C   UNL     1       6.515   5.036  17.581  0.00  0.00    +0.000 C 
ATOM     17  C   UNL     1       7.332   5.134  18.842  0.00  0.00    +0.000 C 
ATOM     18  C   UNL     1       8.025   6.224  19.208  0.00  0.00    +0.000 C 
BRANCH  16  19
ATOM     19  O   UNL     1       7.283   4.198  16.716  0.00  0.00    +0.000 OA
ATOM     20  H   UNL     1       8.035   3.857  17.224  0.00  0.00    +0.000 HD
ENDBRANCH  16  19
ENDBRANCH   1  16
BRANCH   6  21
ATOM     21  O   UNL     1       0.482   2.364  18.076  0.00  0.00    +0.000 OA
ATOM     22  H   UNL     1      -0.177   3.088  17.975  0.00  0.00    +0.000 HD
ENDBRANCH   6  21
BRANCH   8  23
ATOM     23  O   UNL     1       1.812   2.983  22.596  0.00  0.00    +0.000 OA
ATOM     24  H   UNL     1       0.993   2.475  22.725  0.00  0.00    +0.000 HD
ENDBRANCH   8  23
TORSDOF 4
ENDMDL
MODEL 8
REMARK VINA RESULT:      -7.4      2.067      2.991
REMARK  Name = 
REMARK  4 active torsions:
REMARK  status: ('A' for Active; 'I' for Inactive)
REMARK    1  A    between atoms: C_5  and  O_6
REMARK    2  A    between atoms: C_5  and  C_7
REMARK    3  A    between atoms: C_12  and  O_13
REMARK    4  A    between atoms: C_15  and  O_16
REMARK                            x       y       z     vdW  Elec       q    Type
REMARK                         _______ _______ _______ _____ _____    ______ ____
ROOT
ATOM      1  C   UNL     1       2.777   7.119  18.555  0.00  0.00    +0.000 A 
ATOM      2  C   UNL     1       2.695   8.177  17.733  0.00  0.00    +0.000 A 
ATOM      3  C   UNL     1       1.944   9.369  18.136  0.00  0.00    +0.000 A 
ATOM      4  O   UNL     1       1.858  10.356  17.414  0.00  0.00    +0.000 OA
ATOM      5  C   UNL     1       1.311   9.335  19.457  0.00  0.00    +0.000 A 
ATOM      6  C   UNL     1       0.595  10.432  19.950  0.00  0.00    +0.000 A 
ATOM      7  C   UNL     1       0.012  10.376  21.213  0.00  0.00    +0.000 A 
ATOM      8  C   UNL     1       0.148   9.214  21.969  0.00  0.00    +0.000 A 
ATOM      9  C   UNL     1       0.855   8.115  21.485  0.00  0.00    +0.000 A 
ATOM     10  C   UNL     1       1.446   8.179  20.224  0.00  0.00    +0.000 A 
ATOM     11  O   UNL     1       2.150   7.077  19.802  0.00  0.00    +0.000 OA
ENDROOT
BRANCH   1  16
ATOM     12  O   UNL     1       7.490   4.471  18.044  0.00  0.00    +0.000 OA
ATOM     13  C   UNL     1       6.376   4.971  18.124  0.00  0.00    +0.000 C 
ATOM     14  C   UNL     1       5.770   5.686  16.978  0.00  0.00    +0.000 C 
ATOM     15  C   UNL     1       4.493   6.099  17.025  0.00  0.00    +0.000 C 
ATOM     16  C   UNL     1       3.576   5.867  18.203  0.00  0.00    +0.000 C 
ATOM     17  C   UNL     1       4.311   5.322  19.399  0.00  0.00    +0.000 C 
ATOM     18  C   UNL     1       5.586   4.903  19.374  0.00  0.00    +0.000 C 
BRANCH  16  19
ATOM     19  O   UNL     1       2.679   4.823  17.823  0.00  0.00    +0.000 OA
ATOM     20  H   UNL     1       3.072   3.979  18.095  0.00  0.00    +0.000 HD
ENDBRANCH  16  19
ENDBRANCH   1  16
BRANCH   6  21
ATOM     21  O   UNL     1       0.434  11.595  19.247  0.00  0.00    +0.000 OA
ATOM     22  H   UNL     1      -0.469  11.598  18.855  0.00  0.00    +0.000 HD
ENDBRANCH   6  21
BRANCH   8  23
ATOM     23  O   UNL     1      -0.403   9.114  23.212  0.00  0.00    +0.000 OA
ATOM     24  H   UNL     1       0.292   9.257  23.877  0.00  0.00    +0.000 HD
ENDBRANCH   8  23
TORSDOF 4
ENDMDL
MODEL 9
REMARK VINA RESULT:      -7.4      4.781      7.984
REMARK  Name = 
REMARK  4 active torsions:
REMARK  status: ('A' for Active; 'I' for Inactive)
REMARK    1  A    between atoms: C_5  and  O_6
REMARK    2  A    between atoms: C_5  and  C_7
REMARK    3  A    between atoms: C_12  and  O_13
REMARK    4  A    between atoms: C_15  and  O_16
REMARK                            x       y       z     vdW  Elec       q    Type
REMARK                         _______ _______ _______ _____ _____    ______ ____
ROOT
ATOM      1  C   UNL     1       5.324   4.264  17.469  0.00  0.00    +0.000 A 
ATOM      2  C   UNL     1       6.274   5.211  17.531  0.00  0.00    +0.000 A 
ATOM      3  C   UNL     1       7.045   5.563  16.336  0.00  0.00    +0.000 A 
ATOM      4  O   UNL     1       7.912   6.429  16.356  0.00  0.00    +0.000 OA
ATOM      5  C   UNL     1       6.719   4.842  15.103  0.00  0.00    +0.000 A 
ATOM      6  C   UNL     1       7.375   5.122  13.900  0.00  0.00    +0.000 A 
ATOM      7  C   UNL     1       7.038   4.427  12.741  0.00  0.00    +0.000 A 
ATOM      8  C   UNL     1       6.046   3.451  12.802  0.00  0.00    +0.000 A 
ATOM      9  C   UNL     1       5.390   3.162  13.998  0.00  0.00    +0.000 A 
ATOM     10  C   UNL     1       5.724   3.866  15.153  0.00  0.00    +0.000 A 
ATOM     11  O   UNL     1       5.033   3.558  16.301  0.00  0.00    +0.000 OA
ENDROOT
BRANCH   1  16
ATOM     12  O   UNL     1       0.659   4.468  20.240  0.00  0.00    +0.000 OA
ATOM     13  C   UNL     1       1.751   4.354  19.700  0.00  0.00    +0.000 C 
ATOM     14  C   UNL     1       2.848   5.310  19.974  0.00  0.00    +0.000 C 
ATOM     15  C   UNL     1       4.083   5.091  19.495  0.00  0.00    +0.000 C 
ATOM     16  C   UNL     1       4.466   3.883  18.673  0.00  0.00    +0.000 C 
ATOM     17  C   UNL     1       3.267   3.068  18.265  0.00  0.00    +0.000 C 
ATOM     18  C   UNL     1       2.025   3.269  18.732  0.00  0.00    +0.000 C 
BRANCH  16  19
ATOM     19  O   UNL     1       5.212   3.023  19.534  0.00  0.00    +0.000 OA
ATOM     20  H   UNL     1       4.857   2.125  19.438  0.00  0.00    +0.000 HD
ENDBRANCH  16  19
ENDBRANCH   1  16
BRANCH   6  21
ATOM     21  O   UNL     1       8.354   6.072  13.787  0.00  0.00    +0.000 OA
ATOM     22  H   UNL     1       8.624   6.347  14.693  0.00  0.00    +0.000 HD
ENDBRANCH   6  21
BRANCH   8  23
ATOM     23  O   UNL     1       5.680   2.748  11.693  0.00  0.00    +0.000 OA
ATOM     24  H   UNL     1       4.711   2.666  11.678  0.00  0.00    +0.000 HD
ENDBRANCH   8  23
TORSDOF 4
ENDMDL
