MODEL 1
REMARK VINA RESULT:      -8.0      0.000      0.000
REMARK  Name = 
REMARK  14 active torsions:
REMARK  status: ('A' for Active; 'I' for Inactive)
REMARK    1  A    between atoms: C_1  and  N_2
REMARK    2  A    between atoms: N_2  and  C_3
REMARK    3  A    between atoms: N_2  and  C_4
REMARK    4  A    between atoms: C_4  and  C_5
REMARK    5  A    between atoms: C_7  and  C_8
REMARK    6  A    between atoms: C_10  and  C_11
REMARK    7  A    between atoms: C_11  and  C_12
REMARK    8  A    between atoms: C_11  and  C_13
REMARK    9  A    between atoms: C_11  and  C_14
REMARK   10  A    between atoms: C_15  and  O_16
REMARK   11  A    between atoms: C_17  and  C_18
REMARK   12  A    between atoms: C_18  and  C_19
REMARK   13  A    between atoms: C_18  and  C_20
REMARK   14  A    between atoms: C_18  and  C_21
REMARK                            x       y       z     vdW  Elec       q    Type
REMARK                         _______ _______ _______ _____ _____    ______ ____
ROOT
ATOM      1  C   UNL     1       3.252   6.776  18.409  0.00  0.00    +0.000 A 
ATOM      2  C   UNL     1       2.638   5.587  18.811  0.00  0.00    +0.000 A 
ATOM      3  C   UNL     1       3.353   4.400  19.037  0.00  0.00    +0.000 A 
ATOM      4  C   UNL     1       4.760   4.482  18.862  0.00  0.00    +0.000 A 
ATOM      5  C   UNL     1       5.428   5.640  18.382  0.00  0.00    +0.000 A 
ATOM      6  C   UNL     1       4.629   6.781  18.168  0.00  0.00    +0.000 A 
ENDROOT
BRANCH   1   9
ATOM      7  C   UNL     1       1.135   9.538  18.804  0.00  0.00    +0.000 A 
ATOM      8  N   UNL     1       1.614   8.414  19.283  0.00  0.00    +0.000 NA
ATOM      9  C   UNL     1       2.445   7.985  18.269  0.00  0.00    +0.000 A 
ATOM     10  N   UNL     1       2.470   8.804  17.204  0.00  0.00    +0.000 NA
ATOM     11  O   UNL     1       1.597   9.834  17.558  0.00  0.00    +0.000 OA
BRANCH   7  12
ATOM     12  C   UNL     1       0.223  10.521  19.456  0.00  0.00    +0.000 C 
BRANCH  12  14
ATOM     13  C   UNL     1      -1.846  10.225  18.199  0.00  0.00    +0.000 C 
ATOM     14  N   UNL     1      -0.760  11.149  18.545  0.00  0.00    +0.000 NA
ATOM     15  C   UNL     1      -1.318  12.344  19.181  0.00  0.00    +0.000 C 
ENDBRANCH  12  14
ENDBRANCH   7  12
ENDBRANCH   1   9
BRANCH   3  16
ATOM     16  C   UNL     1       2.600   3.103  19.423  0.00  0.00    +0.000 C 
ATOM     17  C   UNL     1       1.053   3.239  19.319  0.00  0.00    +0.000 C 
ATOM     18  C   UNL     1       2.977   1.957  18.457  0.00  0.00    +0.000 C 
ATOM     19  C   UNL     1       2.892   2.673  20.876  0.00  0.00    +0.000 C 
ENDBRANCH   3  16
BRANCH   5  20
ATOM     20  C   UNL     1       6.945   5.683  18.059  0.00  0.00    +0.000 C 
ATOM     21  C   UNL     1       7.321   4.529  17.102  0.00  0.00    +0.000 C 
ATOM     22  C   UNL     1       7.385   6.986  17.337  0.00  0.00    +0.000 C 
ATOM     23  C   UNL     1       7.804   5.595  19.336  0.00  0.00    +0.000 C 
ENDBRANCH   5  20
BRANCH   4  24
ATOM     24  O   UNL     1       5.521   3.400  19.212  0.00  0.00    +0.000 OA
ATOM     25  H   UNL     1       5.192   2.658  18.675  0.00  0.00    +0.000 HD
ENDBRANCH   4  24
TORSDOF 6
ENDMDL
MODEL 2
REMARK VINA RESULT:      -7.9      0.914      1.553
REMARK  Name = 
REMARK  14 active torsions:
REMARK  status: ('A' for Active; 'I' for Inactive)
REMARK    1  A    between atoms: C_1  and  N_2
REMARK    2  A    between atoms: N_2  and  C_3
REMARK    3  A    between atoms: N_2  and  C_4
REMARK    4  A    between atoms: C_4  and  C_5
REMARK    5  A    between atoms: C_7  and  C_8
REMARK    6  A    between atoms: C_10  and  C_11
REMARK    7  A    between atoms: C_11  and  C_12
REMARK    8  A    between atoms: C_11  and  C_13
REMARK    9  A    between atoms: C_11  and  C_14
REMARK   10  A    between atoms: C_15  and  O_16
REMARK   11  A    between atoms: C_17  and  C_18
REMARK   12  A    between atoms: C_18  and  C_19
REMARK   13  A    between atoms: C_18  and  C_20
REMARK   14  A    between atoms: C_18  and  C_21
REMARK                            x       y       z     vdW  Elec       q    Type
REMARK                         _______ _______ _______ _____ _____    ______ ____
ROOT
ATOM      1  C   UNL     1       3.251   6.761  18.421  0.00  0.00    +0.000 A 
ATOM      2  C   UNL     1       2.648   5.565  18.819  0.00  0.00    +0.000 A 
ATOM      3  C   UNL     1       3.371   4.381  19.033  0.00  0.00    +0.000 A 
ATOM      4  C   UNL     1       4.777   4.473  18.851  0.00  0.00    +0.000 A 
ATOM      5  C   UNL     1       5.434   5.639  18.374  0.00  0.00    +0.000 A 
ATOM      6  C   UNL     1       4.627   6.776  18.173  0.00  0.00    +0.000 A 
ENDROOT
BRANCH   1   9
ATOM      7  C   UNL     1       1.153   9.530  18.858  0.00  0.00    +0.000 A 
ATOM      8  N   UNL     1       1.658   8.418  19.340  0.00  0.00    +0.000 NA
ATOM      9  C   UNL     1       2.436   7.966  18.294  0.00  0.00    +0.000 A 
ATOM     10  N   UNL     1       2.404   8.758  17.210  0.00  0.00    +0.000 NA
ATOM     11  O   UNL     1       1.549   9.796  17.583  0.00  0.00    +0.000 OA
BRANCH   7  12
ATOM     12  C   UNL     1       0.274  10.529  19.534  0.00  0.00    +0.000 C 
BRANCH  12  14
ATOM     13  C   UNL     1       0.798  12.494  20.880  0.00  0.00    +0.000 C 
ATOM     14  N   UNL     1       0.789  11.027  20.829  0.00  0.00    +0.000 NA
ATOM     15  C   UNL     1      -0.041  10.505  21.916  0.00  0.00    +0.000 C 
ENDBRANCH  12  14
ENDBRANCH   7  12
ENDBRANCH   1   9
BRANCH   3  16
ATOM     16  C   UNL     1       2.628   3.077  19.414  0.00  0.00    +0.000 C 
ATOM     17  C   UNL     1       2.896   2.626  20.880  0.00  0.00    +0.000 C 
ATOM     18  C   UNL     1       1.099   3.284  19.320  0.00  0.00    +0.000 C 
ATOM     19  C   UNL     1       3.046   1.890  18.521  0.00  0.00    +0.000 C 
ENDBRANCH   3  16
BRANCH   5  20
ATOM     20  C   UNL     1       6.949   5.694  18.043  0.00  0.00    +0.000 C 
ATOM     21  C   UNL     1       7.327   4.552  17.073  0.00  0.00    +0.000 C 
ATOM     22  C   UNL     1       7.378   7.007  17.332  0.00  0.00    +0.000 C 
ATOM     23  C   UNL     1       7.817   5.598  19.315  0.00  0.00    +0.000 C 
ENDBRANCH   5  20
BRANCH   4  24
ATOM     24  O   UNL     1       5.547   3.394  19.189  0.00  0.00    +0.000 OA
ATOM     25  H   UNL     1       6.453   3.734  19.286  0.00  0.00    +0.000 HD
ENDBRANCH   4  24
TORSDOF 6
ENDMDL
MODEL 3
REMARK VINA RESULT:      -7.9      0.948      1.579
REMARK  Name = 
REMARK  14 active torsions:
REMARK  status: ('A' for Active; 'I' for Inactive)
REMARK    1  A    between atoms: C_1  and  N_2
REMARK    2  A    between atoms: N_2  and  C_3
REMARK    3  A    between atoms: N_2  and  C_4
REMARK    4  A    between atoms: C_4  and  C_5
REMARK    5  A    between atoms: C_7  and  C_8
REMARK    6  A    between atoms: C_10  and  C_11
REMARK    7  A    between atoms: C_11  and  C_12
REMARK    8  A    between atoms: C_11  and  C_13
REMARK    9  A    between atoms: C_11  and  C_14
REMARK   10  A    between atoms: C_15  and  O_16
REMARK   11  A    between atoms: C_17  and  C_18
REMARK   12  A    between atoms: C_18  and  C_19
REMARK   13  A    between atoms: C_18  and  C_20
REMARK   14  A    between atoms: C_18  and  C_21
REMARK                            x       y       z     vdW  Elec       q    Type
REMARK                         _______ _______ _______ _____ _____    ______ ____
ROOT
ATOM      1  C   UNL     1       3.210   6.745  18.481  0.00  0.00    +0.000 A 
ATOM      2  C   UNL     1       2.618   5.541  18.873  0.00  0.00    +0.000 A 
ATOM      3  C   UNL     1       3.352   4.360  19.064  0.00  0.00    +0.000 A 
ATOM      4  C   UNL     1       4.754   4.463  18.866  0.00  0.00    +0.000 A 
ATOM      5  C   UNL     1       5.399   5.638  18.395  0.00  0.00    +0.000 A 
ATOM      6  C   UNL     1       4.583   6.772  18.217  0.00  0.00    +0.000 A 
ENDROOT
BRANCH   1   9
ATOM      7  C   UNL     1       1.093   9.491  18.974  0.00  0.00    +0.000 A 
ATOM      8  N   UNL     1       1.608   8.374  19.433  0.00  0.00    +0.000 NA
ATOM      9  C   UNL     1       2.386   7.946  18.378  0.00  0.00    +0.000 A 
ATOM     10  N   UNL     1       2.346   8.758  17.308  0.00  0.00    +0.000 NA
ATOM     11  O   UNL     1       1.484   9.783  17.703  0.00  0.00    +0.000 OA
BRANCH   7  12
ATOM     12  C   UNL     1       0.209  10.471  19.669  0.00  0.00    +0.000 C 
BRANCH  12  14
ATOM     13  C   UNL     1       0.725  12.448  21.001  0.00  0.00    +0.000 C 
ATOM     14  N   UNL     1       0.743  10.981  20.952  0.00  0.00    +0.000 NA
ATOM     15  C   UNL     1      -0.052  10.444  22.058  0.00  0.00    +0.000 C 
ENDBRANCH  12  14
ENDBRANCH   7  12
ENDBRANCH   1   9
BRANCH   3  16
ATOM     16  C   UNL     1       2.622   3.046  19.439  0.00  0.00    +0.000 C 
ATOM     17  C   UNL     1       1.076   3.141  19.287  0.00  0.00    +0.000 C 
ATOM     18  C   UNL     1       3.058   1.902  18.495  0.00  0.00    +0.000 C 
ATOM     19  C   UNL     1       2.881   2.637  20.904  0.00  0.00    +0.000 C 
ENDBRANCH   3  16
BRANCH   5  20
ATOM     20  C   UNL     1       6.909   5.706  18.046  0.00  0.00    +0.000 C 
ATOM     21  C   UNL     1       7.244   7.057  17.375  0.00  0.00    +0.000 C 
ATOM     22  C   UNL     1       7.834   5.617  19.291  0.00  0.00    +0.000 C 
ATOM     23  C   UNL     1       7.335   4.550  17.118  0.00  0.00    +0.000 C 
ENDBRANCH   5  20
BRANCH   4  24
ATOM     24  O   UNL     1       5.535   3.384  19.182  0.00  0.00    +0.000 OA
ATOM     25  H   UNL     1       5.355   2.716  18.498  0.00  0.00    +0.000 HD
ENDBRANCH   4  24
TORSDOF 6
ENDMDL
MODEL 4
REMARK VINA RESULT:      -7.9      0.441      1.334
REMARK  Name = 
REMARK  14 active torsions:
REMARK  status: ('A' for Active; 'I' for Inactive)
REMARK    1  A    between atoms: C_1  and  N_2
REMARK    2  A    between atoms: N_2  and  C_3
REMARK    3  A    between atoms: N_2  and  C_4
REMARK    4  A    between atoms: C_4  and  C_5
REMARK    5  A    between atoms: C_7  and  C_8
REMARK    6  A    between atoms: C_10  and  C_11
REMARK    7  A    between atoms: C_11  and  C_12
REMARK    8  A    between atoms: C_11  and  C_13
REMARK    9  A    between atoms: C_11  and  C_14
REMARK   10  A    between atoms: C_15  and  O_16
REMARK   11  A    between atoms: C_17  and  C_18
REMARK   12  A    between atoms: C_18  and  C_19
REMARK   13  A    between atoms: C_18  and  C_20
REMARK   14  A    between atoms: C_18  and  C_21
REMARK                            x       y       z     vdW  Elec       q    Type
REMARK                         _______ _______ _______ _____ _____    ______ ____
ROOT
ATOM      1  C   UNL     1       3.196   6.742  18.503  0.00  0.00    +0.000 A 
ATOM      2  C   UNL     1       2.609   5.538  18.900  0.00  0.00    +0.000 A 
ATOM      3  C   UNL     1       3.345   4.356  19.081  0.00  0.00    +0.000 A 
ATOM      4  C   UNL     1       4.745   4.459  18.866  0.00  0.00    +0.000 A 
ATOM      5  C   UNL     1       5.384   5.635  18.389  0.00  0.00    +0.000 A 
ATOM      6  C   UNL     1       4.566   6.769  18.223  0.00  0.00    +0.000 A 
ENDROOT
BRANCH   1   9
ATOM      7  C   UNL     1       1.110   9.505  19.032  0.00  0.00    +0.000 A 
ATOM      8  N   UNL     1       1.642   8.396  19.491  0.00  0.00    +0.000 NA
ATOM      9  C   UNL     1       2.371   7.944  18.412  0.00  0.00    +0.000 A 
ATOM     10  N   UNL     1       2.285   8.733  17.328  0.00  0.00    +0.000 NA
ATOM     11  O   UNL     1       1.444   9.769  17.738  0.00  0.00    +0.000 OA
BRANCH   7  12
ATOM     12  C   UNL     1       0.260  10.502  19.745  0.00  0.00    +0.000 C 
BRANCH  12  14
ATOM     13  C   UNL     1      -1.670  11.596  18.732  0.00  0.00    +0.000 C 
ATOM     14  N   UNL     1      -0.213  11.623  18.902  0.00  0.00    +0.000 NA
ATOM     15  C   UNL     1       0.185  12.893  19.514  0.00  0.00    +0.000 C 
ENDBRANCH  12  14
ENDBRANCH   7  12
ENDBRANCH   1   9
BRANCH   3  16
ATOM     16  C   UNL     1       2.619   3.042  19.463  0.00  0.00    +0.000 C 
ATOM     17  C   UNL     1       2.867   2.612  20.938  0.00  0.00    +0.000 C 
ATOM     18  C   UNL     1       1.088   3.219  19.338  0.00  0.00    +0.000 C 
ATOM     19  C   UNL     1       3.075   1.853  18.591  0.00  0.00    +0.000 C 
ENDBRANCH   3  16
BRANCH   5  20
ATOM     20  C   UNL     1       6.890   5.703  18.023  0.00  0.00    +0.000 C 
ATOM     21  C   UNL     1       7.217   7.056  17.353  0.00  0.00    +0.000 C 
ATOM     22  C   UNL     1       7.829   5.608  19.257  0.00  0.00    +0.000 C 
ATOM     23  C   UNL     1       7.304   4.550  17.086  0.00  0.00    +0.000 C 
ENDBRANCH   5  20
BRANCH   4  24
ATOM     24  O   UNL     1       5.529   3.379  19.172  0.00  0.00    +0.000 OA
ATOM     25  H   UNL     1       6.303   3.439  18.585  0.00  0.00    +0.000 HD
ENDBRANCH   4  24
TORSDOF 6
ENDMDL
MODEL 5
REMARK VINA RESULT:      -7.8      0.462      1.391
REMARK  Name = 
REMARK  14 active torsions:
REMARK  status: ('A' for Active; 'I' for Inactive)
REMARK    1  A    between atoms: C_1  and  N_2
REMARK    2  A    between atoms: N_2  and  C_3
REMARK    3  A    between atoms: N_2  and  C_4
REMARK    4  A    between atoms: C_4  and  C_5
REMARK    5  A    between atoms: C_7  and  C_8
REMARK    6  A    between atoms: C_10  and  C_11
REMARK    7  A    between atoms: C_11  and  C_12
REMARK    8  A    between atoms: C_11  and  C_13
REMARK    9  A    between atoms: C_11  and  C_14
REMARK   10  A    between atoms: C_15  and  O_16
REMARK   11  A    between atoms: C_17  and  C_18
REMARK   12  A    between atoms: C_18  and  C_19
REMARK   13  A    between atoms: C_18  and  C_20
REMARK   14  A    between atoms: C_18  and  C_21
REMARK                            x       y       z     vdW  Elec       q    Type
REMARK                         _______ _______ _______ _____ _____    ______ ____
ROOT
ATOM      1  C   UNL     1       3.218   6.729  18.479  0.00  0.00    +0.000 A 
ATOM      2  C   UNL     1       2.629   5.512  18.833  0.00  0.00    +0.000 A 
ATOM      3  C   UNL     1       3.366   4.330  19.001  0.00  0.00    +0.000 A 
ATOM      4  C   UNL     1       4.770   4.444  18.817  0.00  0.00    +0.000 A 
ATOM      5  C   UNL     1       5.413   5.634  18.383  0.00  0.00    +0.000 A 
ATOM      6  C   UNL     1       4.593   6.768  18.227  0.00  0.00    +0.000 A 
ENDROOT
BRANCH   1   9
ATOM      7  C   UNL     1       1.129   9.483  19.037  0.00  0.00    +0.000 A 
ATOM      8  N   UNL     1       1.668   8.375  19.488  0.00  0.00    +0.000 NA
ATOM      9  C   UNL     1       2.388   7.928  18.400  0.00  0.00    +0.000 A 
ATOM     10  N   UNL     1       2.290   8.721  17.319  0.00  0.00    +0.000 NA
ATOM     11  O   UNL     1       1.451   9.754  17.742  0.00  0.00    +0.000 OA
BRANCH   7  12
ATOM     12  C   UNL     1       0.284  10.476  19.762  0.00  0.00    +0.000 C 
BRANCH  12  14
ATOM     13  C   UNL     1      -1.681  11.739  19.059  0.00  0.00    +0.000 C 
ATOM     14  N   UNL     1      -0.228  11.581  18.921  0.00  0.00    +0.000 NA
ATOM     15  C   UNL     1       0.438  12.829  19.299  0.00  0.00    +0.000 C 
ENDBRANCH  12  14
ENDBRANCH   7  12
ENDBRANCH   1   9
BRANCH   3  16
ATOM     16  C   UNL     1       2.639   3.003  19.335  0.00  0.00    +0.000 C 
ATOM     17  C   UNL     1       3.203   1.782  18.552  0.00  0.00    +0.000 C 
ATOM     18  C   UNL     1       2.822   2.653  20.829  0.00  0.00    +0.000 C 
ATOM     19  C   UNL     1       1.135   3.066  18.999  0.00  0.00    +0.000 C 
ENDBRANCH   3  16
BRANCH   5  20
ATOM     20  C   UNL     1       6.926   5.718  18.049  0.00  0.00    +0.000 C 
ATOM     21  C   UNL     1       7.765   5.627  19.344  0.00  0.00    +0.000 C 
ATOM     22  C   UNL     1       7.423   4.557  17.145  0.00  0.00    +0.000 C 
ATOM     23  C   UNL     1       7.275   7.019  17.299  0.00  0.00    +0.000 C 
ENDBRANCH   5  20
BRANCH   4  24
ATOM     24  O   UNL     1       5.553   3.361  19.113  0.00  0.00    +0.000 OA
ATOM     25  H   UNL     1       6.448   3.713  19.259  0.00  0.00    +0.000 HD
ENDBRANCH   4  24
TORSDOF 6
ENDMDL
MODEL 6
REMARK VINA RESULT:      -7.7      0.869      3.836
REMARK  Name = 
REMARK  14 active torsions:
REMARK  status: ('A' for Active; 'I' for Inactive)
REMARK    1  A    between atoms: C_1  and  N_2
REMARK    2  A    between atoms: N_2  and  C_3
REMARK    3  A    between atoms: N_2  and  C_4
REMARK    4  A    between atoms: C_4  and  C_5
REMARK    5  A    between atoms: C_7  and  C_8
REMARK    6  A    between atoms: C_10  and  C_11
REMARK    7  A    between atoms: C_11  and  C_12
REMARK    8  A    between atoms: C_11  and  C_13
REMARK    9  A    between atoms: C_11  and  C_14
REMARK   10  A    between atoms: C_15  and  O_16
REMARK   11  A    between atoms: C_17  and  C_18
REMARK   12  A    between atoms: C_18  and  C_19
REMARK   13  A    between atoms: C_18  and  C_20
REMARK   14  A    between atoms: C_18  and  C_21
REMARK                            x       y       z     vdW  Elec       q    Type
REMARK                         _______ _______ _______ _____ _____    ______ ____
ROOT
ATOM      1  C   UNL     1       2.963   6.894  18.318  0.00  0.00    +0.000 A 
ATOM      2  C   UNL     1       4.242   6.849  17.758  0.00  0.00    +0.000 A 
ATOM      3  C   UNL     1       4.966   5.655  17.608  0.00  0.00    +0.000 A 
ATOM      4  C   UNL     1       4.305   4.473  18.035  0.00  0.00    +0.000 A 
ATOM      5  C   UNL     1       3.039   4.467  18.680  0.00  0.00    +0.000 A 
ATOM      6  C   UNL     1       2.392   5.712  18.800  0.00  0.00    +0.000 A 
ENDROOT
BRANCH   1   9
ATOM      7  C   UNL     1       1.132   9.756  19.166  0.00  0.00    +0.000 A 
ATOM      8  N   UNL     1       1.561   8.560  19.495  0.00  0.00    +0.000 NA
ATOM      9  C   UNL     1       2.248   8.167  18.366  0.00  0.00    +0.000 A 
ATOM     10  N   UNL     1       2.236   9.076  17.377  0.00  0.00    +0.000 NA
ATOM     11  O   UNL     1       1.490  10.131  17.907  0.00  0.00    +0.000 OA
BRANCH   7  12
ATOM     12  C   UNL     1       0.373  10.739  19.992  0.00  0.00    +0.000 C 
BRANCH  12  14
ATOM     13  C   UNL     1      -1.676  11.514  18.920  0.00  0.00    +0.000 C 
ATOM     14  N   UNL     1      -0.273  11.824  19.220  0.00  0.00    +0.000 NA
ATOM     15  C   UNL     1      -0.199  13.073  19.980  0.00  0.00    +0.000 C 
ENDBRANCH  12  14
ENDBRANCH   7  12
ENDBRANCH   1   9
BRANCH   3  16
ATOM     16  C   UNL     1       6.405   5.688  17.035  0.00  0.00    +0.000 C 
ATOM     17  C   UNL     1       7.365   4.681  17.734  0.00  0.00    +0.000 C 
ATOM     18  C   UNL     1       6.397   5.281  15.544  0.00  0.00    +0.000 C 
ATOM     19  C   UNL     1       7.059   7.077  17.189  0.00  0.00    +0.000 C 
ENDBRANCH   3  16
BRANCH   5  20
ATOM     20  C   UNL     1       2.384   3.191  19.270  0.00  0.00    +0.000 C 
ATOM     21  C   UNL     1       3.300   2.566  20.346  0.00  0.00    +0.000 C 
ATOM     22  C   UNL     1       1.030   3.465  19.980  0.00  0.00    +0.000 C 
ATOM     23  C   UNL     1       2.084   2.144  18.177  0.00  0.00    +0.000 C 
ENDBRANCH   5  20
BRANCH   4  24
ATOM     24  O   UNL     1       4.901   3.268  17.777  0.00  0.00    +0.000 OA
ATOM     25  H   UNL     1       4.182   2.612  17.773  0.00  0.00    +0.000 HD
ENDBRANCH   4  24
TORSDOF 6
ENDMDL
MODEL 7
REMARK VINA RESULT:      -7.7      1.190      3.993
REMARK  Name = 
REMARK  14 active torsions:
REMARK  status: ('A' for Active; 'I' for Inactive)
REMARK    1  A    between atoms: C_1  and  N_2
REMARK    2  A    between atoms: N_2  and  C_3
REMARK    3  A    between atoms: N_2  and  C_4
REMARK    4  A    between atoms: C_4  and  C_5
REMARK    5  A    between atoms: C_7  and  C_8
REMARK    6  A    between atoms: C_10  and  C_11
REMARK    7  A    between atoms: C_11  and  C_12
REMARK    8  A    between atoms: C_11  and  C_13
REMARK    9  A    between atoms: C_11  and  C_14
REMARK   10  A    between atoms: C_15  and  O_16
REMARK   11  A    between atoms: C_17  and  C_18
REMARK   12  A    between atoms: C_18  and  C_19
REMARK   13  A    between atoms: C_18  and  C_20
REMARK   14  A    between atoms: C_18  and  C_21
REMARK                            x       y       z     vdW  Elec       q    Type
REMARK                         _______ _______ _______ _____ _____    ______ ____
ROOT
ATOM      1  C   UNL     1       3.036   6.912  18.247  0.00  0.00    +0.000 A 
ATOM      2  C   UNL     1       4.328   6.857  17.718  0.00  0.00    +0.000 A 
ATOM      3  C   UNL     1       5.057   5.662  17.613  0.00  0.00    +0.000 A 
ATOM      4  C   UNL     1       4.389   4.488  18.052  0.00  0.00    +0.000 A 
ATOM      5  C   UNL     1       3.108   4.494  18.667  0.00  0.00    +0.000 A 
ATOM      6  C   UNL     1       2.456   5.740  18.743  0.00  0.00    +0.000 A 
ENDROOT
BRANCH   1   9
ATOM      7  C   UNL     1       1.074   9.728  18.941  0.00  0.00    +0.000 A 
ATOM      8  N   UNL     1       1.445   8.512  19.266  0.00  0.00    +0.000 NA
ATOM      9  C   UNL     1       2.318   8.184  18.250  0.00  0.00    +0.000 A 
ATOM     10  N   UNL     1       2.472   9.151  17.331  0.00  0.00    +0.000 NA
ATOM     11  O   UNL     1       1.642  10.177  17.788  0.00  0.00    +0.000 OA
BRANCH   7  12
ATOM     12  C   UNL     1       0.181  10.664  19.683  0.00  0.00    +0.000 C 
BRANCH  12  14
ATOM     13  C   UNL     1       0.904  12.614  20.958  0.00  0.00    +0.000 C 
ATOM     14  N   UNL     1       0.732  11.157  20.966  0.00  0.00    +0.000 NA
ATOM     15  C   UNL     1      -0.163  10.774  22.059  0.00  0.00    +0.000 C 
ENDBRANCH  12  14
ENDBRANCH   7  12
ENDBRANCH   1   9
BRANCH   3  16
ATOM     16  C   UNL     1       6.508   5.684  17.072  0.00  0.00    +0.000 C 
ATOM     17  C   UNL     1       7.452   4.690  17.810  0.00  0.00    +0.000 C 
ATOM     18  C   UNL     1       6.535   5.252  15.589  0.00  0.00    +0.000 C 
ATOM     19  C   UNL     1       7.160   7.075  17.218  0.00  0.00    +0.000 C 
ENDBRANCH   3  16
BRANCH   5  20
ATOM     20  C   UNL     1       2.442   3.230  19.271  0.00  0.00    +0.000 C 
ATOM     21  C   UNL     1       1.064   3.587  19.873  0.00  0.00    +0.000 C 
ATOM     22  C   UNL     1       2.164   2.118  18.222  0.00  0.00    +0.000 C 
ATOM     23  C   UNL     1       3.325   2.579  20.354  0.00  0.00    +0.000 C 
ENDBRANCH   5  20
BRANCH   4  24
ATOM     24  O   UNL     1       4.992   3.279  17.835  0.00  0.00    +0.000 OA
ATOM     25  H   UNL     1       4.823   3.061  16.902  0.00  0.00    +0.000 HD
ENDBRANCH   4  24
TORSDOF 6
ENDMDL
MODEL 8
REMARK VINA RESULT:      -7.6      0.748      3.800
REMARK  Name = 
REMARK  14 active torsions:
REMARK  status: ('A' for Active; 'I' for Inactive)
REMARK    1  A    between atoms: C_1  and  N_2
REMARK    2  A    between atoms: N_2  and  C_3
REMARK    3  A    between atoms: N_2  and  C_4
REMARK    4  A    between atoms: C_4  and  C_5
REMARK    5  A    between atoms: C_7  and  C_8
REMARK    6  A    between atoms: C_10  and  C_11
REMARK    7  A    between atoms: C_11  and  C_12
REMARK    8  A    between atoms: C_11  and  C_13
REMARK    9  A    between atoms: C_11  and  C_14
REMARK   10  A    between atoms: C_15  and  O_16
REMARK   11  A    between atoms: C_17  and  C_18
REMARK   12  A    between atoms: C_18  and  C_19
REMARK   13  A    between atoms: C_18  and  C_20
REMARK   14  A    between atoms: C_18  and  C_21
REMARK                            x       y       z     vdW  Elec       q    Type
REMARK                         _______ _______ _______ _____ _____    ______ ____
ROOT
ATOM      1  C   UNL     1       3.000   6.893  18.346  0.00  0.00    +0.000 A 
ATOM      2  C   UNL     1       4.276   6.805  17.785  0.00  0.00    +0.000 A 
ATOM      3  C   UNL     1       4.980   5.594  17.680  0.00  0.00    +0.000 A 
ATOM      4  C   UNL     1       4.301   4.440  18.154  0.00  0.00    +0.000 A 
ATOM      5  C   UNL     1       3.037   4.481  18.802  0.00  0.00    +0.000 A 
ATOM      6  C   UNL     1       2.411   5.740  18.875  0.00  0.00    +0.000 A 
ENDROOT
BRANCH   1   9
ATOM      7  C   UNL     1       1.127   9.765  19.053  0.00  0.00    +0.000 A 
ATOM      8  N   UNL     1       1.491   8.552  19.394  0.00  0.00    +0.000 NA
ATOM      9  C   UNL     1       2.307   8.178  18.347  0.00  0.00    +0.000 A 
ATOM     10  N   UNL     1       2.433   9.117  17.394  0.00  0.00    +0.000 NA
ATOM     11  O   UNL     1       1.646  10.171  17.862  0.00  0.00    +0.000 OA
BRANCH   7  12
ATOM     12  C   UNL     1       0.288  10.739  19.810  0.00  0.00    +0.000 C 
BRANCH  12  14
ATOM     13  C   UNL     1      -1.772  10.640  18.509  0.00  0.00    +0.000 C 
ATOM     14  N   UNL     1      -0.679  11.496  18.983  0.00  0.00    +0.000 NA
ATOM     15  C   UNL     1      -1.228  12.604  19.766  0.00  0.00    +0.000 C 
ENDBRANCH  12  14
ENDBRANCH   7  12
ENDBRANCH   1   9
BRANCH   3  16
ATOM     16  C   UNL     1       6.417   5.580  17.102  0.00  0.00    +0.000 C 
ATOM     17  C   UNL     1       7.081   6.988  17.078  0.00  0.00    +0.000 C 
ATOM     18  C   UNL     1       7.339   4.705  17.980  0.00  0.00    +0.000 C 
ATOM     19  C   UNL     1       6.451   5.070  15.646  0.00  0.00    +0.000 C 
ENDBRANCH   3  16
BRANCH   5  20
ATOM     20  C   UNL     1       2.363   3.240  19.443  0.00  0.00    +0.000 C 
ATOM     21  C   UNL     1       1.040   3.645  20.133  0.00  0.00    +0.000 C 
ATOM     22  C   UNL     1       1.978   2.145  18.410  0.00  0.00    +0.000 C 
ATOM     23  C   UNL     1       3.287   2.550  20.467  0.00  0.00    +0.000 C 
ENDBRANCH   5  20
BRANCH   4  24
ATOM     24  O   UNL     1       4.875   3.216  17.941  0.00  0.00    +0.000 OA
ATOM     25  H   UNL     1       5.547   3.354  17.250  0.00  0.00    +0.000 HD
ENDBRANCH   4  24
TORSDOF 6
ENDMDL
MODEL 9
REMARK VINA RESULT:      -7.6      1.172      4.050
REMARK  Name = 
REMARK  14 active torsions:
REMARK  status: ('A' for Active; 'I' for Inactive)
REMARK    1  A    between atoms: C_1  and  N_2
REMARK    2  A    between atoms: N_2  and  C_3
REMARK    3  A    between atoms: N_2  and  C_4
REMARK    4  A    between atoms: C_4  and  C_5
REMARK    5  A    between atoms: C_7  and  C_8
REMARK    6  A    between atoms: C_10  and  C_11
REMARK    7  A    between atoms: C_11  and  C_12
REMARK    8  A    between atoms: C_11  and  C_13
REMARK    9  A    between atoms: C_11  and  C_14
REMARK   10  A    between atoms: C_15  and  O_16
REMARK   11  A    between atoms: C_17  and  C_18
REMARK   12  A    between atoms: C_18  and  C_19
REMARK   13  A    between atoms: C_18  and  C_20
REMARK   14  A    between atoms: C_18  and  C_21
REMARK                            x       y       z     vdW  Elec       q    Type
REMARK                         _______ _______ _______ _____ _____    ______ ____
ROOT
ATOM      1  C   UNL     1       3.042   6.924  18.257  0.00  0.00    +0.000 A 
ATOM      2  C   UNL     1       4.362   6.916  17.800  0.00  0.00    +0.000 A 
ATOM      3  C   UNL     1       5.123   5.741  17.694  0.00  0.00    +0.000 A 
ATOM      4  C   UNL     1       4.459   4.538  18.052  0.00  0.00    +0.000 A 
ATOM      5  C   UNL     1       3.146   4.495  18.594  0.00  0.00    +0.000 A 
ATOM      6  C   UNL     1       2.462   5.723  18.677  0.00  0.00    +0.000 A 
ENDROOT
BRANCH   1   9
ATOM      7  C   UNL     1       1.033   9.702  18.969  0.00  0.00    +0.000 A 
ATOM      8  N   UNL     1       1.439   8.498  19.296  0.00  0.00    +0.000 NA
ATOM      9  C   UNL     1       2.297   8.180  18.265  0.00  0.00    +0.000 A 
ATOM     10  N   UNL     1       2.409   9.143  17.334  0.00  0.00    +0.000 NA
ATOM     11  O   UNL     1       1.567  10.154  17.801  0.00  0.00    +0.000 OA
BRANCH   7  12
ATOM     12  C   UNL     1       0.136  10.626  19.723  0.00  0.00    +0.000 C 
BRANCH  12  14
ATOM     13  C   UNL     1       0.617  12.561  21.127  0.00  0.00    +0.000 C 
ATOM     14  N   UNL     1       0.682  11.099  21.014  0.00  0.00    +0.000 NA
ATOM     15  C   UNL     1      -0.069  10.489  22.113  0.00  0.00    +0.000 C 
ENDBRANCH  12  14
ENDBRANCH   7  12
ENDBRANCH   1   9
BRANCH   3  16
ATOM     16  C   UNL     1       6.602   5.813  17.237  0.00  0.00    +0.000 C 
ATOM     17  C   UNL     1       7.180   7.258  17.263  0.00  0.00    +0.000 C 
ATOM     18  C   UNL     1       7.499   4.994  18.194  0.00  0.00    +0.000 C 
ATOM     19  C   UNL     1       6.788   5.307  15.792  0.00  0.00    +0.000 C 
ENDBRANCH   3  16
BRANCH   5  20
ATOM     20  C   UNL     1       2.475   3.196  19.113  0.00  0.00    +0.000 C 
ATOM     21  C   UNL     1       3.310   2.584  20.261  0.00  0.00    +0.000 C 
ATOM     22  C   UNL     1       1.058   3.428  19.704  0.00  0.00    +0.000 C 
ATOM     23  C   UNL     1       2.301   2.153  17.990  0.00  0.00    +0.000 C 
ENDBRANCH   5  20
BRANCH   4  24
ATOM     24  O   UNL     1       5.100   3.350  17.827  0.00  0.00    +0.000 OA
ATOM     25  H   UNL     1       5.248   3.306  16.866  0.00  0.00    +0.000 HD
ENDBRANCH   4  24
TORSDOF 6
ENDMDL
