MODEL 1
REMARK VINA RESULT:      -7.6      0.000      0.000
REMARK  Name = 
REMARK  8 active torsions:
REMARK  status: ('A' for Active; 'I' for Inactive)
REMARK    1  A    between atoms: C_1  and  O_2
REMARK    2  A    between atoms: O_2  and  C_3
REMARK    3  A    between atoms: C_8  and  C_9
REMARK    4  A    between atoms: C_9  and  C_10
REMARK    5  A    between atoms: C_10  and  N_11
REMARK    6  A    between atoms: N_14  and  C_15
REMARK    7  A    between atoms: C_15  and  C_16
REMARK    8  A    between atoms: C_19  and  C_20
REMARK                            x       y       z     vdW  Elec       q    Type
REMARK                         _______ _______ _______ _____ _____    ______ ____
ROOT
ATOM      1  N   UNL     1       7.515   7.533  16.976  0.00  0.00    +0.000 N 
ATOM      2  C   UNL     1       8.137   8.020  18.102  0.00  0.00    +0.000 C 
ATOM      3  O   UNL     1       8.492   7.310  19.029  0.00  0.00    +0.000 OA
ATOM      4  N   UNL     1       8.297   9.373  18.082  0.00  0.00    +0.000 N 
ATOM      5  H   UNL     1       6.864   8.177  16.550  0.00  0.00    +0.000 HD
ATOM      6  H   UNL     1       8.505   9.791  17.183  0.00  0.00    +0.000 HD
ENDROOT
BRANCH   1   7
ATOM      7  C   UNL     1       7.188   6.113  16.970  0.00  0.00    +0.000 C 
BRANCH   7   8
ATOM      8  C   UNL     1       5.769   5.762  16.534  0.00  0.00    +0.000 C 
ATOM      9  C   UNL     1       5.581   4.480  15.714  0.00  0.00    +0.000 C 
ATOM     10  C   UNL     1       5.373   5.813  15.062  0.00  0.00    +0.000 C 
BRANCH   8  16
ATOM     11  C   UNL     1       4.471   5.377  18.786  0.00  0.00    +0.000 A 
ATOM     12  C   UNL     1       3.435   5.748  19.663  0.00  0.00    +0.000 A 
ATOM     13  C   UNL     1       2.595   6.823  19.377  0.00  0.00    +0.000 A 
ATOM     14  C   UNL     1       2.764   7.519  18.194  0.00  0.00    +0.000 A 
ATOM     15  C   UNL     1       3.791   7.152  17.322  0.00  0.00    +0.000 A 
ATOM     16  C   UNL     1       4.695   6.095  17.589  0.00  0.00    +0.000 A 
BRANCH  11  18
ATOM     17  C   UNL     1       4.255   3.008  19.021  0.00  0.00    +0.000 C 
ATOM     18  O   UNL     1       5.049   4.180  19.128  0.00  0.00    +0.000 OA
ENDBRANCH  11  18
ENDBRANCH   8  16
ENDBRANCH   7   8
ENDBRANCH   1   7
BRANCH   4  19
ATOM     19  C   UNL     1       9.026   9.940  19.209  0.00  0.00    +0.000 C 
BRANCH  19  20
ATOM     20  C   UNL     1       9.966  10.992  18.760  0.00  0.00    +0.000 A 
ATOM     21  N   UNL     1      11.111  11.253  19.406  0.00  0.00    +0.000 NA
ATOM     22  O   UNL     1      11.696  12.250  18.628  0.00  0.00    +0.000 OA
ATOM     23  C   UNL     1      10.843  12.482  17.590  0.00  0.00    +0.000 A 
ATOM     24  C   UNL     1      11.251  13.502  16.610  0.00  0.00    +0.000 C 
ATOM     25  N   UNL     1       9.761  11.738  17.620  0.00  0.00    +0.000 NA
ENDBRANCH  19  20
ENDBRANCH   4  19
TORSDOF 6
ENDMDL
MODEL 2
REMARK VINA RESULT:      -7.4      4.903      6.312
REMARK  Name = 
REMARK  8 active torsions:
REMARK  status: ('A' for Active; 'I' for Inactive)
REMARK    1  A    between atoms: C_1  and  O_2
REMARK    2  A    between atoms: O_2  and  C_3
REMARK    3  A    between atoms: C_8  and  C_9
REMARK    4  A    between atoms: C_9  and  C_10
REMARK    5  A    between atoms: C_10  and  N_11
REMARK    6  A    between atoms: N_14  and  C_15
REMARK    7  A    between atoms: C_15  and  C_16
REMARK    8  A    between atoms: C_19  and  C_20
REMARK                            x       y       z     vdW  Elec       q    Type
REMARK                         _______ _______ _______ _____ _____    ______ ____
ROOT
ATOM      1  N   UNL     1       4.702   3.017  19.201  0.00  0.00    +0.000 N 
ATOM      2  C   UNL     1       5.527   4.012  18.733  0.00  0.00    +0.000 C 
ATOM      3  O   UNL     1       5.792   5.018  19.371  0.00  0.00    +0.000 OA
ATOM      4  N   UNL     1       6.001   3.767  17.478  0.00  0.00    +0.000 N 
ATOM      5  H   UNL     1       4.184   2.534  18.482  0.00  0.00    +0.000 HD
ATOM      6  H   UNL     1       6.214   2.802  17.255  0.00  0.00    +0.000 HD
ENDROOT
BRANCH   1   7
ATOM      7  C   UNL     1       4.049   3.256  20.482  0.00  0.00    +0.000 C 
BRANCH   7   8
ATOM      8  C   UNL     1       2.578   3.655  20.410  0.00  0.00    +0.000 C 
ATOM      9  C   UNL     1       1.663   3.179  21.545  0.00  0.00    +0.000 C 
ATOM     10  C   UNL     1       1.498   2.606  20.171  0.00  0.00    +0.000 C 
BRANCH   8  16
ATOM     11  C   UNL     1       2.443   5.458  18.502  0.00  0.00    +0.000 A 
ATOM     12  C   UNL     1       2.247   6.797  18.116  0.00  0.00    +0.000 A 
ATOM     13  C   UNL     1       1.964   7.787  19.054  0.00  0.00    +0.000 A 
ATOM     14  C   UNL     1       1.906   7.453  20.395  0.00  0.00    +0.000 A 
ATOM     15  C   UNL     1       2.100   6.125  20.782  0.00  0.00    +0.000 A 
ATOM     16  C   UNL     1       2.347   5.078  19.860  0.00  0.00    +0.000 A 
BRANCH  11  18
ATOM     17  C   UNL     1       2.060   3.659  16.975  0.00  0.00    +0.000 C 
ATOM     18  O   UNL     1       2.914   4.676  17.478  0.00  0.00    +0.000 OA
ENDBRANCH  11  18
ENDBRANCH   8  16
ENDBRANCH   7   8
ENDBRANCH   1   7
BRANCH   4  19
ATOM     19  C   UNL     1       6.949   4.744  16.959  0.00  0.00    +0.000 C 
BRANCH  19  20
ATOM     20  C   UNL     1       6.980   4.722  15.478  0.00  0.00    +0.000 A 
ATOM     21  N   UNL     1       7.734   5.570  14.765  0.00  0.00    +0.000 NA
ATOM     22  O   UNL     1       7.507   5.169  13.450  0.00  0.00    +0.000 OA
ATOM     23  C   UNL     1       6.642   4.117  13.509  0.00  0.00    +0.000 A 
ATOM     24  C   UNL     1       6.252   3.504  12.229  0.00  0.00    +0.000 C 
ATOM     25  N   UNL     1       6.282   3.799  14.731  0.00  0.00    +0.000 NA
ENDBRANCH  19  20
ENDBRANCH   4  19
TORSDOF 6
ENDMDL
MODEL 3
REMARK VINA RESULT:      -7.3      5.141      7.467
REMARK  Name = 
REMARK  8 active torsions:
REMARK  status: ('A' for Active; 'I' for Inactive)
REMARK    1  A    between atoms: C_1  and  O_2
REMARK    2  A    between atoms: O_2  and  C_3
REMARK    3  A    between atoms: C_8  and  C_9
REMARK    4  A    between atoms: C_9  and  C_10
REMARK    5  A    between atoms: C_10  and  N_11
REMARK    6  A    between atoms: N_14  and  C_15
REMARK    7  A    between atoms: C_15  and  C_16
REMARK    8  A    between atoms: C_19  and  C_20
REMARK                            x       y       z     vdW  Elec       q    Type
REMARK                         _______ _______ _______ _____ _____    ______ ____
ROOT
ATOM      1  N   UNL     1       2.229   5.189  19.538  0.00  0.00    +0.000 N 
ATOM      2  C   UNL     1       2.142   6.548  19.341  0.00  0.00    +0.000 C 
ATOM      3  O   UNL     1       2.250   7.073  18.245  0.00  0.00    +0.000 OA
ATOM      4  N   UNL     1       1.943   7.244  20.497  0.00  0.00    +0.000 N 
ATOM      5  H   UNL     1       2.607   4.923  20.435  0.00  0.00    +0.000 HD
ATOM      6  H   UNL     1       1.350   6.806  21.192  0.00  0.00    +0.000 HD
ENDROOT
BRANCH   1   7
ATOM      7  C   UNL     1       2.569   4.379  18.375  0.00  0.00    +0.000 C 
BRANCH   7   8
ATOM      8  C   UNL     1       3.827   3.527  18.508  0.00  0.00    +0.000 C 
ATOM      9  C   UNL     1       3.637   2.020  18.720  0.00  0.00    +0.000 C 
ATOM     10  C   UNL     1       4.179   2.861  19.834  0.00  0.00    +0.000 C 
BRANCH   8  16
ATOM     11  C   UNL     1       6.210   4.523  18.023  0.00  0.00    +0.000 A 
ATOM     12  C   UNL     1       7.181   4.934  17.092  0.00  0.00    +0.000 A 
ATOM     13  C   UNL     1       6.962   4.824  15.720  0.00  0.00    +0.000 A 
ATOM     14  C   UNL     1       5.753   4.330  15.265  0.00  0.00    +0.000 A 
ATOM     15  C   UNL     1       4.787   3.922  16.186  0.00  0.00    +0.000 A 
ATOM     16  C   UNL     1       4.981   3.975  17.589  0.00  0.00    +0.000 A 
BRANCH  11  18
ATOM     17  C   UNL     1       7.689   5.674  19.506  0.00  0.00    +0.000 C 
ATOM     18  O   UNL     1       6.516   4.901  19.307  0.00  0.00    +0.000 OA
ENDBRANCH  11  18
ENDBRANCH   8  16
ENDBRANCH   7   8
ENDBRANCH   1   7
BRANCH   4  19
ATOM     19  C   UNL     1       1.757   8.681  20.344  0.00  0.00    +0.000 C 
BRANCH  19  20
ATOM     20  C   UNL     1       1.025   9.249  21.500  0.00  0.00    +0.000 A 
ATOM     21  N   UNL     1       1.509   9.193  22.749  0.00  0.00    +0.000 NA
ATOM     22  O   UNL     1       0.549   9.880  23.492  0.00  0.00    +0.000 OA
ATOM     23  C   UNL     1      -0.410  10.281  22.610  0.00  0.00    +0.000 A 
ATOM     24  C   UNL     1      -1.541  11.046  23.160  0.00  0.00    +0.000 C 
ATOM     25  N   UNL     1      -0.170   9.919  21.370  0.00  0.00    +0.000 NA
ENDBRANCH  19  20
ENDBRANCH   4  19
TORSDOF 6
ENDMDL
MODEL 4
REMARK VINA RESULT:      -7.1      1.600      2.333
REMARK  Name = 
REMARK  8 active torsions:
REMARK  status: ('A' for Active; 'I' for Inactive)
REMARK    1  A    between atoms: C_1  and  O_2
REMARK    2  A    between atoms: O_2  and  C_3
REMARK    3  A    between atoms: C_8  and  C_9
REMARK    4  A    between atoms: C_9  and  C_10
REMARK    5  A    between atoms: C_10  and  N_11
REMARK    6  A    between atoms: N_14  and  C_15
REMARK    7  A    between atoms: C_15  and  C_16
REMARK    8  A    between atoms: C_19  and  C_20
REMARK                            x       y       z     vdW  Elec       q    Type
REMARK                         _______ _______ _______ _____ _____    ______ ____
ROOT
ATOM      1  N   UNL     1       7.071   6.965  16.948  0.00  0.00    +0.000 N 
ATOM      2  C   UNL     1       7.831   7.568  17.924  0.00  0.00    +0.000 C 
ATOM      3  O   UNL     1       8.313   6.962  18.866  0.00  0.00    +0.000 OA
ATOM      4  N   UNL     1       7.970   8.912  17.738  0.00  0.00    +0.000 N 
ATOM      5  H   UNL     1       6.363   7.560  16.546  0.00  0.00    +0.000 HD
ATOM      6  H   UNL     1       8.053   9.230  16.779  0.00  0.00    +0.000 HD
ENDROOT
BRANCH   1   7
ATOM      7  C   UNL     1       6.763   5.553  17.137  0.00  0.00    +0.000 C 
BRANCH   7   8
ATOM      8  C   UNL     1       5.665   4.990  16.242  0.00  0.00    +0.000 C 
ATOM      9  C   UNL     1       6.067   3.915  15.225  0.00  0.00    +0.000 C 
ATOM     10  C   UNL     1       5.660   5.273  14.744  0.00  0.00    +0.000 C 
BRANCH   8  16
ATOM     11  C   UNL     1       3.547   5.864  17.530  0.00  0.00    +0.000 A 
ATOM     12  C   UNL     1       2.336   5.589  18.191  0.00  0.00    +0.000 A 
ATOM     13  C   UNL     1       1.854   4.287  18.309  0.00  0.00    +0.000 A 
ATOM     14  C   UNL     1       2.597   3.241  17.794  0.00  0.00    +0.000 A 
ATOM     15  C   UNL     1       3.800   3.510  17.137  0.00  0.00    +0.000 A 
ATOM     16  C   UNL     1       4.308   4.820  16.955  0.00  0.00    +0.000 A 
BRANCH  11  18
ATOM     17  C   UNL     1       2.957   8.162  17.814  0.00  0.00    +0.000 C 
ATOM     18  O   UNL     1       3.958   7.163  17.697  0.00  0.00    +0.000 OA
ENDBRANCH  11  18
ENDBRANCH   8  16
ENDBRANCH   7   8
ENDBRANCH   1   7
BRANCH   4  19
ATOM     19  C   UNL     1       8.835   9.594  18.691  0.00  0.00    +0.000 C 
BRANCH  19  20
ATOM     20  C   UNL     1       9.056  11.004  18.295  0.00  0.00    +0.000 A 
ATOM     21  N   UNL     1       8.238  11.646  17.449  0.00  0.00    +0.000 NA
ATOM     22  O   UNL     1       8.774  12.932  17.404  0.00  0.00    +0.000 OA
ATOM     23  C   UNL     1       9.858  12.930  18.231  0.00  0.00    +0.000 A 
ATOM     24  C   UNL     1      10.598  14.197  18.360  0.00  0.00    +0.000 C 
ATOM     25  N   UNL     1      10.080  11.771  18.805  0.00  0.00    +0.000 NA
ENDBRANCH  19  20
ENDBRANCH   4  19
TORSDOF 6
ENDMDL
MODEL 5
REMARK VINA RESULT:      -7.1      5.033      7.084
REMARK  Name = 
REMARK  8 active torsions:
REMARK  status: ('A' for Active; 'I' for Inactive)
REMARK    1  A    between atoms: C_1  and  O_2
REMARK    2  A    between atoms: O_2  and  C_3
REMARK    3  A    between atoms: C_8  and  C_9
REMARK    4  A    between atoms: C_9  and  C_10
REMARK    5  A    between atoms: C_10  and  N_11
REMARK    6  A    between atoms: N_14  and  C_15
REMARK    7  A    between atoms: C_15  and  C_16
REMARK    8  A    between atoms: C_19  and  C_20
REMARK                            x       y       z     vdW  Elec       q    Type
REMARK                         _______ _______ _______ _____ _____    ______ ____
ROOT
ATOM      1  N   UNL     1       2.735   5.806  18.576  0.00  0.00    +0.000 N 
ATOM      2  C   UNL     1       2.092   6.113  19.753  0.00  0.00    +0.000 C 
ATOM      3  O   UNL     1       1.479   5.291  20.415  0.00  0.00    +0.000 OA
ATOM      4  N   UNL     1       2.193   7.430  20.090  0.00  0.00    +0.000 N 
ATOM      5  H   UNL     1       2.765   6.563  17.910  0.00  0.00    +0.000 HD
ATOM      6  H   UNL     1       3.072   7.886  19.873  0.00  0.00    +0.000 HD
ENDROOT
BRANCH   1   7
ATOM      7  C   UNL     1       2.569   4.448  18.074  0.00  0.00    +0.000 C 
BRANCH   7   8
ATOM      8  C   UNL     1       3.790   3.542  18.201  0.00  0.00    +0.000 C 
ATOM      9  C   UNL     1       3.539   2.034  18.313  0.00  0.00    +0.000 C 
ATOM     10  C   UNL     1       4.066   2.785  19.496  0.00  0.00    +0.000 C 
BRANCH   8  16
ATOM     11  C   UNL     1       6.208   4.516  17.866  0.00  0.00    +0.000 A 
ATOM     12  C   UNL     1       7.230   4.940  16.996  0.00  0.00    +0.000 A 
ATOM     13  C   UNL     1       7.077   4.876  15.613  0.00  0.00    +0.000 A 
ATOM     14  C   UNL     1       5.885   4.416  15.084  0.00  0.00    +0.000 A 
ATOM     15  C   UNL     1       4.869   3.995  15.943  0.00  0.00    +0.000 A 
ATOM     16  C   UNL     1       4.995   4.001  17.355  0.00  0.00    +0.000 A 
BRANCH  11  18
ATOM     17  C   UNL     1       7.570   5.683  19.444  0.00  0.00    +0.000 C 
ATOM     18  O   UNL     1       6.455   4.848  19.174  0.00  0.00    +0.000 OA
ENDBRANCH  11  18
ENDBRANCH   8  16
ENDBRANCH   7   8
ENDBRANCH   1   7
BRANCH   4  19
ATOM     19  C   UNL     1       1.605   7.802  21.370  0.00  0.00    +0.000 C 
BRANCH  19  20
ATOM     20  C   UNL     1       1.055   9.177  21.324  0.00  0.00    +0.000 A 
ATOM     21  N   UNL     1       1.003   9.962  22.409  0.00  0.00    +0.000 NA
ATOM     22  O   UNL     1       0.481  11.155  21.912  0.00  0.00    +0.000 OA
ATOM     23  C   UNL     1       0.278  10.964  20.577  0.00  0.00    +0.000 A 
ATOM     24  C   UNL     1      -0.268  12.101  19.818  0.00  0.00    +0.000 C 
ATOM     25  N   UNL     1       0.612   9.764  20.160  0.00  0.00    +0.000 NA
ENDBRANCH  19  20
ENDBRANCH   4  19
TORSDOF 6
ENDMDL
MODEL 6
REMARK VINA RESULT:      -7.1      1.458      1.507
REMARK  Name = 
REMARK  8 active torsions:
REMARK  status: ('A' for Active; 'I' for Inactive)
REMARK    1  A    between atoms: C_1  and  O_2
REMARK    2  A    between atoms: O_2  and  C_3
REMARK    3  A    between atoms: C_8  and  C_9
REMARK    4  A    between atoms: C_9  and  C_10
REMARK    5  A    between atoms: C_10  and  N_11
REMARK    6  A    between atoms: N_14  and  C_15
REMARK    7  A    between atoms: C_15  and  C_16
REMARK    8  A    between atoms: C_19  and  C_20
REMARK                            x       y       z     vdW  Elec       q    Type
REMARK                         _______ _______ _______ _____ _____    ______ ____
ROOT
ATOM      1  N   UNL     1       7.568   6.161  18.421  0.00  0.00    +0.000 N 
ATOM      2  C   UNL     1       7.874   7.313  17.734  0.00  0.00    +0.000 C 
ATOM      3  O   UNL     1       7.833   7.397  16.517  0.00  0.00    +0.000 OA
ATOM      4  N   UNL     1       8.245   8.340  18.551  0.00  0.00    +0.000 N 
ATOM      5  H   UNL     1       8.076   6.046  19.285  0.00  0.00    +0.000 HD
ATOM      6  H   UNL     1       7.763   8.408  19.440  0.00  0.00    +0.000 HD
ENDROOT
BRANCH   1   7
ATOM      7  C   UNL     1       7.286   4.976  17.621  0.00  0.00    +0.000 C 
BRANCH   7   8
ATOM      8  C   UNL     1       5.883   4.897  17.028  0.00  0.00    +0.000 C 
ATOM      9  C   UNL     1       5.592   3.744  16.059  0.00  0.00    +0.000 C 
ATOM     10  C   UNL     1       5.651   5.148  15.542  0.00  0.00    +0.000 C 
BRANCH   8  16
ATOM     11  C   UNL     1       4.406   4.572  19.177  0.00  0.00    +0.000 A 
ATOM     12  C   UNL     1       3.344   5.007  19.991  0.00  0.00    +0.000 A 
ATOM     13  C   UNL     1       2.612   6.150  19.677  0.00  0.00    +0.000 A 
ATOM     14  C   UNL     1       2.916   6.853  18.525  0.00  0.00    +0.000 A 
ATOM     15  C   UNL     1       3.969   6.424  17.715  0.00  0.00    +0.000 A 
ATOM     16  C   UNL     1       4.768   5.293  18.017  0.00  0.00    +0.000 A 
BRANCH  11  18
ATOM     17  C   UNL     1       3.957   2.239  19.436  0.00  0.00    +0.000 C 
ATOM     18  O   UNL     1       4.865   3.327  19.528  0.00  0.00    +0.000 OA
ENDBRANCH  11  18
ENDBRANCH   8  16
ENDBRANCH   7   8
ENDBRANCH   1   7
BRANCH   4  19
ATOM     19  C   UNL     1       8.499   9.613  17.889  0.00  0.00    +0.000 C 
BRANCH  19  20
ATOM     20  C   UNL     1       9.151  10.571  18.810  0.00  0.00    +0.000 A 
ATOM     21  N   UNL     1       9.354  10.293  20.106  0.00  0.00    +0.000 NA
ATOM     22  O   UNL     1      10.029  11.421  20.571  0.00  0.00    +0.000 OA
ATOM     23  C   UNL     1      10.166  12.258  19.504  0.00  0.00    +0.000 A 
ATOM     24  C   UNL     1      10.866  13.531  19.743  0.00  0.00    +0.000 C 
ATOM     25  N   UNL     1       9.644  11.788  18.395  0.00  0.00    +0.000 NA
ENDBRANCH  19  20
ENDBRANCH   4  19
TORSDOF 6
ENDMDL
MODEL 7
REMARK VINA RESULT:      -7.0      4.757      7.538
REMARK  Name = 
REMARK  8 active torsions:
REMARK  status: ('A' for Active; 'I' for Inactive)
REMARK    1  A    between atoms: C_1  and  O_2
REMARK    2  A    between atoms: O_2  and  C_3
REMARK    3  A    between atoms: C_8  and  C_9
REMARK    4  A    between atoms: C_9  and  C_10
REMARK    5  A    between atoms: C_10  and  N_11
REMARK    6  A    between atoms: N_14  and  C_15
REMARK    7  A    between atoms: C_15  and  C_16
REMARK    8  A    between atoms: C_19  and  C_20
REMARK                            x       y       z     vdW  Elec       q    Type
REMARK                         _______ _______ _______ _____ _____    ______ ____
ROOT
ATOM      1  N   UNL     1       2.677   6.026  19.735  0.00  0.00    +0.000 N 
ATOM      2  C   UNL     1       2.224   7.301  19.485  0.00  0.00    +0.000 C 
ATOM      3  O   UNL     1       2.007   7.725  18.362  0.00  0.00    +0.000 OA
ATOM      4  N   UNL     1       2.064   8.043  20.618  0.00  0.00    +0.000 N 
ATOM      5  H   UNL     1       3.259   5.946  20.556  0.00  0.00    +0.000 HD
ATOM      6  H   UNL     1       1.728   7.551  21.438  0.00  0.00    +0.000 HD
ENDROOT
BRANCH   1   7
ATOM      7  C   UNL     1       2.999   5.206  18.575  0.00  0.00    +0.000 C 
BRANCH   7   8
ATOM      8  C   UNL     1       4.317   4.442  18.649  0.00  0.00    +0.000 C 
ATOM      9  C   UNL     1       4.359   3.047  18.015  0.00  0.00    +0.000 C 
ATOM     10  C   UNL     1       4.440   3.185  19.504  0.00  0.00    +0.000 C 
BRANCH   8  16
ATOM     11  C   UNL     1       5.819   6.190  17.387  0.00  0.00    +0.000 A 
ATOM     12  C   UNL     1       7.011   6.936  17.322  0.00  0.00    +0.000 A 
ATOM     13  C   UNL     1       7.975   6.850  18.324  0.00  0.00    +0.000 A 
ATOM     14  C   UNL     1       7.770   5.992  19.389  0.00  0.00    +0.000 A 
ATOM     15  C   UNL     1       6.589   5.250  19.457  0.00  0.00    +0.000 A 
ATOM     16  C   UNL     1       5.563   5.336  18.483  0.00  0.00    +0.000 A 
BRANCH  11  18
ATOM     17  C   UNL     1       5.550   5.458  15.128  0.00  0.00    +0.000 C 
ATOM     18  O   UNL     1       5.098   6.243  16.221  0.00  0.00    +0.000 OA
ENDBRANCH  11  18
ENDBRANCH   8  16
ENDBRANCH   7   8
ENDBRANCH   1   7
BRANCH   4  19
ATOM     19  C   UNL     1       1.506   9.375  20.426  0.00  0.00    +0.000 C 
BRANCH  19  20
ATOM     20  C   UNL     1       0.686   9.782  21.591  0.00  0.00    +0.000 A 
ATOM     21  N   UNL     1       1.010   9.444  22.847  0.00  0.00    +0.000 NA
ATOM     22  O   UNL     1       0.023  10.067  23.608  0.00  0.00    +0.000 OA
ATOM     23  C   UNL     1      -0.791  10.719  22.730  0.00  0.00    +0.000 A 
ATOM     24  C   UNL     1      -1.919  11.472  23.302  0.00  0.00    +0.000 C 
ATOM     25  N   UNL     1      -0.432  10.578  21.475  0.00  0.00    +0.000 NA
ENDBRANCH  19  20
ENDBRANCH   4  19
TORSDOF 6
ENDMDL
MODEL 8
REMARK VINA RESULT:      -7.0      4.715      7.539
REMARK  Name = 
REMARK  8 active torsions:
REMARK  status: ('A' for Active; 'I' for Inactive)
REMARK    1  A    between atoms: C_1  and  O_2
REMARK    2  A    between atoms: O_2  and  C_3
REMARK    3  A    between atoms: C_8  and  C_9
REMARK    4  A    between atoms: C_9  and  C_10
REMARK    5  A    between atoms: C_10  and  N_11
REMARK    6  A    between atoms: N_14  and  C_15
REMARK    7  A    between atoms: C_15  and  C_16
REMARK    8  A    between atoms: C_19  and  C_20
REMARK                            x       y       z     vdW  Elec       q    Type
REMARK                         _______ _______ _______ _____ _____    ______ ____
ROOT
ATOM      1  N   UNL     1       2.727   6.849  18.843  0.00  0.00    +0.000 N 
ATOM      2  C   UNL     1       2.012   6.855  20.018  0.00  0.00    +0.000 C 
ATOM      3  O   UNL     1       1.477   5.861  20.480  0.00  0.00    +0.000 OA
ATOM      4  N   UNL     1       1.949   8.087  20.599  0.00  0.00    +0.000 N 
ATOM      5  H   UNL     1       2.692   7.719  18.331  0.00  0.00    +0.000 HD
ATOM      6  H   UNL     1       2.776   8.668  20.520  0.00  0.00    +0.000 HD
ENDROOT
BRANCH   1   7
ATOM      7  C   UNL     1       2.738   5.602  18.089  0.00  0.00    +0.000 C 
BRANCH   7   8
ATOM      8  C   UNL     1       3.939   4.694  18.329  0.00  0.00    +0.000 C 
ATOM      9  C   UNL     1       3.878   3.277  17.747  0.00  0.00    +0.000 C 
ATOM     10  C   UNL     1       3.821   3.470  19.231  0.00  0.00    +0.000 C 
BRANCH   8  16
ATOM     11  C   UNL     1       5.762   6.202  17.185  0.00  0.00    +0.000 A 
ATOM     12  C   UNL     1       7.036   6.800  17.226  0.00  0.00    +0.000 A 
ATOM     13  C   UNL     1       7.876   6.641  18.326  0.00  0.00    +0.000 A 
ATOM     14  C   UNL     1       7.462   5.855  19.386  0.00  0.00    +0.000 A 
ATOM     15  C   UNL     1       6.199   5.260  19.349  0.00  0.00    +0.000 A 
ATOM     16  C   UNL     1       5.294   5.428  18.271  0.00  0.00    +0.000 A 
BRANCH  11  18
ATOM     17  C   UNL     1       5.598   5.384  14.946  0.00  0.00    +0.000 C 
ATOM     18  O   UNL     1       5.174   6.295  15.949  0.00  0.00    +0.000 OA
ENDBRANCH  11  18
ENDBRANCH   8  16
ENDBRANCH   7   8
ENDBRANCH   1   7
BRANCH   4  19
ATOM     19  C   UNL     1       1.277   8.142  21.890  0.00  0.00    +0.000 C 
BRANCH  19  20
ATOM     20  C   UNL     1       0.627   9.457  22.097  0.00  0.00    +0.000 A 
ATOM     21  N   UNL     1       1.155  10.597  21.631  0.00  0.00    +0.000 NA
ATOM     22  O   UNL     1       0.211  11.556  21.993  0.00  0.00    +0.000 OA
ATOM     23  C   UNL     1      -0.790  10.891  22.637  0.00  0.00    +0.000 A 
ATOM     24  C   UNL     1      -1.925  11.698  23.114  0.00  0.00    +0.000 C 
ATOM     25  N   UNL     1      -0.587   9.597  22.731  0.00  0.00    +0.000 NA
ENDBRANCH  19  20
ENDBRANCH   4  19
TORSDOF 6
ENDMDL
MODEL 9
REMARK VINA RESULT:      -6.9      1.683      1.975
REMARK  Name = 
REMARK  8 active torsions:
REMARK  status: ('A' for Active; 'I' for Inactive)
REMARK    1  A    between atoms: C_1  and  O_2
REMARK    2  A    between atoms: O_2  and  C_3
REMARK    3  A    between atoms: C_8  and  C_9
REMARK    4  A    between atoms: C_9  and  C_10
REMARK    5  A    between atoms: C_10  and  N_11
REMARK    6  A    between atoms: N_14  and  C_15
REMARK    7  A    between atoms: C_15  and  C_16
REMARK    8  A    between atoms: C_19  and  C_20
REMARK                            x       y       z     vdW  Elec       q    Type
REMARK                         _______ _______ _______ _____ _____    ______ ____
ROOT
ATOM      1  N   UNL     1       7.196   6.146  18.544  0.00  0.00    +0.000 N 
ATOM      2  C   UNL     1       7.673   7.138  17.719  0.00  0.00    +0.000 C 
ATOM      3  O   UNL     1       7.703   7.041  16.503  0.00  0.00    +0.000 OA
ATOM      4  N   UNL     1       8.125   8.228  18.402  0.00  0.00    +0.000 N 
ATOM      5  H   UNL     1       7.643   6.106  19.448  0.00  0.00    +0.000 HD
ATOM      6  H   UNL     1       7.612   8.484  19.237  0.00  0.00    +0.000 HD
ENDROOT
BRANCH   1   7
ATOM      7  C   UNL     1       6.812   4.892  17.906  0.00  0.00    +0.000 C 
BRANCH   7   8
ATOM      8  C   UNL     1       5.435   4.879  17.250  0.00  0.00    +0.000 C 
ATOM      9  C   UNL     1       5.062   3.643  16.422  0.00  0.00    +0.000 C 
ATOM     10  C   UNL     1       5.296   4.952  15.733  0.00  0.00    +0.000 C 
BRANCH   8  16
ATOM     11  C   UNL     1       3.719   4.916  19.240  0.00  0.00    +0.000 A 
ATOM     12  C   UNL     1       2.689   5.576  19.935  0.00  0.00    +0.000 A 
ATOM     13  C   UNL     1       2.232   6.830  19.535  0.00  0.00    +0.000 A 
ATOM     14  C   UNL     1       2.780   7.424  18.412  0.00  0.00    +0.000 A 
ATOM     15  C   UNL     1       3.802   6.771  17.719  0.00  0.00    +0.000 A 
ATOM     16  C   UNL     1       4.328   5.516  18.114  0.00  0.00    +0.000 A 
BRANCH  11  18
ATOM     17  C   UNL     1       2.956   3.096  20.587  0.00  0.00    +0.000 C 
ATOM     18  O   UNL     1       3.886   3.617  19.650  0.00  0.00    +0.000 OA
ENDBRANCH  11  18
ENDBRANCH   8  16
ENDBRANCH   7   8
ENDBRANCH   1   7
BRANCH   4  19
ATOM     19  C   UNL     1       8.564   9.349  17.581  0.00  0.00    +0.000 C 
BRANCH  19  20
ATOM     20  C   UNL     1       8.932  10.512  18.421  0.00  0.00    +0.000 A 
ATOM     21  N   UNL     1       8.891  11.770  17.959  0.00  0.00    +0.000 NA
ATOM     22  O   UNL     1       9.252  12.529  19.072  0.00  0.00    +0.000 OA
ATOM     23  C   UNL     1       9.467  11.647  20.089  0.00  0.00    +0.000 A 
ATOM     24  C   UNL     1       9.856  12.216  21.390  0.00  0.00    +0.000 C 
ATOM     25  N   UNL     1       9.287  10.393  19.746  0.00  0.00    +0.000 NA
ENDBRANCH  19  20
ENDBRANCH   4  19
TORSDOF 6
ENDMDL
