MODEL 1
REMARK VINA RESULT:      -8.1      0.000      0.000
REMARK  Name = 
REMARK  6 active torsions:
REMARK  status: ('A' for Active; 'I' for Inactive)
REMARK    1  A    between atoms: O_1  and  C_2
REMARK    2  A    between atoms: C_4  and  S_5
REMARK    3  A    between atoms: C_9  and  C_10
REMARK    4  A    between atoms: C_18  and  C_19
REMARK    5  A    between atoms: C_19  and  C_20
REMARK    6  A    between atoms: C_20  and  C_21
REMARK                            x       y       z     vdW  Elec       q    Type
REMARK                         _______ _______ _______ _____ _____    ______ ____
ROOT
ATOM      1  C   UNL     1       5.737   4.552  17.611  0.00  0.00    +0.000 A 
ATOM      2  N   UNL     1       6.443   4.254  16.516  0.00  0.00    +0.000 NA
ATOM      3  C   UNL     1       6.305   5.117  15.503  0.00  0.00    +0.000 A 
ATOM      4  N   UNL     1       5.547   6.226  15.528  0.00  0.00    +0.000 NA
ATOM      5  C   UNL     1       4.857   6.467  16.661  0.00  0.00    +0.000 A 
ATOM      6  C   UNL     1       4.904   5.635  17.758  0.00  0.00    +0.000 A 
ATOM      7  C   UNL     1       4.041   5.868  18.962  0.00  0.00    +0.000 C 
ATOM      8  O   UNL     1       3.544   7.226  19.025  0.00  0.00    +0.000 OA
ATOM      9  C   UNL     1       2.975   7.696  17.792  0.00  0.00    +0.000 C 
ATOM     10  C   UNL     1       4.050   7.728  16.702  0.00  0.00    +0.000 C 
ENDROOT
BRANCH   7  11
ATOM     11  C   UNL     1       2.877   4.887  19.116  0.00  0.00    +0.000 A 
ATOM     12  C   UNL     1       2.415   4.181  17.991  0.00  0.00    +0.000 A 
ATOM     13  C   UNL     1       1.385   3.245  18.112  0.00  0.00    +0.000 A 
ATOM     14  C   UNL     1       0.818   3.001  19.356  0.00  0.00    +0.000 A 
ATOM     15  F   UNL     1      -0.150   2.084  19.476  0.00  0.00    +0.000 F 
ATOM     16  C   UNL     1       1.246   3.691  20.481  0.00  0.00    +0.000 A 
ATOM     17  C   UNL     1       2.267   4.634  20.361  0.00  0.00    +0.000 A 
ENDBRANCH   7  11
BRANCH   1  18
ATOM     18  O   UNL     1       5.892   3.652  18.616  0.00  0.00    +0.000 OA
ATOM     19  H   UNL     1       5.488   2.858  18.224  0.00  0.00    +0.000 HD
ENDBRANCH   1  18
BRANCH   3  20
ATOM     20  S   UNL     1       7.160   4.747  14.003  0.00  0.00    +0.000 S 
ATOM     21  H   UNL     1       6.139   4.052  13.488  0.00  0.00    +0.000 HD
ENDBRANCH   3  20
BRANCH   9  22
ATOM     22  C   UNL     1       2.381   9.097  18.034  0.00  0.00    +0.000 C 
BRANCH  22  23
ATOM     23  C   UNL     1       0.892   9.034  18.390  0.00  0.00    +0.000 C 
BRANCH  23  24
ATOM     24  C   UNL     1       0.592   9.432  19.811  0.00  0.00    +0.000 A 
ATOM     25  C   UNL     1      -0.200  10.557  20.084  0.00  0.00    +0.000 A 
ATOM     26  C   UNL     1      -0.512  10.899  21.401  0.00  0.00    +0.000 A 
ATOM     27  C   UNL     1      -0.032  10.126  22.455  0.00  0.00    +0.000 A 
ATOM     28  C   UNL     1       0.761   9.010  22.194  0.00  0.00    +0.000 A 
ATOM     29  C   UNL     1       1.075   8.666  20.879  0.00  0.00    +0.000 A 
ENDBRANCH  23  24
ENDBRANCH  22  23
ENDBRANCH   9  22
TORSDOF 6
ENDMDL
MODEL 2
REMARK VINA RESULT:      -8.1      0.841      1.749
REMARK  Name = 
REMARK  6 active torsions:
REMARK  status: ('A' for Active; 'I' for Inactive)
REMARK    1  A    between atoms: O_1  and  C_2
REMARK    2  A    between atoms: C_4  and  S_5
REMARK    3  A    between atoms: C_9  and  C_10
REMARK    4  A    between atoms: C_18  and  C_19
REMARK    5  A    between atoms: C_19  and  C_20
REMARK    6  A    between atoms: C_20  and  C_21
REMARK                            x       y       z     vdW  Elec       q    Type
REMARK                         _______ _______ _______ _____ _____    ______ ____
ROOT
ATOM      1  C   UNL     1       5.792   4.639  17.723  0.00  0.00    +0.000 A 
ATOM      2  N   UNL     1       6.543   4.369  16.650  0.00  0.00    +0.000 NA
ATOM      3  C   UNL     1       6.366   5.197  15.615  0.00  0.00    +0.000 A 
ATOM      4  N   UNL     1       5.530   6.248  15.597  0.00  0.00    +0.000 NA
ATOM      5  C   UNL     1       4.799   6.464  16.709  0.00  0.00    +0.000 A 
ATOM      6  C   UNL     1       4.881   5.662  17.827  0.00  0.00    +0.000 A 
ATOM      7  C   UNL     1       3.975   5.859  19.006  0.00  0.00    +0.000 C 
ATOM      8  O   UNL     1       3.381   7.178  19.025  0.00  0.00    +0.000 OA
ATOM      9  C   UNL     1       2.808   7.578  17.771  0.00  0.00    +0.000 C 
ATOM     10  C   UNL     1       3.902   7.664  16.703  0.00  0.00    +0.000 C 
ENDROOT
BRANCH   7  11
ATOM     11  C   UNL     1       2.883   4.800  19.158  0.00  0.00    +0.000 A 
ATOM     12  C   UNL     1       2.184   4.696  20.374  0.00  0.00    +0.000 A 
ATOM     13  C   UNL     1       1.149   3.770  20.525  0.00  0.00    +0.000 A 
ATOM     14  C   UNL     1       0.800   2.948  19.461  0.00  0.00    +0.000 A 
ATOM     15  F   UNL     1      -0.209   2.078  19.597  0.00  0.00    +0.000 F 
ATOM     16  C   UNL     1       1.480   3.019  18.253  0.00  0.00    +0.000 A 
ATOM     17  C   UNL     1       2.521   3.936  18.104  0.00  0.00    +0.000 A 
ENDBRANCH   7  11
BRANCH   1  18
ATOM     18  O   UNL     1       5.989   3.776  18.752  0.00  0.00    +0.000 OA
ATOM     19  H   UNL     1       5.825   2.921  18.317  0.00  0.00    +0.000 HD
ENDBRANCH   1  18
BRANCH   3  20
ATOM     20  S   UNL     1       7.279   4.857  14.142  0.00  0.00    +0.000 S 
ATOM     21  H   UNL     1       6.774   5.903  13.480  0.00  0.00    +0.000 HD
ENDBRANCH   3  20
BRANCH   9  22
ATOM     22  C   UNL     1       2.109   8.937  17.966  0.00  0.00    +0.000 C 
BRANCH  22  23
ATOM     23  C   UNL     1       1.377   9.017  19.310  0.00  0.00    +0.000 C 
BRANCH  23  24
ATOM     24  C   UNL     1       0.199   9.954  19.304  0.00  0.00    +0.000 A 
ATOM     25  C   UNL     1      -0.114  10.713  20.442  0.00  0.00    +0.000 A 
ATOM     26  C   UNL     1      -1.181  11.612  20.420  0.00  0.00    +0.000 A 
ATOM     27  C   UNL     1      -1.947  11.757  19.265  0.00  0.00    +0.000 A 
ATOM     28  C   UNL     1      -1.649  11.002  18.133  0.00  0.00    +0.000 A 
ATOM     29  C   UNL     1      -0.583  10.103  18.152  0.00  0.00    +0.000 A 
ENDBRANCH  23  24
ENDBRANCH  22  23
ENDBRANCH   9  22
TORSDOF 6
ENDMDL
MODEL 3
REMARK VINA RESULT:      -8.0      0.873      1.469
REMARK  Name = 
REMARK  6 active torsions:
REMARK  status: ('A' for Active; 'I' for Inactive)
REMARK    1  A    between atoms: O_1  and  C_2
REMARK    2  A    between atoms: C_4  and  S_5
REMARK    3  A    between atoms: C_9  and  C_10
REMARK    4  A    between atoms: C_18  and  C_19
REMARK    5  A    between atoms: C_19  and  C_20
REMARK    6  A    between atoms: C_20  and  C_21
REMARK                            x       y       z     vdW  Elec       q    Type
REMARK                         _______ _______ _______ _____ _____    ______ ____
ROOT
ATOM      1  C   UNL     1       5.721   4.618  17.715  0.00  0.00    +0.000 A 
ATOM      2  N   UNL     1       6.467   4.346  16.640  0.00  0.00    +0.000 NA
ATOM      3  C   UNL     1       6.318   5.198  15.619  0.00  0.00    +0.000 A 
ATOM      4  N   UNL     1       5.514   6.274  15.619  0.00  0.00    +0.000 NA
ATOM      5  C   UNL     1       4.786   6.490  16.733  0.00  0.00    +0.000 A 
ATOM      6  C   UNL     1       4.840   5.666  17.835  0.00  0.00    +0.000 A 
ATOM      7  C   UNL     1       3.937   5.868  19.015  0.00  0.00    +0.000 C 
ATOM      8  O   UNL     1       3.382   7.204  19.057  0.00  0.00    +0.000 OA
ATOM      9  C   UNL     1       2.825   7.644  17.809  0.00  0.00    +0.000 C 
ATOM     10  C   UNL     1       3.926   7.717  16.746  0.00  0.00    +0.000 C 
ENDROOT
BRANCH   7  11
ATOM     11  C   UNL     1       2.812   4.839  19.144  0.00  0.00    +0.000 A 
ATOM     12  C   UNL     1       2.409   4.109  18.012  0.00  0.00    +0.000 A 
ATOM     13  C   UNL     1       1.417   3.130  18.111  0.00  0.00    +0.000 A 
ATOM     14  C   UNL     1       0.829   2.868  19.342  0.00  0.00    +0.000 A 
ATOM     15  F   UNL     1      -0.103   1.912  19.443  0.00  0.00    +0.000 F 
ATOM     16  C   UNL     1       1.198   3.581  20.474  0.00  0.00    +0.000 A 
ATOM     17  C   UNL     1       2.181   4.566  20.375  0.00  0.00    +0.000 A 
ENDBRANCH   7  11
BRANCH   1  18
ATOM     18  O   UNL     1       5.888   3.730  18.728  0.00  0.00    +0.000 OA
ATOM     19  H   UNL     1       5.558   2.911  18.319  0.00  0.00    +0.000 HD
ENDBRANCH   1  18
BRANCH   3  20
ATOM     20  S   UNL     1       7.226   4.858  14.143  0.00  0.00    +0.000 S 
ATOM     21  H   UNL     1       6.991   3.542  14.194  0.00  0.00    +0.000 HD
ENDBRANCH   3  20
BRANCH   9  22
ATOM     22  C   UNL     1       2.167   9.019  18.028  0.00  0.00    +0.000 C 
BRANCH  22  23
ATOM     23  C   UNL     1       1.323   9.053  19.306  0.00  0.00    +0.000 C 
BRANCH  23  24
ATOM     24  C   UNL     1       0.160  10.008  19.239  0.00  0.00    +0.000 A 
ATOM     25  C   UNL     1      -0.655  10.060  18.099  0.00  0.00    +0.000 A 
ATOM     26  C   UNL     1      -1.757  10.915  18.057  0.00  0.00    +0.000 A 
ATOM     27  C   UNL     1      -2.051  11.729  19.149  0.00  0.00    +0.000 A 
ATOM     28  C   UNL     1      -1.243  11.689  20.284  0.00  0.00    +0.000 A 
ATOM     29  C   UNL     1      -0.141  10.835  20.328  0.00  0.00    +0.000 A 
ENDBRANCH  23  24
ENDBRANCH  22  23
ENDBRANCH   9  22
TORSDOF 6
ENDMDL
MODEL 4
REMARK VINA RESULT:      -8.0      0.135      1.318
REMARK  Name = 
REMARK  6 active torsions:
REMARK  status: ('A' for Active; 'I' for Inactive)
REMARK    1  A    between atoms: O_1  and  C_2
REMARK    2  A    between atoms: C_4  and  S_5
REMARK    3  A    between atoms: C_9  and  C_10
REMARK    4  A    between atoms: C_18  and  C_19
REMARK    5  A    between atoms: C_19  and  C_20
REMARK    6  A    between atoms: C_20  and  C_21
REMARK                            x       y       z     vdW  Elec       q    Type
REMARK                         _______ _______ _______ _____ _____    ______ ____
ROOT
ATOM      1  C   UNL     1       5.825   4.560  17.600  0.00  0.00    +0.000 A 
ATOM      2  N   UNL     1       6.515   4.259  16.494  0.00  0.00    +0.000 NA
ATOM      3  C   UNL     1       6.341   5.105  15.473  0.00  0.00    +0.000 A 
ATOM      4  N   UNL     1       5.564   6.201  15.498  0.00  0.00    +0.000 NA
ATOM      5  C   UNL     1       4.893   6.446  16.641  0.00  0.00    +0.000 A 
ATOM      6  C   UNL     1       4.976   5.631  17.748  0.00  0.00    +0.000 A 
ATOM      7  C   UNL     1       4.133   5.866  18.966  0.00  0.00    +0.000 C 
ATOM      8  O   UNL     1       3.614   7.216  19.020  0.00  0.00    +0.000 OA
ATOM      9  C   UNL     1       3.012   7.659  17.793  0.00  0.00    +0.000 C 
ATOM     10  C   UNL     1       4.065   7.694  16.681  0.00  0.00    +0.000 C 
ENDROOT
BRANCH   7  11
ATOM     11  C   UNL     1       2.990   4.867  19.156  0.00  0.00    +0.000 A 
ATOM     12  C   UNL     1       2.321   4.808  20.392  0.00  0.00    +0.000 A 
ATOM     13  C   UNL     1       1.243   3.939  20.577  0.00  0.00    +0.000 A 
ATOM     14  C   UNL     1       0.822   3.130  19.529  0.00  0.00    +0.000 A 
ATOM     15  F   UNL     1      -0.228   2.317  19.699  0.00  0.00    +0.000 F 
ATOM     16  C   UNL     1       1.471   3.159  18.303  0.00  0.00    +0.000 A 
ATOM     17  C   UNL     1       2.554   4.018  18.118  0.00  0.00    +0.000 A 
ENDBRANCH   7  11
BRANCH   1  18
ATOM     18  O   UNL     1       6.016   3.677  18.613  0.00  0.00    +0.000 OA
ATOM     19  H   UNL     1       5.765   4.216  19.384  0.00  0.00    +0.000 HD
ENDBRANCH   1  18
BRANCH   3  20
ATOM     20  S   UNL     1       7.172   4.730  13.961  0.00  0.00    +0.000 S 
ATOM     21  H   UNL     1       6.044   4.420  13.313  0.00  0.00    +0.000 HD
ENDBRANCH   3  20
BRANCH   9  22
ATOM     22  C   UNL     1       2.399   9.052  18.027  0.00  0.00    +0.000 C 
BRANCH  22  23
ATOM     23  C   UNL     1       0.903   8.973  18.348  0.00  0.00    +0.000 C 
BRANCH  23  24
ATOM     24  C   UNL     1       0.565   9.354  19.765  0.00  0.00    +0.000 A 
ATOM     25  C   UNL     1       1.058   8.603  20.842  0.00  0.00    +0.000 A 
ATOM     26  C   UNL     1       0.778   8.983  22.155  0.00  0.00    +0.000 A 
ATOM     27  C   UNL     1       0.000  10.111  22.404  0.00  0.00    +0.000 A 
ATOM     28  C   UNL     1      -0.501  10.860  21.341  0.00  0.00    +0.000 A 
ATOM     29  C   UNL     1      -0.223  10.482  20.027  0.00  0.00    +0.000 A 
ENDBRANCH  23  24
ENDBRANCH  22  23
ENDBRANCH   9  22
TORSDOF 6
ENDMDL
MODEL 5
REMARK VINA RESULT:      -7.9      4.274      5.938
REMARK  Name = 
REMARK  6 active torsions:
REMARK  status: ('A' for Active; 'I' for Inactive)
REMARK    1  A    between atoms: O_1  and  C_2
REMARK    2  A    between atoms: C_4  and  S_5
REMARK    3  A    between atoms: C_9  and  C_10
REMARK    4  A    between atoms: C_18  and  C_19
REMARK    5  A    between atoms: C_19  and  C_20
REMARK    6  A    between atoms: C_20  and  C_21
REMARK                            x       y       z     vdW  Elec       q    Type
REMARK                         _______ _______ _______ _____ _____    ______ ____
ROOT
ATOM      1  C   UNL     1       5.335   3.868  16.302  0.00  0.00    +0.000 A 
ATOM      2  N   UNL     1       5.438   3.454  15.035  0.00  0.00    +0.000 NA
ATOM      3  C   UNL     1       6.327   4.124  14.294  0.00  0.00    +0.000 A 
ATOM      4  N   UNL     1       7.101   5.130  14.733  0.00  0.00    +0.000 NA
ATOM      5  C   UNL     1       6.946   5.501  16.020  0.00  0.00    +0.000 A 
ATOM      6  C   UNL     1       6.044   4.899  16.869  0.00  0.00    +0.000 A 
ATOM      7  C   UNL     1       5.812   5.406  18.262  0.00  0.00    +0.000 C 
ATOM      8  O   UNL     1       6.902   6.235  18.730  0.00  0.00    +0.000 OA
ATOM      9  C   UNL     1       7.308   7.247  17.796  0.00  0.00    +0.000 C 
ATOM     10  C   UNL     1       7.843   6.592  16.519  0.00  0.00    +0.000 C 
ENDROOT
BRANCH   7  11
ATOM     11  C   UNL     1       4.485   6.137  18.465  0.00  0.00    +0.000 A 
ATOM     12  C   UNL     1       3.680   5.816  19.572  0.00  0.00    +0.000 A 
ATOM     13  C   UNL     1       2.485   6.501  19.808  0.00  0.00    +0.000 A 
ATOM     14  C   UNL     1       2.092   7.517  18.946  0.00  0.00    +0.000 A 
ATOM     15  F   UNL     1       0.961   8.191  19.186  0.00  0.00    +0.000 F 
ATOM     16  C   UNL     1       2.860   7.847  17.838  0.00  0.00    +0.000 A 
ATOM     17  C   UNL     1       4.048   7.157  17.595  0.00  0.00    +0.000 A 
ENDBRANCH   7  11
BRANCH   1  18
ATOM     18  O   UNL     1       4.418   3.174  17.024  0.00  0.00    +0.000 OA
ATOM     19  H   UNL     1       4.500   3.600  17.895  0.00  0.00    +0.000 HD
ENDBRANCH   1  18
BRANCH   3  20
ATOM     20  S   UNL     1       6.467   3.671  12.592  0.00  0.00    +0.000 S 
ATOM     21  H   UNL     1       5.211   3.216  12.518  0.00  0.00    +0.000 HD
ENDBRANCH   3  20
BRANCH   9  22
ATOM     22  C   UNL     1       8.381   8.126  18.466  0.00  0.00    +0.000 C 
BRANCH  22  23
ATOM     23  C   UNL     1       8.326   9.575  17.972  0.00  0.00    +0.000 C 
BRANCH  23  24
ATOM     24  C   UNL     1       9.334  10.479  18.631  0.00  0.00    +0.000 A 
ATOM     25  C   UNL     1      10.248  11.210  17.859  0.00  0.00    +0.000 A 
ATOM     26  C   UNL     1      11.154  12.079  18.470  0.00  0.00    +0.000 A 
ATOM     27  C   UNL     1      11.156  12.222  19.855  0.00  0.00    +0.000 A 
ATOM     28  C   UNL     1      10.256  11.495  20.632  0.00  0.00    +0.000 A 
ATOM     29  C   UNL     1       9.351  10.625  20.024  0.00  0.00    +0.000 A 
ENDBRANCH  23  24
ENDBRANCH  22  23
ENDBRANCH   9  22
TORSDOF 6
ENDMDL
MODEL 6
REMARK VINA RESULT:      -7.6      4.293      5.946
REMARK  Name = 
REMARK  6 active torsions:
REMARK  status: ('A' for Active; 'I' for Inactive)
REMARK    1  A    between atoms: O_1  and  C_2
REMARK    2  A    between atoms: C_4  and  S_5
REMARK    3  A    between atoms: C_9  and  C_10
REMARK    4  A    between atoms: C_18  and  C_19
REMARK    5  A    between atoms: C_19  and  C_20
REMARK    6  A    between atoms: C_20  and  C_21
REMARK                            x       y       z     vdW  Elec       q    Type
REMARK                         _______ _______ _______ _____ _____    ______ ____
ROOT
ATOM      1  C   UNL     1       5.359   3.878  16.339  0.00  0.00    +0.000 A 
ATOM      2  N   UNL     1       5.437   3.457  15.072  0.00  0.00    +0.000 NA
ATOM      3  C   UNL     1       6.315   4.120  14.311  0.00  0.00    +0.000 A 
ATOM      4  N   UNL     1       7.101   5.126  14.730  0.00  0.00    +0.000 NA
ATOM      5  C   UNL     1       6.970   5.504  16.018  0.00  0.00    +0.000 A 
ATOM      6  C   UNL     1       6.082   4.909  16.887  0.00  0.00    +0.000 A 
ATOM      7  C   UNL     1       5.879   5.424  18.281  0.00  0.00    +0.000 C 
ATOM      8  O   UNL     1       6.981   6.251  18.725  0.00  0.00    +0.000 OA
ATOM      9  C   UNL     1       7.373   7.258  17.778  0.00  0.00    +0.000 C 
ATOM     10  C   UNL     1       7.881   6.593  16.495  0.00  0.00    +0.000 C 
ENDROOT
BRANCH   7  11
ATOM     11  C   UNL     1       4.558   6.162  18.505  0.00  0.00    +0.000 A 
ATOM     12  C   UNL     1       4.181   7.190  17.622  0.00  0.00    +0.000 A 
ATOM     13  C   UNL     1       2.959   7.848  17.776  0.00  0.00    +0.000 A 
ATOM     14  C   UNL     1       2.102   7.479  18.805  0.00  0.00    +0.000 A 
ATOM     15  F   UNL     1       0.918   8.091  18.936  0.00  0.00    +0.000 F 
ATOM     16  C   UNL     1       2.453   6.477  19.699  0.00  0.00    +0.000 A 
ATOM     17  C   UNL     1       3.678   5.825  19.554  0.00  0.00    +0.000 A 
ENDBRANCH   7  11
BRANCH   1  18
ATOM     18  O   UNL     1       4.453   3.191  17.081  0.00  0.00    +0.000 OA
ATOM     19  H   UNL     1       3.763   3.010  16.419  0.00  0.00    +0.000 HD
ENDBRANCH   1  18
BRANCH   3  20
ATOM     20  S   UNL     1       6.421   3.659  12.609  0.00  0.00    +0.000 S 
ATOM     21  H   UNL     1       5.094   3.651  12.436  0.00  0.00    +0.000 HD
ENDBRANCH   3  20
BRANCH   9  22
ATOM     22  C   UNL     1       8.462   8.135  18.423  0.00  0.00    +0.000 C 
BRANCH  22  23
ATOM     23  C   UNL     1       8.272   9.619  18.094  0.00  0.00    +0.000 C 
BRANCH  23  24
ATOM     24  C   UNL     1       9.336  10.511  18.676  0.00  0.00    +0.000 A 
ATOM     25  C   UNL     1       9.349  10.802  20.048  0.00  0.00    +0.000 A 
ATOM     26  C   UNL     1      10.361  11.595  20.592  0.00  0.00    +0.000 A 
ATOM     27  C   UNL     1      11.363  12.108  19.772  0.00  0.00    +0.000 A 
ATOM     28  C   UNL     1      11.354  11.830  18.406  0.00  0.00    +0.000 A 
ATOM     29  C   UNL     1      10.344  11.038  17.860  0.00  0.00    +0.000 A 
ENDBRANCH  23  24
ENDBRANCH  22  23
ENDBRANCH   9  22
TORSDOF 6
ENDMDL
MODEL 7
REMARK VINA RESULT:      -7.3      5.211      8.375
REMARK  Name = 
REMARK  6 active torsions:
REMARK  status: ('A' for Active; 'I' for Inactive)
REMARK    1  A    between atoms: O_1  and  C_2
REMARK    2  A    between atoms: C_4  and  S_5
REMARK    3  A    between atoms: C_9  and  C_10
REMARK    4  A    between atoms: C_18  and  C_19
REMARK    5  A    between atoms: C_19  and  C_20
REMARK    6  A    between atoms: C_20  and  C_21
REMARK                            x       y       z     vdW  Elec       q    Type
REMARK                         _______ _______ _______ _____ _____    ______ ____
ROOT
ATOM      1  C   UNL     1      -1.738  11.640  19.109  0.00  0.00    +0.000 A 
ATOM      2  N   UNL     1      -2.787  11.759  18.287  0.00  0.00    +0.000 NA
ATOM      3  C   UNL     1      -2.768  10.943  17.227  0.00  0.00    +0.000 A 
ATOM      4  N   UNL     1      -1.810  10.039  16.962  0.00  0.00    +0.000 NA
ATOM      5  C   UNL     1      -0.779   9.972  17.827  0.00  0.00    +0.000 A 
ATOM      6  C   UNL     1      -0.681  10.779  18.940  0.00  0.00    +0.000 A 
ATOM      7  C   UNL     1       0.531  10.760  19.823  0.00  0.00    +0.000 C 
ATOM      8  O   UNL     1       1.313   9.554  19.654  0.00  0.00    +0.000 OA
ATOM      9  C   UNL     1       1.579   9.218  18.283  0.00  0.00    +0.000 C 
ATOM     10  C   UNL     1       0.263   8.931  17.553  0.00  0.00    +0.000 C 
ENDROOT
BRANCH   7  11
ATOM     11  C   UNL     1       1.439  11.984  19.690  0.00  0.00    +0.000 A 
ATOM     12  C   UNL     1       1.953  12.332  18.428  0.00  0.00    +0.000 A 
ATOM     13  C   UNL     1       2.746  13.471  18.271  0.00  0.00    +0.000 A 
ATOM     14  C   UNL     1       3.022  14.275  19.370  0.00  0.00    +0.000 A 
ATOM     15  F   UNL     1       3.760  15.381  19.214  0.00  0.00    +0.000 F 
ATOM     16  C   UNL     1       2.539  13.950  20.629  0.00  0.00    +0.000 A 
ATOM     17  C   UNL     1       1.756  12.807  20.791  0.00  0.00    +0.000 A 
ENDBRANCH   7  11
BRANCH   1  18
ATOM     18  O   UNL     1      -1.783  12.487  20.169  0.00  0.00    +0.000 OA
ATOM     19  H   UNL     1      -0.860  12.458  20.474  0.00  0.00    +0.000 HD
ENDBRANCH   1  18
BRANCH   3  20
ATOM     20  S   UNL     1      -4.091  11.094  16.067  0.00  0.00    +0.000 S 
ATOM     21  H   UNL     1      -4.160   9.778  15.839  0.00  0.00    +0.000 HD
ENDBRANCH   3  20
BRANCH   9  22
ATOM     22  C   UNL     1       2.513   7.994  18.254  0.00  0.00    +0.000 C 
BRANCH  22  23
ATOM     23  C   UNL     1       2.457   7.199  19.562  0.00  0.00    +0.000 C 
BRANCH  23  24
ATOM     24  C   UNL     1       2.034   5.765  19.383  0.00  0.00    +0.000 A 
ATOM     25  C   UNL     1       1.592   5.010  20.479  0.00  0.00    +0.000 A 
ATOM     26  C   UNL     1       1.161   3.694  20.302  0.00  0.00    +0.000 A 
ATOM     27  C   UNL     1       1.174   3.120  19.033  0.00  0.00    +0.000 A 
ATOM     28  C   UNL     1       1.618   3.860  17.939  0.00  0.00    +0.000 A 
ATOM     29  C   UNL     1       2.050   5.176  18.113  0.00  0.00    +0.000 A 
ENDBRANCH  23  24
ENDBRANCH  22  23
ENDBRANCH   9  22
TORSDOF 6
ENDMDL
MODEL 8
REMARK VINA RESULT:      -7.3      5.122      8.145
REMARK  Name = 
REMARK  6 active torsions:
REMARK  status: ('A' for Active; 'I' for Inactive)
REMARK    1  A    between atoms: O_1  and  C_2
REMARK    2  A    between atoms: C_4  and  S_5
REMARK    3  A    between atoms: C_9  and  C_10
REMARK    4  A    between atoms: C_18  and  C_19
REMARK    5  A    between atoms: C_19  and  C_20
REMARK    6  A    between atoms: C_20  and  C_21
REMARK                            x       y       z     vdW  Elec       q    Type
REMARK                         _______ _______ _______ _____ _____    ______ ____
ROOT
ATOM      1  C   UNL     1       0.827  13.182  18.925  0.00  0.00    +0.000 A 
ATOM      2  N   UNL     1       1.167  14.276  19.614  0.00  0.00    +0.000 NA
ATOM      3  C   UNL     1       1.376  14.077  20.920  0.00  0.00    +0.000 A 
ATOM      4  N   UNL     1       1.288  12.893  21.548  0.00  0.00    +0.000 NA
ATOM      5  C   UNL     1       0.937  11.830  20.796  0.00  0.00    +0.000 A 
ATOM      6  C   UNL     1       0.675  11.920  19.447  0.00  0.00    +0.000 A 
ATOM      7  C   UNL     1       0.179  10.744  18.660  0.00  0.00    +0.000 C 
ATOM      8  O   UNL     1       0.444   9.488  19.328  0.00  0.00    +0.000 OA
ATOM      9  C   UNL     1       0.063   9.472  20.713  0.00  0.00    +0.000 C 
ATOM     10  C   UNL     1       0.886  10.503  21.490  0.00  0.00    +0.000 C 
ENDROOT
BRANCH   7  11
ATOM     11  C   UNL     1      -1.296  10.815  18.263  0.00  0.00    +0.000 A 
ATOM     12  C   UNL     1      -1.778   9.983  17.236  0.00  0.00    +0.000 A 
ATOM     13  C   UNL     1      -3.130   9.994  16.886  0.00  0.00    +0.000 A 
ATOM     14  C   UNL     1      -4.011  10.827  17.564  0.00  0.00    +0.000 A 
ATOM     15  F   UNL     1      -5.311  10.817  17.246  0.00  0.00    +0.000 F 
ATOM     16  C   UNL     1      -3.562  11.667  18.573  0.00  0.00    +0.000 A 
ATOM     17  C   UNL     1      -2.211  11.666  18.917  0.00  0.00    +0.000 A 
ENDBRANCH   7  11
BRANCH   1  18
ATOM     18  O   UNL     1       0.613  13.420  17.605  0.00  0.00    +0.000 OA
ATOM     19  H   UNL     1      -0.270  13.829  17.627  0.00  0.00    +0.000 HD
ENDBRANCH   1  18
BRANCH   3  20
ATOM     20  S   UNL     1       1.765  15.493  21.902  0.00  0.00    +0.000 S 
ATOM     21  H   UNL     1       0.962  16.307  21.207  0.00  0.00    +0.000 HD
ENDBRANCH   3  20
BRANCH   9  22
ATOM     22  C   UNL     1       0.285   8.050  21.261  0.00  0.00    +0.000 C 
BRANCH  22  23
ATOM     23  C   UNL     1       1.731   7.582  21.073  0.00  0.00    +0.000 C 
BRANCH  23  24
ATOM     24  C   UNL     1       1.869   6.383  20.172  0.00  0.00    +0.000 A 
ATOM     25  C   UNL     1       1.417   5.123  20.589  0.00  0.00    +0.000 A 
ATOM     26  C   UNL     1       1.508   4.022  19.736  0.00  0.00    +0.000 A 
ATOM     27  C   UNL     1       2.054   4.169  18.463  0.00  0.00    +0.000 A 
ATOM     28  C   UNL     1       2.512   5.416  18.042  0.00  0.00    +0.000 A 
ATOM     29  C   UNL     1       2.423   6.518  18.893  0.00  0.00    +0.000 A 
ENDBRANCH  23  24
ENDBRANCH  22  23
ENDBRANCH   9  22
TORSDOF 6
ENDMDL
MODEL 9
REMARK VINA RESULT:      -7.3      1.492      2.037
REMARK  Name = 
REMARK  6 active torsions:
REMARK  status: ('A' for Active; 'I' for Inactive)
REMARK    1  A    between atoms: O_1  and  C_2
REMARK    2  A    between atoms: C_4  and  S_5
REMARK    3  A    between atoms: C_9  and  C_10
REMARK    4  A    between atoms: C_18  and  C_19
REMARK    5  A    between atoms: C_19  and  C_20
REMARK    6  A    between atoms: C_20  and  C_21
REMARK                            x       y       z     vdW  Elec       q    Type
REMARK                         _______ _______ _______ _____ _____    ______ ____
ROOT
ATOM      1  C   UNL     1       5.681   4.705  17.977  0.00  0.00    +0.000 A 
ATOM      2  N   UNL     1       6.467   4.587  16.902  0.00  0.00    +0.000 NA
ATOM      3  C   UNL     1       6.267   5.510  15.954  0.00  0.00    +0.000 A 
ATOM      4  N   UNL     1       5.377   6.514  16.025  0.00  0.00    +0.000 NA
ATOM      5  C   UNL     1       4.613   6.574  17.134  0.00  0.00    +0.000 A 
ATOM      6  C   UNL     1       4.715   5.664  18.164  0.00  0.00    +0.000 A 
ATOM      7  C   UNL     1       3.777   5.689  19.333  0.00  0.00    +0.000 C 
ATOM      8  O   UNL     1       3.113   6.967  19.475  0.00  0.00    +0.000 OA
ATOM      9  C   UNL     1       2.545   7.468  18.255  0.00  0.00    +0.000 C 
ATOM     10  C   UNL     1       3.655   7.721  17.231  0.00  0.00    +0.000 C 
ENDROOT
BRANCH   7  11
ATOM     11  C   UNL     1       2.739   4.566  19.346  0.00  0.00    +0.000 A 
ATOM     12  C   UNL     1       2.400   3.923  18.142  0.00  0.00    +0.000 A 
ATOM     13  C   UNL     1       1.490   2.863  18.132  0.00  0.00    +0.000 A 
ATOM     14  C   UNL     1       0.920   2.432  19.324  0.00  0.00    +0.000 A 
ATOM     15  F   UNL     1       0.069   1.399  19.317  0.00  0.00    +0.000 F 
ATOM     16  C   UNL     1       1.227   3.056  20.525  0.00  0.00    +0.000 A 
ATOM     17  C   UNL     1       2.127   4.121  20.536  0.00  0.00    +0.000 A 
ENDBRANCH   7  11
BRANCH   1  18
ATOM     18  O   UNL     1       5.902   3.748  18.915  0.00  0.00    +0.000 OA
ATOM     19  H   UNL     1       6.771   4.018  19.260  0.00  0.00    +0.000 HD
ENDBRANCH   1  18
BRANCH   3  20
ATOM     20  S   UNL     1       7.227   5.374  14.478  0.00  0.00    +0.000 S 
ATOM     21  H   UNL     1       8.327   5.887  15.039  0.00  0.00    +0.000 HD
ENDBRANCH   3  20
BRANCH   9  22
ATOM     22  C   UNL     1       1.772   8.762  18.573  0.00  0.00    +0.000 C 
BRANCH  22  23
ATOM     23  C   UNL     1       2.337   9.968  17.817  0.00  0.00    +0.000 C 
BRANCH  23  24
ATOM     24  C   UNL     1       1.776  11.288  18.274  0.00  0.00    +0.000 A 
ATOM     25  C   UNL     1       0.516  11.353  18.887  0.00  0.00    +0.000 A 
ATOM     26  C   UNL     1       0.017  12.572  19.348  0.00  0.00    +0.000 A 
ATOM     27  C   UNL     1       0.767  13.736  19.196  0.00  0.00    +0.000 A 
ATOM     28  C   UNL     1       2.016  13.683  18.581  0.00  0.00    +0.000 A 
ATOM     29  C   UNL     1       2.518  12.466  18.119  0.00  0.00    +0.000 A 
ENDBRANCH  23  24
ENDBRANCH  22  23
ENDBRANCH   9  22
TORSDOF 6
ENDMDL
