MODEL 1
REMARK VINA RESULT:      -8.8      0.000      0.000
REMARK  Name = 
REMARK  7 active torsions:
REMARK  status: ('A' for Active; 'I' for Inactive)
REMARK    1  A    between atoms: C_1  and  C_2
REMARK    2  A    between atoms: C_5  and  C_6
REMARK    3  A    between atoms: C_7  and  N_8
REMARK    4  A    between atoms: C_9  and  C_11
REMARK    5  A    between atoms: C_11  and  N_12
REMARK    6  A    between atoms: C_16  and  C_17
REMARK    7  A    between atoms: C_16  and  C_18
REMARK                            x       y       z     vdW  Elec       q    Type
REMARK                         _______ _______ _______ _____ _____    ______ ____
ROOT
ATOM      1  N   UNL     1       3.363   4.145  19.549  0.00  0.00    +0.000 N 
ATOM      2  C   UNL     1       3.910   2.913  19.610  0.00  0.00    +0.000 C 
ATOM      3  O   UNL     1       4.019   2.217  20.615  0.00  0.00    +0.000 OA
ATOM      4  N   UNL     1       4.331   2.548  18.359  0.00  0.00    +0.000 N 
ATOM      5  C   UNL     1       3.826   3.441  17.331  0.00  0.00    +0.000 C 
ATOM      6  C   UNL     1       2.708   2.723  16.574  0.00  0.00    +0.000 C 
ATOM      7  C   UNL     1       3.267   4.553  18.248  0.00  0.00    +0.000 C 
ATOM      8  O   UNL     1       2.842   5.635  17.860  0.00  0.00    +0.000 OA
ATOM      9  H   UNL     1       4.852   1.698  18.194  0.00  0.00    +0.000 HD
ENDROOT
BRANCH   5  10
ATOM     10  C   UNL     1       4.902   4.034  16.431  0.00  0.00    +0.000 A 
ATOM     11  C   UNL     1       5.974   4.770  16.984  0.00  0.00    +0.000 A 
ATOM     12  C   UNL     1       7.036   5.207  16.191  0.00  0.00    +0.000 A 
ATOM     13  C   UNL     1       7.040   4.927  14.832  0.00  0.00    +0.000 A 
ATOM     14  C   UNL     1       6.002   4.183  14.269  0.00  0.00    +0.000 A 
ATOM     15  C   UNL     1       4.940   3.748  15.057  0.00  0.00    +0.000 A 
ATOM     16  O   UNL     1       5.960   3.829  12.944  0.00  0.00    +0.000 OA
ATOM     17  C   UNL     1       7.224   4.035  12.307  0.00  0.00    +0.000 C 
ATOM     18  C   UNL     1       7.825   5.373  12.712  0.00  0.00    +0.000 C 
ATOM     19  O   UNL     1       8.106   5.398  14.113  0.00  0.00    +0.000 OA
ENDBRANCH   5  10
BRANCH   1  20
ATOM     20  C   UNL     1       3.224   5.007  20.705  0.00  0.00    +0.000 C 
BRANCH  20  22
ATOM     21  N   UNL     1       2.431   7.358  20.473  0.00  0.00    +0.000 N 
ATOM     22  C   UNL     1       2.066   6.007  20.593  0.00  0.00    +0.000 C 
ATOM     23  O   UNL     1       0.915   5.607  20.560  0.00  0.00    +0.000 OA
ATOM     24  H   UNL     1       3.395   7.611  20.688  0.00  0.00    +0.000 HD
BRANCH  21  31
ATOM     25  C   UNL     1      -0.797  10.097  22.998  0.00  0.00    +0.000 C 
ATOM     26  C   UNL     1      -0.168   9.765  21.677  0.00  0.00    +0.000 A 
ATOM     27  C   UNL     1      -0.486  10.453  20.506  0.00  0.00    +0.000 A 
ATOM     28  C   UNL     1       0.142  10.096  19.306  0.00  0.00    +0.000 A 
ATOM     29  C   UNL     1       1.104   9.057  19.255  0.00  0.00    +0.000 A 
ATOM     30  C   UNL     1       1.754   8.778  17.926  0.00  0.00    +0.000 C 
ATOM     31  C   UNL     1       1.459   8.399  20.439  0.00  0.00    +0.000 A 
ATOM     32  C   UNL     1       0.796   8.742  21.631  0.00  0.00    +0.000 A 
ENDBRANCH  21  31
ENDBRANCH  20  22
ENDBRANCH   1  20
TORSDOF 4
ENDMDL
MODEL 2
REMARK VINA RESULT:      -8.3      1.681      2.757
REMARK  Name = 
REMARK  7 active torsions:
REMARK  status: ('A' for Active; 'I' for Inactive)
REMARK    1  A    between atoms: C_1  and  C_2
REMARK    2  A    between atoms: C_5  and  C_6
REMARK    3  A    between atoms: C_7  and  N_8
REMARK    4  A    between atoms: C_9  and  C_11
REMARK    5  A    between atoms: C_11  and  N_12
REMARK    6  A    between atoms: C_16  and  C_17
REMARK    7  A    between atoms: C_16  and  C_18
REMARK                            x       y       z     vdW  Elec       q    Type
REMARK                         _______ _______ _______ _____ _____    ______ ____
ROOT
ATOM      1  N   UNL     1       2.168   6.191  20.174  0.00  0.00    +0.000 N 
ATOM      2  C   UNL     1       2.395   4.963  20.686  0.00  0.00    +0.000 C 
ATOM      3  O   UNL     1       2.181   4.609  21.842  0.00  0.00    +0.000 OA
ATOM      4  N   UNL     1       2.905   4.155  19.705  0.00  0.00    +0.000 N 
ATOM      5  C   UNL     1       2.788   4.757  18.387  0.00  0.00    +0.000 C 
ATOM      6  C   UNL     1       1.662   4.048  17.632  0.00  0.00    +0.000 C 
ATOM      7  C   UNL     1       2.371   6.181  18.822  0.00  0.00    +0.000 C 
ATOM      8  O   UNL     1       2.277   7.144  18.070  0.00  0.00    +0.000 OA
ATOM      9  H   UNL     1       3.231   3.218  19.896  0.00  0.00    +0.000 HD
ENDROOT
BRANCH   5  10
ATOM     10  C   UNL     1       4.098   4.836  17.615  0.00  0.00    +0.000 A 
ATOM     11  C   UNL     1       5.327   4.972  18.300  0.00  0.00    +0.000 A 
ATOM     12  C   UNL     1       6.544   4.915  17.620  0.00  0.00    +0.000 A 
ATOM     13  C   UNL     1       6.554   4.732  16.245  0.00  0.00    +0.000 A 
ATOM     14  C   UNL     1       5.353   4.573  15.551  0.00  0.00    +0.000 A 
ATOM     15  C   UNL     1       4.137   4.634  16.227  0.00  0.00    +0.000 A 
ATOM     16  O   UNL     1       5.286   4.345  14.200  0.00  0.00    +0.000 OA
ATOM     17  C   UNL     1       6.563   3.982  13.667  0.00  0.00    +0.000 C 
ATOM     18  C   UNL     1       7.660   4.875  14.228  0.00  0.00    +0.000 C 
ATOM     19  O   UNL     1       7.783   4.699  15.641  0.00  0.00    +0.000 OA
ENDBRANCH   5  10
BRANCH   1  20
ATOM     20  C   UNL     1       2.059   7.382  20.991  0.00  0.00    +0.000 C 
BRANCH  20  22
ATOM     21  N   UNL     1       0.954   9.240  19.752  0.00  0.00    +0.000 N 
ATOM     22  C   UNL     1       0.804   8.216  20.702  0.00  0.00    +0.000 C 
ATOM     23  O   UNL     1      -0.251   7.940  21.244  0.00  0.00    +0.000 OA
ATOM     24  H   UNL     1       1.901   9.509  19.487  0.00  0.00    +0.000 HD
BRANCH  21  31
ATOM     25  C   UNL     1      -2.607  10.519  16.593  0.00  0.00    +0.000 C 
ATOM     26  C   UNL     1      -1.880  10.803  17.874  0.00  0.00    +0.000 A 
ATOM     27  C   UNL     1      -2.241  11.851  18.720  0.00  0.00    +0.000 A 
ATOM     28  C   UNL     1      -1.523  12.058  19.904  0.00  0.00    +0.000 A 
ATOM     29  C   UNL     1      -0.440  11.220  20.270  0.00  0.00    +0.000 A 
ATOM     30  C   UNL     1       0.241  11.499  21.583  0.00  0.00    +0.000 C 
ATOM     31  C   UNL     1      -0.107  10.140  19.444  0.00  0.00    +0.000 A 
ATOM     32  C   UNL     1      -0.813   9.962  18.241  0.00  0.00    +0.000 A 
ENDBRANCH  21  31
ENDBRANCH  20  22
ENDBRANCH   1  20
TORSDOF 4
ENDMDL
MODEL 3
REMARK VINA RESULT:      -8.1      4.695      9.157
REMARK  Name = 
REMARK  7 active torsions:
REMARK  status: ('A' for Active; 'I' for Inactive)
REMARK    1  A    between atoms: C_1  and  C_2
REMARK    2  A    between atoms: C_5  and  C_6
REMARK    3  A    between atoms: C_7  and  N_8
REMARK    4  A    between atoms: C_9  and  C_11
REMARK    5  A    between atoms: C_11  and  N_12
REMARK    6  A    between atoms: C_16  and  C_17
REMARK    7  A    between atoms: C_16  and  C_18
REMARK                            x       y       z     vdW  Elec       q    Type
REMARK                         _______ _______ _______ _____ _____    ______ ____
ROOT
ATOM      1  N   UNL     1       0.402  10.716  21.800  0.00  0.00    +0.000 N 
ATOM      2  C   UNL     1      -0.596  10.731  22.708  0.00  0.00    +0.000 C 
ATOM      3  O   UNL     1      -0.565  10.226  23.827  0.00  0.00    +0.000 OA
ATOM      4  N   UNL     1      -1.666  11.410  22.188  0.00  0.00    +0.000 N 
ATOM      5  C   UNL     1      -1.318  12.127  20.973  0.00  0.00    +0.000 C 
ATOM      6  C   UNL     1      -1.224  13.617  21.303  0.00  0.00    +0.000 C 
ATOM      7  C   UNL     1       0.079  11.510  20.734  0.00  0.00    +0.000 C 
ATOM      8  O   UNL     1       0.759  11.683  19.729  0.00  0.00    +0.000 OA
ATOM      9  H   UNL     1      -2.554  11.462  22.668  0.00  0.00    +0.000 HD
ENDROOT
BRANCH   5  10
ATOM     10  C   UNL     1      -2.212  11.812  19.782  0.00  0.00    +0.000 A 
ATOM     11  C   UNL     1      -3.523  12.336  19.710  0.00  0.00    +0.000 A 
ATOM     12  C   UNL     1      -4.308  12.167  18.569  0.00  0.00    +0.000 A 
ATOM     13  C   UNL     1      -3.802  11.463  17.486  0.00  0.00    +0.000 A 
ATOM     14  C   UNL     1      -2.502  10.956  17.526  0.00  0.00    +0.000 A 
ATOM     15  C   UNL     1      -1.719  11.120  18.665  0.00  0.00    +0.000 A 
ATOM     16  O   UNL     1      -1.919  10.289  16.479  0.00  0.00    +0.000 OA
ATOM     17  C   UNL     1      -2.668  10.457  15.271  0.00  0.00    +0.000 C 
ATOM     18  C   UNL     1      -4.159  10.298  15.529  0.00  0.00    +0.000 C 
ATOM     19  O   UNL     1      -4.632  11.324  16.405  0.00  0.00    +0.000 OA
ENDBRANCH   5  10
BRANCH   1  20
ATOM     20  C   UNL     1       1.478   9.746  21.820  0.00  0.00    +0.000 C 
BRANCH  20  22
ATOM     21  N   UNL     1       2.236   7.631  20.743  0.00  0.00    +0.000 N 
ATOM     22  C   UNL     1       1.140   8.436  21.097  0.00  0.00    +0.000 C 
ATOM     23  O   UNL     1      -0.022   8.124  20.909  0.00  0.00    +0.000 OA
ATOM     24  H   UNL     1       3.165   8.049  20.780  0.00  0.00    +0.000 HD
BRANCH  21  31
ATOM     25  C   UNL     1       1.086   2.839  20.822  0.00  0.00    +0.000 C 
ATOM     26  C   UNL     1       1.518   4.031  20.020  0.00  0.00    +0.000 A 
ATOM     27  C   UNL     1       1.711   3.972  18.640  0.00  0.00    +0.000 A 
ATOM     28  C   UNL     1       2.110   5.123  17.951  0.00  0.00    +0.000 A 
ATOM     29  C   UNL     1       2.314   6.355  18.623  0.00  0.00    +0.000 A 
ATOM     30  C   UNL     1       2.701   7.545  17.787  0.00  0.00    +0.000 C 
ATOM     31  C   UNL     1       2.074   6.426  20.000  0.00  0.00    +0.000 A 
ATOM     32  C   UNL     1       1.707   5.255  20.687  0.00  0.00    +0.000 A 
ENDBRANCH  21  31
ENDBRANCH  20  22
ENDBRANCH   1  20
TORSDOF 4
ENDMDL
MODEL 4
REMARK VINA RESULT:      -8.0      1.646      2.328
REMARK  Name = 
REMARK  7 active torsions:
REMARK  status: ('A' for Active; 'I' for Inactive)
REMARK    1  A    between atoms: C_1  and  C_2
REMARK    2  A    between atoms: C_5  and  C_6
REMARK    3  A    between atoms: C_7  and  N_8
REMARK    4  A    between atoms: C_9  and  C_11
REMARK    5  A    between atoms: C_11  and  N_12
REMARK    6  A    between atoms: C_16  and  C_17
REMARK    7  A    between atoms: C_16  and  C_18
REMARK                            x       y       z     vdW  Elec       q    Type
REMARK                         _______ _______ _______ _____ _____    ______ ____
ROOT
ATOM      1  N   UNL     1       2.145   6.353  20.211  0.00  0.00    +0.000 N 
ATOM      2  C   UNL     1       2.403   5.084  20.592  0.00  0.00    +0.000 C 
ATOM      3  O   UNL     1       2.249   4.621  21.718  0.00  0.00    +0.000 OA
ATOM      4  N   UNL     1       2.867   4.378  19.514  0.00  0.00    +0.000 N 
ATOM      5  C   UNL     1       2.680   5.101  18.268  0.00  0.00    +0.000 C 
ATOM      6  C   UNL     1       1.522   4.457  17.505  0.00  0.00    +0.000 C 
ATOM      7  C   UNL     1       2.279   6.473  18.856  0.00  0.00    +0.000 C 
ATOM      8  O   UNL     1       2.143   7.503  18.205  0.00  0.00    +0.000 OA
ATOM      9  H   UNL     1       3.207   3.431  19.598  0.00  0.00    +0.000 HD
ENDROOT
BRANCH   5  10
ATOM     10  C   UNL     1       3.949   5.265  17.442  0.00  0.00    +0.000 A 
ATOM     11  C   UNL     1       5.090   5.887  17.998  0.00  0.00    +0.000 A 
ATOM     12  C   UNL     1       6.301   5.930  17.304  0.00  0.00    +0.000 A 
ATOM     13  C   UNL     1       6.388   5.362  16.041  0.00  0.00    +0.000 A 
ATOM     14  C   UNL     1       5.280   4.724  15.482  0.00  0.00    +0.000 A 
ATOM     15  C   UNL     1       4.071   4.684  16.171  0.00  0.00    +0.000 A 
ATOM     16  O   UNL     1       5.304   4.103  14.260  0.00  0.00    +0.000 OA
ATOM     17  C   UNL     1       6.644   3.919  13.792  0.00  0.00    +0.000 C 
ATOM     18  C   UNL     1       7.474   5.175  14.017  0.00  0.00    +0.000 C 
ATOM     19  O   UNL     1       7.602   5.453  15.413  0.00  0.00    +0.000 OA
ENDBRANCH   5  10
BRANCH   1  20
ATOM     20  C   UNL     1       2.071   7.461  21.143  0.00  0.00    +0.000 C 
BRANCH  20  22
ATOM     21  N   UNL     1       0.935   9.551  20.402  0.00  0.00    +0.000 N 
ATOM     22  C   UNL     1       0.790   8.293  21.012  0.00  0.00    +0.000 C 
ATOM     23  O   UNL     1      -0.277   7.834  21.377  0.00  0.00    +0.000 OA
ATOM     24  H   UNL     1       1.879   9.920  20.293  0.00  0.00    +0.000 HD
BRANCH  21  31
ATOM     25  C   UNL     1      -1.899  12.926  22.609  0.00  0.00    +0.000 C 
ATOM     26  C   UNL     1      -1.590  12.135  21.373  0.00  0.00    +0.000 A 
ATOM     27  C   UNL     1      -2.299  12.305  20.183  0.00  0.00    +0.000 A 
ATOM     28  C   UNL     1      -1.956  11.537  19.063  0.00  0.00    +0.000 A 
ATOM     29  C   UNL     1      -0.898  10.595  19.106  0.00  0.00    +0.000 A 
ATOM     30  C   UNL     1      -0.579   9.850  17.838  0.00  0.00    +0.000 C 
ATOM     31  C   UNL     1      -0.156  10.459  20.286  0.00  0.00    +0.000 A 
ATOM     32  C   UNL     1      -0.531  11.211  21.414  0.00  0.00    +0.000 A 
ENDBRANCH  21  31
ENDBRANCH  20  22
ENDBRANCH   1  20
TORSDOF 4
ENDMDL
MODEL 5
REMARK VINA RESULT:      -7.9      4.863     10.209
REMARK  Name = 
REMARK  7 active torsions:
REMARK  status: ('A' for Active; 'I' for Inactive)
REMARK    1  A    between atoms: C_1  and  C_2
REMARK    2  A    between atoms: C_5  and  C_6
REMARK    3  A    between atoms: C_7  and  N_8
REMARK    4  A    between atoms: C_9  and  C_11
REMARK    5  A    between atoms: C_11  and  N_12
REMARK    6  A    between atoms: C_16  and  C_17
REMARK    7  A    between atoms: C_16  and  C_18
REMARK                            x       y       z     vdW  Elec       q    Type
REMARK                         _______ _______ _______ _____ _____    ______ ____
ROOT
ATOM      1  N   UNL     1      -0.051  11.130  21.296  0.00  0.00    +0.000 N 
ATOM      2  C   UNL     1      -0.211  12.409  21.697  0.00  0.00    +0.000 C 
ATOM      3  O   UNL     1       0.198  12.895  22.748  0.00  0.00    +0.000 OA
ATOM      4  N   UNL     1      -0.906  13.095  20.737  0.00  0.00    +0.000 N 
ATOM      5  C   UNL     1      -1.011  12.345  19.498  0.00  0.00    +0.000 C 
ATOM      6  C   UNL     1      -0.055  12.963  18.477  0.00  0.00    +0.000 C 
ATOM      7  C   UNL     1      -0.491  10.982  20.010  0.00  0.00    +0.000 C 
ATOM      8  O   UNL     1      -0.511   9.938  19.369  0.00  0.00    +0.000 OA
ATOM      9  H   UNL     1      -1.214  14.048  20.875  0.00  0.00    +0.000 HD
ENDROOT
BRANCH   5  10
ATOM     10  C   UNL     1      -2.435  12.174  18.987  0.00  0.00    +0.000 A 
ATOM     11  C   UNL     1      -2.677  11.623  17.708  0.00  0.00    +0.000 A 
ATOM     12  C   UNL     1      -3.973  11.338  17.277  0.00  0.00    +0.000 A 
ATOM     13  C   UNL     1      -5.049  11.608  18.111  0.00  0.00    +0.000 A 
ATOM     14  C   UNL     1      -4.832  12.131  19.386  0.00  0.00    +0.000 A 
ATOM     15  C   UNL     1      -3.540  12.420  19.817  0.00  0.00    +0.000 A 
ATOM     16  O   UNL     1      -5.841  12.381  20.282  0.00  0.00    +0.000 OA
ATOM     17  C   UNL     1      -7.065  11.760  19.877  0.00  0.00    +0.000 C 
ATOM     18  C   UNL     1      -7.310  11.960  18.389  0.00  0.00    +0.000 C 
ATOM     19  O   UNL     1      -6.294  11.315  17.618  0.00  0.00    +0.000 OA
ENDBRANCH   5  10
BRANCH   1  20
ATOM     20  C   UNL     1       0.229  10.042  22.211  0.00  0.00    +0.000 C 
BRANCH  20  22
ATOM     21  N   UNL     1       1.589   8.379  20.948  0.00  0.00    +0.000 N 
ATOM     22  C   UNL     1       0.343   8.674  21.526  0.00  0.00    +0.000 C 
ATOM     23  O   UNL     1      -0.596   7.899  21.552  0.00  0.00    +0.000 OA
ATOM     24  H   UNL     1       2.248   9.146  20.822  0.00  0.00    +0.000 HD
BRANCH  21  31
ATOM     25  C   UNL     1       1.585   3.450  20.971  0.00  0.00    +0.000 C 
ATOM     26  C   UNL     1       1.829   4.719  20.209  0.00  0.00    +0.000 A 
ATOM     27  C   UNL     1       2.210   4.722  18.867  0.00  0.00    +0.000 A 
ATOM     28  C   UNL     1       2.417   5.943  18.214  0.00  0.00    +0.000 A 
ATOM     29  C   UNL     1       2.239   7.180  18.882  0.00  0.00    +0.000 A 
ATOM     30  C   UNL     1       2.445   8.437  18.080  0.00  0.00    +0.000 C 
ATOM     31  C   UNL     1       1.810   7.178  20.215  0.00  0.00    +0.000 A 
ATOM     32  C   UNL     1       1.639   5.946  20.870  0.00  0.00    +0.000 A 
ENDBRANCH  21  31
ENDBRANCH  20  22
ENDBRANCH   1  20
TORSDOF 4
ENDMDL
MODEL 6
REMARK VINA RESULT:      -7.8      3.916      9.993
REMARK  Name = 
REMARK  7 active torsions:
REMARK  status: ('A' for Active; 'I' for Inactive)
REMARK    1  A    between atoms: C_1  and  C_2
REMARK    2  A    between atoms: C_5  and  C_6
REMARK    3  A    between atoms: C_7  and  N_8
REMARK    4  A    between atoms: C_9  and  C_11
REMARK    5  A    between atoms: C_11  and  N_12
REMARK    6  A    between atoms: C_16  and  C_17
REMARK    7  A    between atoms: C_16  and  C_18
REMARK                            x       y       z     vdW  Elec       q    Type
REMARK                         _______ _______ _______ _____ _____    ______ ____
ROOT
ATOM      1  N   UNL     1       0.935   9.329  19.456  0.00  0.00    +0.000 N 
ATOM      2  C   UNL     1       1.171   9.836  18.229  0.00  0.00    +0.000 C 
ATOM      3  O   UNL     1       2.072   9.498  17.466  0.00  0.00    +0.000 OA
ATOM      4  N   UNL     1       0.237  10.800  17.954  0.00  0.00    +0.000 N 
ATOM      5  C   UNL     1      -0.856  10.788  18.911  0.00  0.00    +0.000 C 
ATOM      6  C   UNL     1      -2.082  10.174  18.236  0.00  0.00    +0.000 C 
ATOM      7  C   UNL     1      -0.239   9.825  19.952  0.00  0.00    +0.000 C 
ATOM      8  O   UNL     1      -0.718   9.584  21.054  0.00  0.00    +0.000 OA
ATOM      9  H   UNL     1       0.284  11.372  17.123  0.00  0.00    +0.000 HD
ENDROOT
BRANCH   5  10
ATOM     10  C   UNL     1      -1.123  12.133  19.575  0.00  0.00    +0.000 A 
ATOM     11  C   UNL     1      -0.141  13.149  19.555  0.00  0.00    +0.000 A 
ATOM     12  C   UNL     1      -0.414  14.428  20.042  0.00  0.00    +0.000 A 
ATOM     13  C   UNL     1      -1.668  14.710  20.565  0.00  0.00    +0.000 A 
ATOM     14  C   UNL     1      -2.660  13.728  20.573  0.00  0.00    +0.000 A 
ATOM     15  C   UNL     1      -2.388  12.450  20.093  0.00  0.00    +0.000 A 
ATOM     16  O   UNL     1      -3.934  13.945  21.032  0.00  0.00    +0.000 OA
ATOM     17  C   UNL     1      -4.200  15.342  21.195  0.00  0.00    +0.000 C 
ATOM     18  C   UNL     1      -3.027  16.045  21.862  0.00  0.00    +0.000 C 
ATOM     19  O   UNL     1      -1.863  15.982  21.036  0.00  0.00    +0.000 OA
ENDBRANCH   5  10
BRANCH   1  20
ATOM     20  C   UNL     1       1.942   8.639  20.236  0.00  0.00    +0.000 C 
BRANCH  20  22
ATOM     21  N   UNL     1       2.643   6.807  18.700  0.00  0.00    +0.000 N 
ATOM     22  C   UNL     1       2.043   7.140  19.926  0.00  0.00    +0.000 C 
ATOM     23  O   UNL     1       1.664   6.320  20.743  0.00  0.00    +0.000 OA
ATOM     24  H   UNL     1       2.765   7.550  18.013  0.00  0.00    +0.000 HD
BRANCH  21  31
ATOM     25  C   UNL     1       0.691   2.281  18.764  0.00  0.00    +0.000 C 
ATOM     26  C   UNL     1       1.782   3.190  18.281  0.00  0.00    +0.000 A 
ATOM     27  C   UNL     1       2.791   2.753  17.422  0.00  0.00    +0.000 A 
ATOM     28  C   UNL     1       3.778   3.654  17.005  0.00  0.00    +0.000 A 
ATOM     29  C   UNL     1       3.771   5.007  17.427  0.00  0.00    +0.000 A 
ATOM     30  C   UNL     1       4.851   5.908  16.889  0.00  0.00    +0.000 C 
ATOM     31  C   UNL     1       2.732   5.458  18.250  0.00  0.00    +0.000 A 
ATOM     32  C   UNL     1       1.766   4.536  18.690  0.00  0.00    +0.000 A 
ENDBRANCH  21  31
ENDBRANCH  20  22
ENDBRANCH   1  20
TORSDOF 4
ENDMDL
MODEL 7
REMARK VINA RESULT:      -7.8      4.023      9.841
REMARK  Name = 
REMARK  7 active torsions:
REMARK  status: ('A' for Active; 'I' for Inactive)
REMARK    1  A    between atoms: C_1  and  C_2
REMARK    2  A    between atoms: C_5  and  C_6
REMARK    3  A    between atoms: C_7  and  N_8
REMARK    4  A    between atoms: C_9  and  C_11
REMARK    5  A    between atoms: C_11  and  N_12
REMARK    6  A    between atoms: C_16  and  C_17
REMARK    7  A    between atoms: C_16  and  C_18
REMARK                            x       y       z     vdW  Elec       q    Type
REMARK                         _______ _______ _______ _____ _____    ______ ____
ROOT
ATOM      1  N   UNL     1       1.273  10.288  19.382  0.00  0.00    +0.000 N 
ATOM      2  C   UNL     1       0.760   9.501  20.351  0.00  0.00    +0.000 C 
ATOM      3  O   UNL     1       1.307   8.524  20.855  0.00  0.00    +0.000 OA
ATOM      4  N   UNL     1      -0.481   9.965  20.696  0.00  0.00    +0.000 N 
ATOM      5  C   UNL     1      -0.746  11.280  20.140  0.00  0.00    +0.000 C 
ATOM      6  C   UNL     1      -0.643  12.310  21.266  0.00  0.00    +0.000 C 
ATOM      7  C   UNL     1       0.461  11.370  19.177  0.00  0.00    +0.000 C 
ATOM      8  O   UNL     1       0.631  12.254  18.346  0.00  0.00    +0.000 OA
ATOM      9  H   UNL     1      -1.080   9.468  21.340  0.00  0.00    +0.000 HD
ENDROOT
BRANCH   5  10
ATOM     10  C   UNL     1      -2.033  11.372  19.332  0.00  0.00    +0.000 A 
ATOM     11  C   UNL     1      -2.271  10.484  18.258  0.00  0.00    +0.000 A 
ATOM     12  C   UNL     1      -3.497  10.467  17.592  0.00  0.00    +0.000 A 
ATOM     13  C   UNL     1      -4.501  11.343  17.979  0.00  0.00    +0.000 A 
ATOM     14  C   UNL     1      -4.296  12.213  19.051  0.00  0.00    +0.000 A 
ATOM     15  C   UNL     1      -3.072  12.235  19.714  0.00  0.00    +0.000 A 
ATOM     16  O   UNL     1      -5.255  13.074  19.519  0.00  0.00    +0.000 OA
ATOM     17  C   UNL     1      -6.548  12.751  18.996  0.00  0.00    +0.000 C 
ATOM     18  C   UNL     1      -6.471  12.443  17.508  0.00  0.00    +0.000 C 
ATOM     19  O   UNL     1      -5.673  11.280  17.273  0.00  0.00    +0.000 OA
ENDBRANCH   5  10
BRANCH   1  20
ATOM     20  C   UNL     1       2.330   9.860  18.489  0.00  0.00    +0.000 C 
BRANCH  20  22
ATOM     21  N   UNL     1       3.106   7.492  18.519  0.00  0.00    +0.000 N 
ATOM     22  C   UNL     1       2.179   8.413  18.002  0.00  0.00    +0.000 C 
ATOM     23  O   UNL     1       1.265   8.112  17.256  0.00  0.00    +0.000 OA
ATOM     24  H   UNL     1       3.931   7.862  18.990  0.00  0.00    +0.000 HD
BRANCH  21  31
ATOM     25  C   UNL     1       1.048   3.023  18.814  0.00  0.00    +0.000 C 
ATOM     26  C   UNL     1       2.127   3.892  18.239  0.00  0.00    +0.000 A 
ATOM     27  C   UNL     1       3.065   3.410  17.326  0.00  0.00    +0.000 A 
ATOM     28  C   UNL     1       4.045   4.276  16.824  0.00  0.00    +0.000 A 
ATOM     29  C   UNL     1       4.101   5.637  17.215  0.00  0.00    +0.000 A 
ATOM     30  C   UNL     1       5.164   6.497  16.587  0.00  0.00    +0.000 C 
ATOM     31  C   UNL     1       3.131   6.133  18.095  0.00  0.00    +0.000 A 
ATOM     32  C   UNL     1       2.173   5.246  18.619  0.00  0.00    +0.000 A 
ENDBRANCH  21  31
ENDBRANCH  20  22
ENDBRANCH   1  20
TORSDOF 4
ENDMDL
MODEL 8
REMARK VINA RESULT:      -7.8      3.893      9.812
REMARK  Name = 
REMARK  7 active torsions:
REMARK  status: ('A' for Active; 'I' for Inactive)
REMARK    1  A    between atoms: C_1  and  C_2
REMARK    2  A    between atoms: C_5  and  C_6
REMARK    3  A    between atoms: C_7  and  N_8
REMARK    4  A    between atoms: C_9  and  C_11
REMARK    5  A    between atoms: C_11  and  N_12
REMARK    6  A    between atoms: C_16  and  C_17
REMARK    7  A    between atoms: C_16  and  C_18
REMARK                            x       y       z     vdW  Elec       q    Type
REMARK                         _______ _______ _______ _____ _____    ______ ____
ROOT
ATOM      1  N   UNL     1       0.849   9.405  19.475  0.00  0.00    +0.000 N 
ATOM      2  C   UNL     1       1.105   9.904  18.248  0.00  0.00    +0.000 C 
ATOM      3  O   UNL     1       2.030   9.575  17.510  0.00  0.00    +0.000 OA
ATOM      4  N   UNL     1       0.160  10.847  17.941  0.00  0.00    +0.000 N 
ATOM      5  C   UNL     1      -0.955  10.824  18.872  0.00  0.00    +0.000 C 
ATOM      6  C   UNL     1      -2.153  10.180  18.174  0.00  0.00    +0.000 C 
ATOM      7  C   UNL     1      -0.346   9.883  19.937  0.00  0.00    +0.000 C 
ATOM      8  O   UNL     1      -0.846   9.644  21.030  0.00  0.00    +0.000 OA
ATOM      9  H   UNL     1       0.216  11.412  17.105  0.00  0.00    +0.000 HD
ENDROOT
BRANCH   5  10
ATOM     10  C   UNL     1      -1.263  12.170  19.515  0.00  0.00    +0.000 A 
ATOM     11  C   UNL     1      -2.525  12.411  20.105  0.00  0.00    +0.000 A 
ATOM     12  C   UNL     1      -2.780  13.586  20.811  0.00  0.00    +0.000 A 
ATOM     13  C   UNL     1      -1.784  14.545  20.932  0.00  0.00    +0.000 A 
ATOM     14  C   UNL     1      -0.524  14.318  20.376  0.00  0.00    +0.000 A 
ATOM     15  C   UNL     1      -0.268  13.148  19.667  0.00  0.00    +0.000 A 
ATOM     16  O   UNL     1       0.522  15.198  20.492  0.00  0.00    +0.000 OA
ATOM     17  C   UNL     1       0.262  16.190  21.491  0.00  0.00    +0.000 C 
ATOM     18  C   UNL     1      -1.160  16.719  21.374  0.00  0.00    +0.000 C 
ATOM     19  O   UNL     1      -2.108  15.680  21.627  0.00  0.00    +0.000 OA
ENDBRANCH   5  10
BRANCH   1  20
ATOM     20  C   UNL     1       1.850   8.741  20.285  0.00  0.00    +0.000 C 
BRANCH  20  22
ATOM     21  N   UNL     1       2.582   6.930  18.738  0.00  0.00    +0.000 N 
ATOM     22  C   UNL     1       2.002   7.246  19.978  0.00  0.00    +0.000 C 
ATOM     23  O   UNL     1       1.676   6.416  20.809  0.00  0.00    +0.000 OA
ATOM     24  H   UNL     1       2.657   7.674  18.046  0.00  0.00    +0.000 HD
BRANCH  21  31
ATOM     25  C   UNL     1       0.719   2.367  18.741  0.00  0.00    +0.000 C 
ATOM     26  C   UNL     1       1.807   3.298  18.292  0.00  0.00    +0.000 A 
ATOM     27  C   UNL     1       2.851   2.881  17.466  0.00  0.00    +0.000 A 
ATOM     28  C   UNL     1       3.832   3.802  17.081  0.00  0.00    +0.000 A 
ATOM     29  C   UNL     1       3.785   5.154  17.502  0.00  0.00    +0.000 A 
ATOM     30  C   UNL     1       4.863   6.076  16.999  0.00  0.00    +0.000 C 
ATOM     31  C   UNL     1       2.712   5.584  18.292  0.00  0.00    +0.000 A 
ATOM     32  C   UNL     1       1.751   4.642  18.701  0.00  0.00    +0.000 A 
ENDBRANCH  21  31
ENDBRANCH  20  22
ENDBRANCH   1  20
TORSDOF 4
ENDMDL
MODEL 9
REMARK VINA RESULT:      -7.7      4.672      7.760
REMARK  Name = 
REMARK  7 active torsions:
REMARK  status: ('A' for Active; 'I' for Inactive)
REMARK    1  A    between atoms: C_1  and  C_2
REMARK    2  A    between atoms: C_5  and  C_6
REMARK    3  A    between atoms: C_7  and  N_8
REMARK    4  A    between atoms: C_9  and  C_11
REMARK    5  A    between atoms: C_11  and  N_12
REMARK    6  A    between atoms: C_16  and  C_17
REMARK    7  A    between atoms: C_16  and  C_18
REMARK                            x       y       z     vdW  Elec       q    Type
REMARK                         _______ _______ _______ _____ _____    ______ ____
ROOT
ATOM      1  N   UNL     1      -0.571  11.717  20.201  0.00  0.00    +0.000 N 
ATOM      2  C   UNL     1       0.403  11.913  21.113  0.00  0.00    +0.000 C 
ATOM      3  O   UNL     1       0.659  12.970  21.685  0.00  0.00    +0.000 OA
ATOM      4  N   UNL     1       1.074  10.737  21.313  0.00  0.00    +0.000 N 
ATOM      5  C   UNL     1       0.382   9.606  20.718  0.00  0.00    +0.000 C 
ATOM      6  C   UNL     1      -0.270   8.796  21.839  0.00  0.00    +0.000 C 
ATOM      7  C   UNL     1      -0.669  10.387  19.897  0.00  0.00    +0.000 C 
ATOM      8  O   UNL     1      -1.436   9.888  19.081  0.00  0.00    +0.000 OA
ATOM      9  H   UNL     1       1.902  10.681  21.890  0.00  0.00    +0.000 HD
ENDROOT
BRANCH   5  10
ATOM     10  C   UNL     1       1.236   8.775  19.770  0.00  0.00    +0.000 A 
ATOM     11  C   UNL     1       1.591   9.278  18.498  0.00  0.00    +0.000 A 
ATOM     12  C   UNL     1       2.478   8.589  17.670  0.00  0.00    +0.000 A 
ATOM     13  C   UNL     1       3.017   7.383  18.094  0.00  0.00    +0.000 A 
ATOM     14  C   UNL     1       2.698   6.879  19.356  0.00  0.00    +0.000 A 
ATOM     15  C   UNL     1       1.810   7.562  20.182  0.00  0.00    +0.000 A 
ATOM     16  O   UNL     1       3.226   5.718  19.861  0.00  0.00    +0.000 OA
ATOM     17  C   UNL     1       4.348   5.275  19.090  0.00  0.00    +0.000 C 
ATOM     18  C   UNL     1       4.063   5.389  17.600  0.00  0.00    +0.000 C 
ATOM     19  O   UNL     1       3.870   6.755  17.225  0.00  0.00    +0.000 OA
ENDBRANCH   5  10
BRANCH   1  20
ATOM     20  C   UNL     1      -1.169  12.793  19.436  0.00  0.00    +0.000 C 
BRANCH  20  22
ATOM     21  N   UNL     1      -3.596  12.232  19.363  0.00  0.00    +0.000 N 
ATOM     22  C   UNL     1      -2.613  13.112  19.845  0.00  0.00    +0.000 C 
ATOM     23  O   UNL     1      -2.844  14.050  20.588  0.00  0.00    +0.000 OA
ATOM     24  H   UNL     1      -3.335  11.591  18.614  0.00  0.00    +0.000 HD
BRANCH  21  31
ATOM     25  C   UNL     1      -7.153  13.037  22.678  0.00  0.00    +0.000 C 
ATOM     26  C   UNL     1      -6.774  12.841  21.240  0.00  0.00    +0.000 A 
ATOM     27  C   UNL     1      -7.710  12.906  20.207  0.00  0.00    +0.000 A 
ATOM     28  C   UNL     1      -7.288  12.718  18.885  0.00  0.00    +0.000 A 
ATOM     29  C   UNL     1      -5.929  12.471  18.569  0.00  0.00    +0.000 A 
ATOM     30  C   UNL     1      -5.570  12.325  17.114  0.00  0.00    +0.000 C 
ATOM     31  C   UNL     1      -4.983  12.453  19.601  0.00  0.00    +0.000 A 
ATOM     32  C   UNL     1      -5.423  12.609  20.927  0.00  0.00    +0.000 A 
ENDBRANCH  21  31
ENDBRANCH  20  22
ENDBRANCH   1  20
TORSDOF 4
ENDMDL
