MODEL 1
REMARK VINA RESULT:      -8.0      0.000      0.000
REMARK  Name = 
REMARK  11 active torsions:
REMARK  status: ('A' for Active; 'I' for Inactive)
REMARK    1  A    between atoms: C_1  and  O_2
REMARK    2  A    between atoms: O_2  and  C_3
REMARK    3  A    between atoms: C_6  and  C_7
REMARK    4  A    between atoms: C_7  and  N_8
REMARK    5  A    between atoms: N_11  and  C_12
REMARK    6  A    between atoms: C_12  and  C_13
REMARK    7  A    between atoms: C_13  and  O_14
REMARK    8  A    between atoms: O_14  and  C_15
REMARK    9  A    between atoms: C_15  and  C_16
REMARK   10  A    between atoms: C_15  and  C_22
REMARK   11  A    between atoms: C_31  and  O_32
REMARK                            x       y       z     vdW  Elec       q    Type
REMARK                         _______ _______ _______ _____ _____    ______ ____
ROOT
ATOM      1  N   UNL     1      -1.097  11.941  19.798  0.00  0.00    +0.000 NA
ATOM      2  C   UNL     1      -0.289  12.282  18.609  0.00  0.00    +0.000 C 
ATOM      3  C   UNL     1       1.217  11.938  18.620  0.00  0.00    +0.000 C 
ATOM      4  N   UNL     1       1.610  10.678  19.271  0.00  0.00    +0.000 NA
ATOM      5  C   UNL     1       0.880  10.525  20.540  0.00  0.00    +0.000 C 
ATOM      6  C   UNL     1      -0.645  10.703  20.432  0.00  0.00    +0.000 C 
ENDROOT
BRANCH   1   7
ATOM      7  C   UNL     1      -1.352  13.074  20.716  0.00  0.00    +0.000 C 
BRANCH   7  11
ATOM      8  C   UNL     1      -5.046  12.899  23.014  0.00  0.00    +0.000 A 
ATOM      9  C   UNL     1      -3.814  12.695  23.636  0.00  0.00    +0.000 A 
ATOM     10  C   UNL     1      -2.622  12.698  22.897  0.00  0.00    +0.000 A 
ATOM     11  C   UNL     1      -2.646  12.890  21.504  0.00  0.00    +0.000 A 
ATOM     12  C   UNL     1      -3.912  12.899  20.892  0.00  0.00    +0.000 A 
ATOM     13  C   UNL     1      -5.084  12.960  21.623  0.00  0.00    +0.000 A 
BRANCH   8  15
ATOM     14  C   UNL     1      -7.351  13.409  23.189  0.00  0.00    +0.000 C 
ATOM     15  O   UNL     1      -6.137  13.005  23.831  0.00  0.00    +0.000 OA
ENDBRANCH   8  15
BRANCH  12  16
ATOM     16  O   UNL     1      -4.069  12.879  19.529  0.00  0.00    +0.000 OA
ATOM     17  H   UNL     1      -4.810  13.493  19.337  0.00  0.00    +0.000 HD
ENDBRANCH  12  16
ENDBRANCH   7  11
ENDBRANCH   1   7
BRANCH   4  18
ATOM     18  C   UNL     1       1.468   9.498  18.398  0.00  0.00    +0.000 C 
BRANCH  18  19
ATOM     19  C   UNL     1       1.824   8.196  19.132  0.00  0.00    +0.000 C 
BRANCH  19  20
ATOM     20  O   UNL     1       2.154   7.190  18.178  0.00  0.00    +0.000 OA
BRANCH  20  21
ATOM     21  C   UNL     1       3.085   6.218  18.691  0.00  0.00    +0.000 C 
BRANCH  21  22
ATOM     22  C   UNL     1       3.978   5.783  17.537  0.00  0.00    +0.000 A 
ATOM     23  C   UNL     1       4.296   4.428  17.353  0.00  0.00    +0.000 A 
ATOM     24  C   UNL     1       5.133   4.029  16.310  0.00  0.00    +0.000 A 
ATOM     25  C   UNL     1       5.660   4.986  15.435  0.00  0.00    +0.000 A 
ATOM     26 CL   UNL     1       6.701   4.496  14.158  0.00  0.00    +0.000 Cl
ATOM     27  C   UNL     1       5.351   6.332  15.598  0.00  0.00    +0.000 A 
ATOM     28  C   UNL     1       4.510   6.728  16.637  0.00  0.00    +0.000 A 
ENDBRANCH  21  22
BRANCH  21  29
ATOM     29  C   UNL     1       2.352   5.071  19.372  0.00  0.00    +0.000 A 
ATOM     30  C   UNL     1       2.578   4.774  20.726  0.00  0.00    +0.000 A 
ATOM     31  C   UNL     1       1.976   3.666  21.322  0.00  0.00    +0.000 A 
ATOM     32  C   UNL     1       1.148   2.834  20.573  0.00  0.00    +0.000 A 
ATOM     33  C   UNL     1       0.915   3.110  19.227  0.00  0.00    +0.000 A 
ATOM     34  C   UNL     1       1.511   4.224  18.630  0.00  0.00    +0.000 A 
ENDBRANCH  21  29
ENDBRANCH  20  21
ENDBRANCH  19  20
ENDBRANCH  18  19
ENDBRANCH   4  18
TORSDOF 10
ENDMDL
MODEL 2
REMARK VINA RESULT:      -7.8      4.037     10.362
REMARK  Name = 
REMARK  11 active torsions:
REMARK  status: ('A' for Active; 'I' for Inactive)
REMARK    1  A    between atoms: C_1  and  O_2
REMARK    2  A    between atoms: O_2  and  C_3
REMARK    3  A    between atoms: C_6  and  C_7
REMARK    4  A    between atoms: C_7  and  N_8
REMARK    5  A    between atoms: N_11  and  C_12
REMARK    6  A    between atoms: C_12  and  C_13
REMARK    7  A    between atoms: C_13  and  O_14
REMARK    8  A    between atoms: O_14  and  C_15
REMARK    9  A    between atoms: C_15  and  C_16
REMARK   10  A    between atoms: C_15  and  C_22
REMARK   11  A    between atoms: C_31  and  O_32
REMARK                            x       y       z     vdW  Elec       q    Type
REMARK                         _______ _______ _______ _____ _____    ______ ____
ROOT
ATOM      1  N   UNL     1       2.127   3.967  18.284  0.00  0.00    +0.000 NA
ATOM      2  C   UNL     1       2.064   3.896  19.759  0.00  0.00    +0.000 C 
ATOM      3  C   UNL     1       2.730   5.025  20.579  0.00  0.00    +0.000 C 
ATOM      4  N   UNL     1       2.630   6.390  20.040  0.00  0.00    +0.000 NA
ATOM      5  C   UNL     1       2.892   6.373  18.591  0.00  0.00    +0.000 C 
ATOM      6  C   UNL     1       2.064   5.345  17.798  0.00  0.00    +0.000 C 
ENDROOT
BRANCH   1   7
ATOM      7  C   UNL     1       3.174   3.119  17.671  0.00  0.00    +0.000 C 
BRANCH   7  11
ATOM      8  C   UNL     1       6.616   5.670  16.895  0.00  0.00    +0.000 A 
ATOM      9  C   UNL     1       5.713   5.368  15.875  0.00  0.00    +0.000 A 
ATOM     10  C   UNL     1       4.630   4.506  16.101  0.00  0.00    +0.000 A 
ATOM     11  C   UNL     1       4.440   3.912  17.361  0.00  0.00    +0.000 A 
ATOM     12  C   UNL     1       5.472   4.088  18.300  0.00  0.00    +0.000 A 
ATOM     13  C   UNL     1       6.504   4.985  18.102  0.00  0.00    +0.000 A 
BRANCH   8  15
ATOM     14  C   UNL     1       7.687   7.667  17.582  0.00  0.00    +0.000 C 
ATOM     15  O   UNL     1       7.563   6.616  16.618  0.00  0.00    +0.000 OA
ENDBRANCH   8  15
BRANCH  12  16
ATOM     16  O   UNL     1       5.507   3.403  19.489  0.00  0.00    +0.000 OA
ATOM     17  H   UNL     1       4.629   2.971  19.574  0.00  0.00    +0.000 HD
ENDBRANCH  12  16
ENDBRANCH   7  11
ENDBRANCH   1   7
BRANCH   4  18
ATOM     18  C   UNL     1       1.359   7.060  20.371  0.00  0.00    +0.000 C 
BRANCH  18  19
ATOM     19  C   UNL     1       1.533   8.580  20.517  0.00  0.00    +0.000 C 
BRANCH  19  20
ATOM     20  O   UNL     1       0.851   9.239  19.454  0.00  0.00    +0.000 OA
BRANCH  20  21
ATOM     21  C   UNL     1       0.268  10.493  19.857  0.00  0.00    +0.000 C 
BRANCH  21  22
ATOM     22  C   UNL     1      -1.017  10.681  19.063  0.00  0.00    +0.000 A 
ATOM     23  C   UNL     1      -1.262   9.917  17.911  0.00  0.00    +0.000 A 
ATOM     24  C   UNL     1      -2.428  10.104  17.168  0.00  0.00    +0.000 A 
ATOM     25  C   UNL     1      -3.366  11.060  17.573  0.00  0.00    +0.000 A 
ATOM     26 CL   UNL     1      -4.797  11.299  16.651  0.00  0.00    +0.000 Cl
ATOM     27  C   UNL     1      -3.144  11.822  18.715  0.00  0.00    +0.000 A 
ATOM     28  C   UNL     1      -1.981  11.630  19.459  0.00  0.00    +0.000 A 
ENDBRANCH  21  22
BRANCH  21  29
ATOM     29  C   UNL     1       1.266  11.631  19.695  0.00  0.00    +0.000 A 
ATOM     30  C   UNL     1       1.486  12.551  20.733  0.00  0.00    +0.000 A 
ATOM     31  C   UNL     1       2.330  13.646  20.548  0.00  0.00    +0.000 A 
ATOM     32  C   UNL     1       2.960  13.843  19.322  0.00  0.00    +0.000 A 
ATOM     33  C   UNL     1       2.752  12.943  18.279  0.00  0.00    +0.000 A 
ATOM     34  C   UNL     1       1.912  11.841  18.464  0.00  0.00    +0.000 A 
ENDBRANCH  21  29
ENDBRANCH  20  21
ENDBRANCH  19  20
ENDBRANCH  18  19
ENDBRANCH   4  18
TORSDOF 10
ENDMDL
MODEL 3
REMARK VINA RESULT:      -7.7      1.040      1.496
REMARK  Name = 
REMARK  11 active torsions:
REMARK  status: ('A' for Active; 'I' for Inactive)
REMARK    1  A    between atoms: C_1  and  O_2
REMARK    2  A    between atoms: O_2  and  C_3
REMARK    3  A    between atoms: C_6  and  C_7
REMARK    4  A    between atoms: C_7  and  N_8
REMARK    5  A    between atoms: N_11  and  C_12
REMARK    6  A    between atoms: C_12  and  C_13
REMARK    7  A    between atoms: C_13  and  O_14
REMARK    8  A    between atoms: O_14  and  C_15
REMARK    9  A    between atoms: C_15  and  C_16
REMARK   10  A    between atoms: C_15  and  C_22
REMARK   11  A    between atoms: C_31  and  O_32
REMARK                            x       y       z     vdW  Elec       q    Type
REMARK                         _______ _______ _______ _____ _____    ______ ____
ROOT
ATOM      1  N   UNL     1      -0.317  11.754  20.285  0.00  0.00    +0.000 NA
ATOM      2  C   UNL     1      -0.739  10.459  19.710  0.00  0.00    +0.000 C 
ATOM      3  C   UNL     1      -0.129  10.020  18.360  0.00  0.00    +0.000 C 
ATOM      4  N   UNL     1       1.287  10.345  18.129  0.00  0.00    +0.000 NA
ATOM      5  C   UNL     1       1.559  11.723  18.569  0.00  0.00    +0.000 C 
ATOM      6  C   UNL     1       1.086  12.050  19.997  0.00  0.00    +0.000 C 
ENDROOT
BRANCH   1   7
ATOM      7  C   UNL     1      -1.266  12.867  20.060  0.00  0.00    +0.000 C 
BRANCH   7  11
ATOM      8  C   UNL     1      -4.512  12.533  22.942  0.00  0.00    +0.000 A 
ATOM      9  C   UNL     1      -4.775  12.872  21.614  0.00  0.00    +0.000 A 
ATOM     10  C   UNL     1      -3.732  13.033  20.690  0.00  0.00    +0.000 A 
ATOM     11  C   UNL     1      -2.393  12.872  21.088  0.00  0.00    +0.000 A 
ATOM     12  C   UNL     1      -2.161  12.722  22.467  0.00  0.00    +0.000 A 
ATOM     13  C   UNL     1      -3.186  12.500  23.367  0.00  0.00    +0.000 A 
BRANCH   8  15
ATOM     14  C   UNL     1      -6.516  13.359  23.895  0.00  0.00    +0.000 C 
ATOM     15  O   UNL     1      -5.594  12.275  23.736  0.00  0.00    +0.000 OA
ENDBRANCH   8  15
BRANCH  12  16
ATOM     16  O   UNL     1      -0.900  12.754  23.007  0.00  0.00    +0.000 OA
ATOM     17  H   UNL     1      -1.027  12.815  23.978  0.00  0.00    +0.000 HD
ENDBRANCH  12  16
ENDBRANCH   7  11
ENDBRANCH   1   7
BRANCH   4  18
ATOM     18  C   UNL     1       2.217   9.372  18.731  0.00  0.00    +0.000 C 
BRANCH  18  19
ATOM     19  C   UNL     1       1.521   8.043  19.063  0.00  0.00    +0.000 C 
BRANCH  19  20
ATOM     20  O   UNL     1       1.963   7.037  18.156  0.00  0.00    +0.000 OA
BRANCH  20  21
ATOM     21  C   UNL     1       2.947   6.158  18.733  0.00  0.00    +0.000 C 
BRANCH  21  22
ATOM     22  C   UNL     1       3.879   5.713  17.615  0.00  0.00    +0.000 A 
ATOM     23  C   UNL     1       4.135   4.350  17.398  0.00  0.00    +0.000 A 
ATOM     24  C   UNL     1       5.007   3.940  16.389  0.00  0.00    +0.000 A 
ATOM     25  C   UNL     1       5.635   4.896  15.582  0.00  0.00    +0.000 A 
ATOM     26 CL   UNL     1       6.720   4.393  14.347  0.00  0.00    +0.000 Cl
ATOM     27  C   UNL     1       5.390   6.251  15.777  0.00  0.00    +0.000 A 
ATOM     28  C   UNL     1       4.513   6.657  16.782  0.00  0.00    +0.000 A 
ENDBRANCH  21  22
BRANCH  21  29
ATOM     29  C   UNL     1       2.278   5.007  19.473  0.00  0.00    +0.000 A 
ATOM     30  C   UNL     1       2.571   4.752  20.823  0.00  0.00    +0.000 A 
ATOM     31  C   UNL     1       2.028   3.642  21.471  0.00  0.00    +0.000 A 
ATOM     32  C   UNL     1       1.193   2.769  20.781  0.00  0.00    +0.000 A 
ATOM     33  C   UNL     1       0.894   3.004  19.440  0.00  0.00    +0.000 A 
ATOM     34  C   UNL     1       1.430   4.119  18.790  0.00  0.00    +0.000 A 
ENDBRANCH  21  29
ENDBRANCH  20  21
ENDBRANCH  19  20
ENDBRANCH  18  19
ENDBRANCH   4  18
TORSDOF 10
ENDMDL
MODEL 4
REMARK VINA RESULT:      -7.6      1.761      2.280
REMARK  Name = 
REMARK  11 active torsions:
REMARK  status: ('A' for Active; 'I' for Inactive)
REMARK    1  A    between atoms: C_1  and  O_2
REMARK    2  A    between atoms: O_2  and  C_3
REMARK    3  A    between atoms: C_6  and  C_7
REMARK    4  A    between atoms: C_7  and  N_8
REMARK    5  A    between atoms: N_11  and  C_12
REMARK    6  A    between atoms: C_12  and  C_13
REMARK    7  A    between atoms: C_13  and  O_14
REMARK    8  A    between atoms: O_14  and  C_15
REMARK    9  A    between atoms: C_15  and  C_16
REMARK   10  A    between atoms: C_15  and  C_22
REMARK   11  A    between atoms: C_31  and  O_32
REMARK                            x       y       z     vdW  Elec       q    Type
REMARK                         _______ _______ _______ _____ _____    ______ ____
ROOT
ATOM      1  N   UNL     1       0.226  11.152  21.655  0.00  0.00    +0.000 NA
ATOM      2  C   UNL     1       1.189  10.031  21.646  0.00  0.00    +0.000 C 
ATOM      3  C   UNL     1       0.890   8.813  20.744  0.00  0.00    +0.000 C 
ATOM      4  N   UNL     1       0.274   9.084  19.436  0.00  0.00    +0.000 NA
ATOM      5  C   UNL     1      -0.798  10.082  19.588  0.00  0.00    +0.000 C 
ATOM      6  C   UNL     1      -0.388  11.359  20.344  0.00  0.00    +0.000 C 
ENDROOT
BRANCH   1   7
ATOM      7  C   UNL     1      -0.706  11.156  22.805  0.00  0.00    +0.000 C 
BRANCH   7  11
ATOM      8  C   UNL     1      -3.088  14.766  23.302  0.00  0.00    +0.000 A 
ATOM      9  C   UNL     1      -3.706  13.529  23.117  0.00  0.00    +0.000 A 
ATOM     10  C   UNL     1      -2.948  12.368  22.904  0.00  0.00    +0.000 A 
ATOM     11  C   UNL     1      -1.544  12.430  22.856  0.00  0.00    +0.000 A 
ATOM     12  C   UNL     1      -0.972  13.714  22.855  0.00  0.00    +0.000 A 
ATOM     13  C   UNL     1      -1.709  14.851  23.127  0.00  0.00    +0.000 A 
BRANCH   8  15
ATOM     14  C   UNL     1      -3.230  16.994  24.091  0.00  0.00    +0.000 C 
ATOM     15  O   UNL     1      -3.900  15.816  23.628  0.00  0.00    +0.000 OA
ENDBRANCH   8  15
BRANCH  12  16
ATOM     16  O   UNL     1       0.364  13.922  22.613  0.00  0.00    +0.000 OA
ATOM     17  H   UNL     1       0.800  13.057  22.770  0.00  0.00    +0.000 HD
ENDBRANCH  12  16
ENDBRANCH   7  11
ENDBRANCH   1   7
BRANCH   4  18
ATOM     18  C   UNL     1       1.249   9.465  18.397  0.00  0.00    +0.000 C 
BRANCH  18  19
ATOM     19  C   UNL     1       2.519   8.603  18.459  0.00  0.00    +0.000 C 
BRANCH  19  20
ATOM     20  O   UNL     1       2.222   7.287  18.001  0.00  0.00    +0.000 OA
BRANCH  20  21
ATOM     21  C   UNL     1       3.115   6.294  18.538  0.00  0.00    +0.000 C 
BRANCH  21  22
ATOM     22  C   UNL     1       4.004   5.810  17.400  0.00  0.00    +0.000 A 
ATOM     23  C   UNL     1       4.293   4.444  17.252  0.00  0.00    +0.000 A 
ATOM     24  C   UNL     1       5.126   4.001  16.225  0.00  0.00    +0.000 A 
ATOM     25  C   UNL     1       5.680   4.924  15.330  0.00  0.00    +0.000 A 
ATOM     26 CL   UNL     1       6.716   4.379  14.071  0.00  0.00    +0.000 Cl
ATOM     27  C   UNL     1       5.399   6.280  15.457  0.00  0.00    +0.000 A 
ATOM     28  C   UNL     1       4.562   6.720  16.481  0.00  0.00    +0.000 A 
ENDBRANCH  21  22
BRANCH  21  29
ATOM     29  C   UNL     1       2.337   5.182  19.229  0.00  0.00    +0.000 A 
ATOM     30  C   UNL     1       2.490   4.942  20.605  0.00  0.00    +0.000 A 
ATOM     31  C   UNL     1       1.848   3.865  21.215  0.00  0.00    +0.000 A 
ATOM     32  C   UNL     1       1.050   3.009  20.461  0.00  0.00    +0.000 A 
ATOM     33  C   UNL     1       0.888   3.229  19.095  0.00  0.00    +0.000 A 
ATOM     34  C   UNL     1       1.525   4.311  18.482  0.00  0.00    +0.000 A 
ENDBRANCH  21  29
ENDBRANCH  20  21
ENDBRANCH  19  20
ENDBRANCH  18  19
ENDBRANCH   4  18
TORSDOF 10
ENDMDL
MODEL 5
REMARK VINA RESULT:      -7.6      0.825      1.088
REMARK  Name = 
REMARK  11 active torsions:
REMARK  status: ('A' for Active; 'I' for Inactive)
REMARK    1  A    between atoms: C_1  and  O_2
REMARK    2  A    between atoms: O_2  and  C_3
REMARK    3  A    between atoms: C_6  and  C_7
REMARK    4  A    between atoms: C_7  and  N_8
REMARK    5  A    between atoms: N_11  and  C_12
REMARK    6  A    between atoms: C_12  and  C_13
REMARK    7  A    between atoms: C_13  and  O_14
REMARK    8  A    between atoms: O_14  and  C_15
REMARK    9  A    between atoms: C_15  and  C_16
REMARK   10  A    between atoms: C_15  and  C_22
REMARK   11  A    between atoms: C_31  and  O_32
REMARK                            x       y       z     vdW  Elec       q    Type
REMARK                         _______ _______ _______ _____ _____    ______ ____
ROOT
ATOM      1  N   UNL     1      -1.490  11.408  20.422  0.00  0.00    +0.000 NA
ATOM      2  C   UNL     1      -1.166  11.234  18.991  0.00  0.00    +0.000 C 
ATOM      3  C   UNL     1       0.321  11.222  18.569  0.00  0.00    +0.000 C 
ATOM      4  N   UNL     1       1.269  10.565  19.482  0.00  0.00    +0.000 NA
ATOM      5  C   UNL     1       0.971  10.952  20.871  0.00  0.00    +0.000 C 
ATOM      6  C   UNL     1      -0.499  10.772  21.290  0.00  0.00    +0.000 C 
ENDROOT
BRANCH   1   7
ATOM      7  C   UNL     1      -1.884  12.783  20.801  0.00  0.00    +0.000 C 
BRANCH   7  11
ATOM      8  C   UNL     1      -5.617  13.199  23.004  0.00  0.00    +0.000 A 
ATOM      9  C   UNL     1      -4.451  12.796  23.655  0.00  0.00    +0.000 A 
ATOM     10  C   UNL     1      -3.255  12.609  22.946  0.00  0.00    +0.000 A 
ATOM     11  C   UNL     1      -3.211  12.808  21.554  0.00  0.00    +0.000 A 
ATOM     12  C   UNL     1      -4.443  13.025  20.912  0.00  0.00    +0.000 A 
ATOM     13  C   UNL     1      -5.608  13.271  21.613  0.00  0.00    +0.000 A 
BRANCH   8  15
ATOM     14  C   UNL     1      -7.879  12.719  23.513  0.00  0.00    +0.000 C 
ATOM     15  O   UNL     1      -6.697  13.477  23.794  0.00  0.00    +0.000 OA
ENDBRANCH   8  15
BRANCH  12  16
ATOM     16  O   UNL     1      -4.565  13.035  19.545  0.00  0.00    +0.000 OA
ATOM     17  H   UNL     1      -5.337  13.610  19.351  0.00  0.00    +0.000 HD
ENDBRANCH  12  16
ENDBRANCH   7  11
ENDBRANCH   1   7
BRANCH   4  18
ATOM     18  C   UNL     1       1.331   9.102  19.311  0.00  0.00    +0.000 C 
BRANCH  18  19
ATOM     19  C   UNL     1       2.373   8.691  18.259  0.00  0.00    +0.000 C 
BRANCH  19  20
ATOM     20  O   UNL     1       2.172   7.326  17.901  0.00  0.00    +0.000 OA
BRANCH  20  21
ATOM     21  C   UNL     1       3.018   6.425  18.641  0.00  0.00    +0.000 C 
BRANCH  21  22
ATOM     22  C   UNL     1       4.193   6.057  17.746  0.00  0.00    +0.000 A 
ATOM     23  C   UNL     1       4.272   6.548  16.433  0.00  0.00    +0.000 A 
ATOM     24  C   UNL     1       5.336   6.193  15.603  0.00  0.00    +0.000 A 
ATOM     25  C   UNL     1       6.337   5.339  16.081  0.00  0.00    +0.000 A 
ATOM     26 CL   UNL     1       7.641   4.891  15.055  0.00  0.00    +0.000 Cl
ATOM     27  C   UNL     1       6.278   4.847  17.381  0.00  0.00    +0.000 A 
ATOM     28  C   UNL     1       5.218   5.208  18.210  0.00  0.00    +0.000 A 
ENDBRANCH  21  22
BRANCH  21  29
ATOM     29  C   UNL     1       2.224   5.227  19.142  0.00  0.00    +0.000 A 
ATOM     30  C   UNL     1       2.027   5.016  20.517  0.00  0.00    +0.000 A 
ATOM     31  C   UNL     1       1.381   3.869  20.976  0.00  0.00    +0.000 A 
ATOM     32  C   UNL     1       0.929   2.912  20.072  0.00  0.00    +0.000 A 
ATOM     33  C   UNL     1       1.118   3.102  18.704  0.00  0.00    +0.000 A 
ATOM     34  C   UNL     1       1.759   4.254  18.241  0.00  0.00    +0.000 A 
ENDBRANCH  21  29
ENDBRANCH  20  21
ENDBRANCH  19  20
ENDBRANCH  18  19
ENDBRANCH   4  18
TORSDOF 10
ENDMDL
MODEL 6
REMARK VINA RESULT:      -7.5      1.308      1.721
REMARK  Name = 
REMARK  11 active torsions:
REMARK  status: ('A' for Active; 'I' for Inactive)
REMARK    1  A    between atoms: C_1  and  O_2
REMARK    2  A    between atoms: O_2  and  C_3
REMARK    3  A    between atoms: C_6  and  C_7
REMARK    4  A    between atoms: C_7  and  N_8
REMARK    5  A    between atoms: N_11  and  C_12
REMARK    6  A    between atoms: C_12  and  C_13
REMARK    7  A    between atoms: C_13  and  O_14
REMARK    8  A    between atoms: O_14  and  C_15
REMARK    9  A    between atoms: C_15  and  C_16
REMARK   10  A    between atoms: C_15  and  C_22
REMARK   11  A    between atoms: C_31  and  O_32
REMARK                            x       y       z     vdW  Elec       q    Type
REMARK                         _______ _______ _______ _____ _____    ______ ____
ROOT
ATOM      1  N   UNL     1      -0.324  11.414  21.002  0.00  0.00    +0.000 NA
ATOM      2  C   UNL     1      -1.148  11.298  19.781  0.00  0.00    +0.000 C 
ATOM      3  C   UNL     1      -0.438  11.323  18.409  0.00  0.00    +0.000 C 
ATOM      4  N   UNL     1       0.864  10.645  18.318  0.00  0.00    +0.000 NA
ATOM      5  C   UNL     1       1.680  10.976  19.499  0.00  0.00    +0.000 C 
ATOM      6  C   UNL     1       0.975  10.760  20.850  0.00  0.00    +0.000 C 
ENDROOT
BRANCH   1   7
ATOM      7  C   UNL     1      -0.292  12.768  21.598  0.00  0.00    +0.000 C 
BRANCH   7  11
ATOM      8  C   UNL     1      -4.069  13.538  23.623  0.00  0.00    +0.000 A 
ATOM      9  C   UNL     1      -3.348  14.584  23.046  0.00  0.00    +0.000 A 
ATOM     10  C   UNL     1      -2.106  14.355  22.437  0.00  0.00    +0.000 A 
ATOM     11  C   UNL     1      -1.551  13.063  22.410  0.00  0.00    +0.000 A 
ATOM     12  C   UNL     1      -2.213  12.079  23.164  0.00  0.00    +0.000 A 
ATOM     13  C   UNL     1      -3.465  12.286  23.711  0.00  0.00    +0.000 A 
BRANCH   8  15
ATOM     14  C   UNL     1      -6.177  14.505  23.144  0.00  0.00    +0.000 C 
ATOM     15  O   UNL     1      -5.324  13.834  24.079  0.00  0.00    +0.000 OA
ENDBRANCH   8  15
BRANCH  12  16
ATOM     16  O   UNL     1      -1.673  10.836  23.385  0.00  0.00    +0.000 OA
ATOM     17  H   UNL     1      -1.780  10.666  24.345  0.00  0.00    +0.000 HD
ENDBRANCH  12  16
ENDBRANCH   7  11
ENDBRANCH   1   7
BRANCH   4  18
ATOM     18  C   UNL     1       0.755   9.190  18.104  0.00  0.00    +0.000 C 
BRANCH  18  19
ATOM     19  C   UNL     1       2.076   8.466  18.405  0.00  0.00    +0.000 C 
BRANCH  19  20
ATOM     20  O   UNL     1       1.996   7.121  17.941  0.00  0.00    +0.000 OA
BRANCH  20  21
ATOM     21  C   UNL     1       2.964   6.256  18.564  0.00  0.00    +0.000 C 
BRANCH  21  22
ATOM     22  C   UNL     1       3.931   5.793  17.484  0.00  0.00    +0.000 A 
ATOM     23  C   UNL     1       4.597   6.727  16.674  0.00  0.00    +0.000 A 
ATOM     24  C   UNL     1       5.466   6.304  15.667  0.00  0.00    +0.000 A 
ATOM     25  C   UNL     1       5.679   4.936  15.461  0.00  0.00    +0.000 A 
ATOM     26 CL   UNL     1       6.740   4.415  14.212  0.00  0.00    +0.000 Cl
ATOM     27  C   UNL     1       5.033   3.997  16.257  0.00  0.00    +0.000 A 
ATOM     28  C   UNL     1       4.170   4.421  17.265  0.00  0.00    +0.000 A 
ENDBRANCH  21  22
BRANCH  21  29
ATOM     29  C   UNL     1       2.276   5.118  19.306  0.00  0.00    +0.000 A 
ATOM     30  C   UNL     1       2.529   4.888  20.668  0.00  0.00    +0.000 A 
ATOM     31  C   UNL     1       1.970   3.789  21.321  0.00  0.00    +0.000 A 
ATOM     32  C   UNL     1       1.158   2.901  20.622  0.00  0.00    +0.000 A 
ATOM     33  C   UNL     1       0.898   3.111  19.269  0.00  0.00    +0.000 A 
ATOM     34  C   UNL     1       1.451   4.214  18.614  0.00  0.00    +0.000 A 
ENDBRANCH  21  29
ENDBRANCH  20  21
ENDBRANCH  19  20
ENDBRANCH  18  19
ENDBRANCH   4  18
TORSDOF 10
ENDMDL
MODEL 7
REMARK VINA RESULT:      -7.5      1.856      2.562
REMARK  Name = 
REMARK  11 active torsions:
REMARK  status: ('A' for Active; 'I' for Inactive)
REMARK    1  A    between atoms: C_1  and  O_2
REMARK    2  A    between atoms: O_2  and  C_3
REMARK    3  A    between atoms: C_6  and  C_7
REMARK    4  A    between atoms: C_7  and  N_8
REMARK    5  A    between atoms: N_11  and  C_12
REMARK    6  A    between atoms: C_12  and  C_13
REMARK    7  A    between atoms: C_13  and  O_14
REMARK    8  A    between atoms: O_14  and  C_15
REMARK    9  A    between atoms: C_15  and  C_16
REMARK   10  A    between atoms: C_15  and  C_22
REMARK   11  A    between atoms: C_31  and  O_32
REMARK                            x       y       z     vdW  Elec       q    Type
REMARK                         _______ _______ _______ _____ _____    ______ ____
ROOT
ATOM      1  N   UNL     1      -0.540  12.626  20.234  0.00  0.00    +0.000 NA
ATOM      2  C   UNL     1       0.101  11.884  21.339  0.00  0.00    +0.000 C 
ATOM      3  C   UNL     1      -0.075  10.349  21.394  0.00  0.00    +0.000 C 
ATOM      4  N   UNL     1      -0.076   9.631  20.110  0.00  0.00    +0.000 NA
ATOM      5  C   UNL     1      -0.895  10.363  19.131  0.00  0.00    +0.000 C 
ATOM      6  C   UNL     1      -0.551  11.857  18.990  0.00  0.00    +0.000 C 
ENDROOT
BRANCH   1   7
ATOM      7  C   UNL     1      -1.818  13.283  20.592  0.00  0.00    +0.000 C 
BRANCH   7  11
ATOM      8  C   UNL     1      -2.084  14.860  24.641  0.00  0.00    +0.000 A 
ATOM      9  C   UNL     1      -1.058  15.268  23.788  0.00  0.00    +0.000 A 
ATOM     10  C   UNL     1      -0.932  14.727  22.500  0.00  0.00    +0.000 A 
ATOM     11  C   UNL     1      -1.832  13.746  22.046  0.00  0.00    +0.000 A 
ATOM     12  C   UNL     1      -2.728  13.228  22.997  0.00  0.00    +0.000 A 
ATOM     13  C   UNL     1      -2.895  13.801  24.243  0.00  0.00    +0.000 A 
BRANCH   8  15
ATOM     14  C   UNL     1      -0.970  15.986  26.402  0.00  0.00    +0.000 C 
ATOM     15  O   UNL     1      -2.201  15.533  25.826  0.00  0.00    +0.000 OA
ENDBRANCH   8  15
BRANCH  12  16
ATOM     16  O   UNL     1      -3.519  12.135  22.741  0.00  0.00    +0.000 OA
ATOM     17  H   UNL     1      -3.759  12.197  21.791  0.00  0.00    +0.000 HD
ENDBRANCH  12  16
ENDBRANCH   7  11
ENDBRANCH   1   7
BRANCH   4  18
ATOM     18  C   UNL     1       1.277   9.339  19.600  0.00  0.00    +0.000 C 
BRANCH  18  19
ATOM     19  C   UNL     1       1.756   7.939  20.014  0.00  0.00    +0.000 C 
BRANCH  19  20
ATOM     20  O   UNL     1       2.490   7.353  18.942  0.00  0.00    +0.000 OA
BRANCH  20  21
ATOM     21  C   UNL     1       3.279   6.223  19.357  0.00  0.00    +0.000 C 
BRANCH  21  22
ATOM     22  C   UNL     1       4.285   5.932  18.252  0.00  0.00    +0.000 A 
ATOM     23  C   UNL     1       4.230   6.631  17.036  0.00  0.00    +0.000 A 
ATOM     24  C   UNL     1       5.136   6.350  16.012  0.00  0.00    +0.000 A 
ATOM     25  C   UNL     1       6.111   5.363  16.197  0.00  0.00    +0.000 A 
ATOM     26 CL   UNL     1       7.220   5.007  14.932  0.00  0.00    +0.000 Cl
ATOM     27  C   UNL     1       6.184   4.664  17.397  0.00  0.00    +0.000 A 
ATOM     28  C   UNL     1       5.282   4.950  18.420  0.00  0.00    +0.000 A 
ENDBRANCH  21  22
BRANCH  21  29
ATOM     29  C   UNL     1       2.388   5.039  19.708  0.00  0.00    +0.000 A 
ATOM     30  C   UNL     1       2.317   4.555  21.025  0.00  0.00    +0.000 A 
ATOM     31  C   UNL     1       1.573   3.414  21.324  0.00  0.00    +0.000 A 
ATOM     32  C   UNL     1       0.896   2.736  20.315  0.00  0.00    +0.000 A 
ATOM     33  C   UNL     1       0.958   3.199  19.002  0.00  0.00    +0.000 A 
ATOM     34  C   UNL     1       1.697   4.346  18.699  0.00  0.00    +0.000 A 
ENDBRANCH  21  29
ENDBRANCH  20  21
ENDBRANCH  19  20
ENDBRANCH  18  19
ENDBRANCH   4  18
TORSDOF 10
ENDMDL
MODEL 8
REMARK VINA RESULT:      -7.5      2.070      3.908
REMARK  Name = 
REMARK  11 active torsions:
REMARK  status: ('A' for Active; 'I' for Inactive)
REMARK    1  A    between atoms: C_1  and  O_2
REMARK    2  A    between atoms: O_2  and  C_3
REMARK    3  A    between atoms: C_6  and  C_7
REMARK    4  A    between atoms: C_7  and  N_8
REMARK    5  A    between atoms: N_11  and  C_12
REMARK    6  A    between atoms: C_12  and  C_13
REMARK    7  A    between atoms: C_13  and  O_14
REMARK    8  A    between atoms: O_14  and  C_15
REMARK    9  A    between atoms: C_15  and  C_16
REMARK   10  A    between atoms: C_15  and  C_22
REMARK   11  A    between atoms: C_31  and  O_32
REMARK                            x       y       z     vdW  Elec       q    Type
REMARK                         _______ _______ _______ _____ _____    ______ ____
ROOT
ATOM      1  N   UNL     1       0.729  12.063  21.269  0.00  0.00    +0.000 NA
ATOM      2  C   UNL     1       0.006  10.793  21.490  0.00  0.00    +0.000 C 
ATOM      3  C   UNL     1      -0.431   9.971  20.256  0.00  0.00    +0.000 C 
ATOM      4  N   UNL     1       0.492   9.944  19.111  0.00  0.00    +0.000 NA
ATOM      5  C   UNL     1       1.015  11.297  18.861  0.00  0.00    +0.000 C 
ATOM      6  C   UNL     1       1.603  11.999  20.098  0.00  0.00    +0.000 C 
ENDROOT
BRANCH   1   7
ATOM      7  C   UNL     1      -0.111  13.277  21.376  0.00  0.00    +0.000 C 
BRANCH   7  11
ATOM      8  C   UNL     1      -4.342  12.649  22.190  0.00  0.00    +0.000 A 
ATOM      9  C   UNL     1      -3.396  12.515  23.208  0.00  0.00    +0.000 A 
ATOM     10  C   UNL     1      -2.027  12.664  22.945  0.00  0.00    +0.000 A 
ATOM     11  C   UNL     1      -1.574  12.936  21.642  0.00  0.00    +0.000 A 
ATOM     12  C   UNL     1      -2.535  12.874  20.618  0.00  0.00    +0.000 A 
ATOM     13  C   UNL     1      -3.890  12.790  20.881  0.00  0.00    +0.000 A 
BRANCH   8  15
ATOM     14  C   UNL     1      -6.571  12.165  21.558  0.00  0.00    +0.000 C 
ATOM     15  O   UNL     1      -5.656  12.612  22.564  0.00  0.00    +0.000 OA
ENDBRANCH   8  15
BRANCH  12  16
ATOM     16  O   UNL     1      -2.196  12.921  19.288  0.00  0.00    +0.000 OA
ATOM     17  H   UNL     1      -2.934  13.388  18.842  0.00  0.00    +0.000 HD
ENDBRANCH  12  16
ENDBRANCH   7  11
ENDBRANCH   1   7
BRANCH   4  18
ATOM     18  C   UNL     1       1.568   8.945  19.248  0.00  0.00    +0.000 C 
BRANCH  18  19
ATOM     19  C   UNL     1       2.099   8.483  17.882  0.00  0.00    +0.000 C 
BRANCH  19  20
ATOM     20  O   UNL     1       3.333   7.793  18.063  0.00  0.00    +0.000 OA
BRANCH  20  21
ATOM     21  C   UNL     1       3.316   6.464  17.507  0.00  0.00    +0.000 C 
BRANCH  21  22
ATOM     22  C   UNL     1       2.719   5.535  18.554  0.00  0.00    +0.000 A 
ATOM     23  C   UNL     1       3.018   5.706  19.914  0.00  0.00    +0.000 A 
ATOM     24  C   UNL     1       2.491   4.840  20.874  0.00  0.00    +0.000 A 
ATOM     25  C   UNL     1       1.653   3.791  20.479  0.00  0.00    +0.000 A 
ATOM     26 CL   UNL     1       1.013   2.717  21.659  0.00  0.00    +0.000 Cl
ATOM     27  C   UNL     1       1.340   3.609  19.136  0.00  0.00    +0.000 A 
ATOM     28  C   UNL     1       1.864   4.478  18.180  0.00  0.00    +0.000 A 
ENDBRANCH  21  22
BRANCH  21  29
ATOM     29  C   UNL     1       4.706   6.055  17.039  0.00  0.00    +0.000 A 
ATOM     30  C   UNL     1       5.834   6.282  17.844  0.00  0.00    +0.000 A 
ATOM     31  C   UNL     1       7.114   5.991  17.373  0.00  0.00    +0.000 A 
ATOM     32  C   UNL     1       7.288   5.478  16.091  0.00  0.00    +0.000 A 
ATOM     33  C   UNL     1       6.181   5.250  15.276  0.00  0.00    +0.000 A 
ATOM     34  C   UNL     1       4.896   5.533  15.747  0.00  0.00    +0.000 A 
ENDBRANCH  21  29
ENDBRANCH  20  21
ENDBRANCH  19  20
ENDBRANCH  18  19
ENDBRANCH   4  18
TORSDOF 10
ENDMDL
MODEL 9
REMARK VINA RESULT:      -7.4      3.012      9.683
REMARK  Name = 
REMARK  11 active torsions:
REMARK  status: ('A' for Active; 'I' for Inactive)
REMARK    1  A    between atoms: C_1  and  O_2
REMARK    2  A    between atoms: O_2  and  C_3
REMARK    3  A    between atoms: C_6  and  C_7
REMARK    4  A    between atoms: C_7  and  N_8
REMARK    5  A    between atoms: N_11  and  C_12
REMARK    6  A    between atoms: C_12  and  C_13
REMARK    7  A    between atoms: C_13  and  O_14
REMARK    8  A    between atoms: O_14  and  C_15
REMARK    9  A    between atoms: C_15  and  C_16
REMARK   10  A    between atoms: C_15  and  C_22
REMARK   11  A    between atoms: C_31  and  O_32
REMARK                            x       y       z     vdW  Elec       q    Type
REMARK                         _______ _______ _______ _____ _____    ______ ____
ROOT
ATOM      1  N   UNL     1       0.572   8.733  20.838  0.00  0.00    +0.000 NA
ATOM      2  C   UNL     1      -0.282   8.715  22.043  0.00  0.00    +0.000 C 
ATOM      3  C   UNL     1      -0.326   9.979  22.932  0.00  0.00    +0.000 C 
ATOM      4  N   UNL     1      -0.282  11.280  22.247  0.00  0.00    +0.000 NA
ATOM      5  C   UNL     1       0.732  11.247  21.181  0.00  0.00    +0.000 C 
ATOM      6  C   UNL     1       0.614  10.055  20.214  0.00  0.00    +0.000 C 
ENDROOT
BRANCH   1   7
ATOM      7  C   UNL     1       1.880   8.060  20.999  0.00  0.00    +0.000 C 
BRANCH   7  11
ATOM      8  C   UNL     1       1.876   4.574  18.391  0.00  0.00    +0.000 A 
ATOM      9  C   UNL     1       1.655   4.434  19.762  0.00  0.00    +0.000 A 
ATOM     10  C   UNL     1       1.705   5.543  20.618  0.00  0.00    +0.000 A 
ATOM     11  C   UNL     1       1.998   6.823  20.114  0.00  0.00    +0.000 A 
ATOM     12  C   UNL     1       2.401   6.890  18.768  0.00  0.00    +0.000 A 
ATOM     13  C   UNL     1       2.291   5.813  17.910  0.00  0.00    +0.000 A 
BRANCH   8  15
ATOM     14  C   UNL     1       1.939   2.210  18.268  0.00  0.00    +0.000 C 
ATOM     15  O   UNL     1       1.681   3.461  17.621  0.00  0.00    +0.000 OA
ENDBRANCH   8  15
BRANCH  12  16
ATOM     16  O   UNL     1       2.903   8.039  18.209  0.00  0.00    +0.000 OA
ATOM     17  H   UNL     1       2.453   8.132  17.342  0.00  0.00    +0.000 HD
ENDBRANCH  12  16
ENDBRANCH   7  11
ENDBRANCH   1   7
BRANCH   4  18
ATOM     18  C   UNL     1      -1.598  11.726  21.753  0.00  0.00    +0.000 C 
BRANCH  18  19
ATOM     19  C   UNL     1      -1.574  13.197  21.308  0.00  0.00    +0.000 C 
BRANCH  19  20
ATOM     20  O   UNL     1      -2.387  13.355  20.148  0.00  0.00    +0.000 OA
BRANCH  20  21
ATOM     21  C   UNL     1      -3.419  12.356  20.050  0.00  0.00    +0.000 C 
BRANCH  21  22
ATOM     22  C   UNL     1      -3.362  11.772  18.645  0.00  0.00    +0.000 A 
ATOM     23  C   UNL     1      -4.460  11.888  17.779  0.00  0.00    +0.000 A 
ATOM     24  C   UNL     1      -4.419  11.333  16.499  0.00  0.00    +0.000 A 
ATOM     25  C   UNL     1      -3.273  10.654  16.071  0.00  0.00    +0.000 A 
ATOM     26 CL   UNL     1      -3.226   9.959  14.500  0.00  0.00    +0.000 Cl
ATOM     27  C   UNL     1      -2.173  10.533  16.914  0.00  0.00    +0.000 A 
ATOM     28  C   UNL     1      -2.214  11.093  18.189  0.00  0.00    +0.000 A 
ENDBRANCH  21  22
BRANCH  21  29
ATOM     29  C   UNL     1      -4.776  12.940  20.421  0.00  0.00    +0.000 A 
ATOM     30  C   UNL     1      -4.982  14.329  20.442  0.00  0.00    +0.000 A 
ATOM     31  C   UNL     1      -6.196  14.862  20.872  0.00  0.00    +0.000 A 
ATOM     32  C   UNL     1      -7.220  14.019  21.295  0.00  0.00    +0.000 A 
ATOM     33  C   UNL     1      -7.033  12.638  21.284  0.00  0.00    +0.000 A 
ATOM     34  C   UNL     1      -5.819  12.100  20.847  0.00  0.00    +0.000 A 
ENDBRANCH  21  29
ENDBRANCH  20  21
ENDBRANCH  19  20
ENDBRANCH  18  19
ENDBRANCH   4  18
TORSDOF 10
ENDMDL
