MODEL 1
REMARK VINA RESULT:      -6.9      0.000      0.000
REMARK  Name = 
REMARK  5 active torsions:
REMARK  status: ('A' for Active; 'I' for Inactive)
REMARK    1  A    between atoms: C_2  and  C_4
REMARK    2  A    between atoms: N_7  and  C_8
REMARK    3  A    between atoms: C_8  and  C_9
REMARK    4  A    between atoms: C_9  and  O_10
REMARK    5  A    between atoms: O_10  and  C_11
REMARK                            x       y       z     vdW  Elec       q    Type
REMARK                         _______ _______ _______ _____ _____    ______ ____
ROOT
ATOM      1  C   UNL     1       7.023   4.387  16.389  0.00  0.00    +0.000 C 
ATOM      2  C   UNL     1       5.659   3.860  16.827  0.00  0.00    +0.000 C 
ATOM      3  C   UNL     1       4.587   4.942  16.711  0.00  0.00    +0.000 C 
ATOM      4  N   UNL     1       4.920   6.139  17.502  0.00  0.00    +0.000 NA
ATOM      5  C   UNL     1       6.232   6.689  17.126  0.00  0.00    +0.000 C 
ATOM      6  C   UNL     1       7.347   5.643  17.206  0.00  0.00    +0.000 C 
ENDROOT
BRANCH   1   8
ATOM      7  N   UNL     1       6.412   3.685  14.121  0.00  0.00    +0.000 N 
ATOM      8  C   UNL     1       7.051   4.617  14.879  0.00  0.00    +0.000 C 
ATOM      9  O   UNL     1       7.567   5.589  14.330  0.00  0.00    +0.000 OA
ATOM     10  H   UNL     1       6.345   3.895  13.133  0.00  0.00    +0.000 HD
ATOM     11  H   UNL     1       5.720   3.064  14.518  0.00  0.00    +0.000 HD
ENDBRANCH   1   8
BRANCH   4  12
ATOM     12  C   UNL     1       3.877   7.185  17.348  0.00  0.00    +0.000 C 
BRANCH  12  13
ATOM     13  C   UNL     1       2.813   7.133  18.454  0.00  0.00    +0.000 C 
BRANCH  13  14
ATOM     14  O   UNL     1       1.875   6.080  18.216  0.00  0.00    +0.000 OA
BRANCH  14  15
ATOM     15  C   UNL     1       1.858   5.100  19.178  0.00  0.00    +0.000 A 
ATOM     16  C   UNL     1       2.316   5.242  20.495  0.00  0.00    +0.000 A 
ATOM     17  C   UNL     1       2.233   4.176  21.390  0.00  0.00    +0.000 A 
ATOM     18  C   UNL     1       1.694   2.969  20.968  0.00  0.00    +0.000 A 
ATOM     19  F   UNL     1       1.605   1.949  21.832  0.00  0.00    +0.000 F 
ATOM     20  C   UNL     1       1.241   2.806  19.665  0.00  0.00    +0.000 A 
ATOM     21  C   UNL     1       1.328   3.873  18.768  0.00  0.00    +0.000 A 
ENDBRANCH  14  15
ENDBRANCH  13  14
ENDBRANCH  12  13
ENDBRANCH   4  12
TORSDOF 5
ENDMDL
MODEL 2
REMARK VINA RESULT:      -6.8      0.766      1.343
REMARK  Name = 
REMARK  5 active torsions:
REMARK  status: ('A' for Active; 'I' for Inactive)
REMARK    1  A    between atoms: C_2  and  C_4
REMARK    2  A    between atoms: N_7  and  C_8
REMARK    3  A    between atoms: C_8  and  C_9
REMARK    4  A    between atoms: C_9  and  O_10
REMARK    5  A    between atoms: O_10  and  C_11
REMARK                            x       y       z     vdW  Elec       q    Type
REMARK                         _______ _______ _______ _____ _____    ______ ____
ROOT
ATOM      1  C   UNL     1       6.842   4.238  16.044  0.00  0.00    +0.000 C 
ATOM      2  C   UNL     1       5.454   3.759  16.461  0.00  0.00    +0.000 C 
ATOM      3  C   UNL     1       4.470   4.925  16.541  0.00  0.00    +0.000 C 
ATOM      4  N   UNL     1       4.922   5.970  17.476  0.00  0.00    +0.000 NA
ATOM      5  C   UNL     1       6.262   6.467  17.126  0.00  0.00    +0.000 C 
ATOM      6  C   UNL     1       7.292   5.338  17.013  0.00  0.00    +0.000 C 
ENDROOT
BRANCH   1   8
ATOM      7  N   UNL     1       7.888   5.456  14.192  0.00  0.00    +0.000 N 
ATOM      8  C   UNL     1       6.843   4.677  14.581  0.00  0.00    +0.000 C 
ATOM      9  O   UNL     1       6.000   4.342  13.751  0.00  0.00    +0.000 OA
ATOM     10  H   UNL     1       7.939   5.658  13.201  0.00  0.00    +0.000 HD
ATOM     11  H   UNL     1       8.747   5.494  14.724  0.00  0.00    +0.000 HD
ENDBRANCH   1   8
BRANCH   4  12
ATOM     12  C   UNL     1       3.963   7.102  17.512  0.00  0.00    +0.000 C 
BRANCH  12  13
ATOM     13  C   UNL     1       2.806   6.872  18.496  0.00  0.00    +0.000 C 
BRANCH  13  14
ATOM     14  O   UNL     1       1.990   5.774  18.082  0.00  0.00    +0.000 OA
BRANCH  14  15
ATOM     15  C   UNL     1       1.837   4.787  19.025  0.00  0.00    +0.000 A 
ATOM     16  C   UNL     1       1.322   3.505  18.787  0.00  0.00    +0.000 A 
ATOM     17  C   UNL     1       1.228   2.579  19.825  0.00  0.00    +0.000 A 
ATOM     18  C   UNL     1       1.649   2.933  21.099  0.00  0.00    +0.000 A 
ATOM     19  F   UNL     1       1.568   2.039  22.092  0.00  0.00    +0.000 F 
ATOM     20  C   UNL     1       2.157   4.201  21.356  0.00  0.00    +0.000 A 
ATOM     21  C   UNL     1       2.246   5.130  20.317  0.00  0.00    +0.000 A 
ENDBRANCH  14  15
ENDBRANCH  13  14
ENDBRANCH  12  13
ENDBRANCH   4  12
TORSDOF 5
ENDMDL
MODEL 3
REMARK VINA RESULT:      -6.8      3.135      5.606
REMARK  Name = 
REMARK  5 active torsions:
REMARK  status: ('A' for Active; 'I' for Inactive)
REMARK    1  A    between atoms: C_2  and  C_4
REMARK    2  A    between atoms: N_7  and  C_8
REMARK    3  A    between atoms: C_8  and  C_9
REMARK    4  A    between atoms: C_9  and  O_10
REMARK    5  A    between atoms: O_10  and  C_11
REMARK                            x       y       z     vdW  Elec       q    Type
REMARK                         _______ _______ _______ _____ _____    ______ ____
ROOT
ATOM      1  C   UNL     1       2.298   2.177  19.662  0.00  0.00    +0.000 C 
ATOM      2  C   UNL     1       1.515   2.903  18.571  0.00  0.00    +0.000 C 
ATOM      3  C   UNL     1       1.960   4.360  18.450  0.00  0.00    +0.000 C 
ATOM      4  N   UNL     1       1.811   5.092  19.720  0.00  0.00    +0.000 NA
ATOM      5  C   UNL     1       2.542   4.433  20.814  0.00  0.00    +0.000 C 
ATOM      6  C   UNL     1       2.151   2.961  20.972  0.00  0.00    +0.000 C 
ENDROOT
BRANCH   1   8
ATOM      7  N   UNL     1       3.942   1.562  17.952  0.00  0.00    +0.000 N 
ATOM      8  C   UNL     1       3.749   1.970  19.236  0.00  0.00    +0.000 C 
ATOM      9  O   UNL     1       4.726   2.185  19.952  0.00  0.00    +0.000 OA
ATOM     10  H   UNL     1       4.906   1.525  17.644  0.00  0.00    +0.000 HD
ATOM     11  H   UNL     1       3.227   1.678  17.247  0.00  0.00    +0.000 HD
ENDBRANCH   1   8
BRANCH   4  12
ATOM     12  C   UNL     1       2.277   6.495  19.582  0.00  0.00    +0.000 C 
BRANCH  12  13
ATOM     13  C   UNL     1       3.183   6.705  18.360  0.00  0.00    +0.000 C 
BRANCH  13  14
ATOM     14  O   UNL     1       4.553   6.462  18.688  0.00  0.00    +0.000 OA
BRANCH  14  15
ATOM     15  C   UNL     1       5.289   5.882  17.684  0.00  0.00    +0.000 A 
ATOM     16  C   UNL     1       6.374   5.014  17.865  0.00  0.00    +0.000 A 
ATOM     17  C   UNL     1       7.037   4.473  16.763  0.00  0.00    +0.000 A 
ATOM     18  C   UNL     1       6.615   4.801  15.483  0.00  0.00    +0.000 A 
ATOM     19  F   UNL     1       7.246   4.272  14.426  0.00  0.00    +0.000 F 
ATOM     20  C   UNL     1       5.546   5.665  15.282  0.00  0.00    +0.000 A 
ATOM     21  C   UNL     1       4.885   6.210  16.386  0.00  0.00    +0.000 A 
ENDBRANCH  14  15
ENDBRANCH  13  14
ENDBRANCH  12  13
ENDBRANCH   4  12
TORSDOF 5
ENDMDL
MODEL 4
REMARK VINA RESULT:      -6.8      3.548      6.539
REMARK  Name = 
REMARK  5 active torsions:
REMARK  status: ('A' for Active; 'I' for Inactive)
REMARK    1  A    between atoms: C_2  and  C_4
REMARK    2  A    between atoms: N_7  and  C_8
REMARK    3  A    between atoms: C_8  and  C_9
REMARK    4  A    between atoms: C_9  and  O_10
REMARK    5  A    between atoms: O_10  and  C_11
REMARK                            x       y       z     vdW  Elec       q    Type
REMARK                         _______ _______ _______ _____ _____    ______ ____
ROOT
ATOM      1  C   UNL     1       2.999   3.517  19.140  0.00  0.00    +0.000 C 
ATOM      2  C   UNL     1       2.834   3.869  17.664  0.00  0.00    +0.000 C 
ATOM      3  C   UNL     1       4.102   4.514  17.106  0.00  0.00    +0.000 C 
ATOM      4  N   UNL     1       4.482   5.726  17.852  0.00  0.00    +0.000 NA
ATOM      5  C   UNL     1       4.649   5.448  19.287  0.00  0.00    +0.000 C 
ATOM      6  C   UNL     1       3.413   4.783  19.900  0.00  0.00    +0.000 C 
ENDROOT
BRANCH   1   8
ATOM      7  N   UNL     1       3.871   1.349  18.403  0.00  0.00    +0.000 N 
ATOM      8  C   UNL     1       3.976   2.356  19.311  0.00  0.00    +0.000 C 
ATOM      9  O   UNL     1       4.853   2.302  20.172  0.00  0.00    +0.000 OA
ATOM     10  H   UNL     1       4.585   0.633  18.459  0.00  0.00    +0.000 HD
ATOM     11  H   UNL     1       3.407   1.483  17.515  0.00  0.00    +0.000 HD
ENDBRANCH   1   8
BRANCH   4  12
ATOM     12  C   UNL     1       5.731   6.315  17.309  0.00  0.00    +0.000 C 
BRANCH  12  13
ATOM     13  C   UNL     1       6.662   5.265  16.683  0.00  0.00    +0.000 C 
BRANCH  13  14
ATOM     14  O   UNL     1       7.246   5.753  15.473  0.00  0.00    +0.000 OA
BRANCH  14  15
ATOM     15  C   UNL     1       6.946   5.015  14.354  0.00  0.00    +0.000 A 
ATOM     16  C   UNL     1       7.691   4.994  13.167  0.00  0.00    +0.000 A 
ATOM     17  C   UNL     1       7.293   4.190  12.099  0.00  0.00    +0.000 A 
ATOM     18  C   UNL     1       6.151   3.410  12.217  0.00  0.00    +0.000 A 
ATOM     19  F   UNL     1       5.776   2.631  11.194  0.00  0.00    +0.000 F 
ATOM     20  C   UNL     1       5.396   3.423  13.383  0.00  0.00    +0.000 A 
ATOM     21  C   UNL     1       5.792   4.231  14.451  0.00  0.00    +0.000 A 
ENDBRANCH  14  15
ENDBRANCH  13  14
ENDBRANCH  12  13
ENDBRANCH   4  12
TORSDOF 5
ENDMDL
MODEL 5
REMARK VINA RESULT:      -6.8      3.165      5.650
REMARK  Name = 
REMARK  5 active torsions:
REMARK  status: ('A' for Active; 'I' for Inactive)
REMARK    1  A    between atoms: C_2  and  C_4
REMARK    2  A    between atoms: N_7  and  C_8
REMARK    3  A    between atoms: C_8  and  C_9
REMARK    4  A    between atoms: C_9  and  O_10
REMARK    5  A    between atoms: O_10  and  C_11
REMARK                            x       y       z     vdW  Elec       q    Type
REMARK                         _______ _______ _______ _____ _____    ______ ____
ROOT
ATOM      1  C   UNL     1       2.339   2.103  19.902  0.00  0.00    +0.000 C 
ATOM      2  C   UNL     1       1.463   2.797  18.862  0.00  0.00    +0.000 C 
ATOM      3  C   UNL     1       1.815   4.280  18.747  0.00  0.00    +0.000 C 
ATOM      4  N   UNL     1       1.685   4.983  20.035  0.00  0.00    +0.000 NA
ATOM      5  C   UNL     1       2.505   4.351  21.081  0.00  0.00    +0.000 C 
ATOM      6  C   UNL     1       2.209   2.856  21.231  0.00  0.00    +0.000 C 
ENDROOT
BRANCH   1   8
ATOM      7  N   UNL     1       3.936   1.521  18.137  0.00  0.00    +0.000 N 
ATOM      8  C   UNL     1       3.778   1.989  19.404  0.00  0.00    +0.000 C 
ATOM      9  O   UNL     1       4.769   2.326  20.049  0.00  0.00    +0.000 OA
ATOM     10  H   UNL     1       4.881   1.543  17.776  0.00  0.00    +0.000 HD
ATOM     11  H   UNL     1       3.177   1.535  17.469  0.00  0.00    +0.000 HD
ENDBRANCH   1   8
BRANCH   4  12
ATOM     12  C   UNL     1       2.061   6.412  19.901  0.00  0.00    +0.000 C 
BRANCH  12  13
ATOM     13  C   UNL     1       2.990   6.675  18.706  0.00  0.00    +0.000 C 
BRANCH  13  14
ATOM     14  O   UNL     1       4.330   6.272  18.999  0.00  0.00    +0.000 OA
BRANCH  14  15
ATOM     15  C   UNL     1       5.056   5.862  17.907  0.00  0.00    +0.000 A 
ATOM     16  C   UNL     1       4.778   6.190  16.573  0.00  0.00    +0.000 A 
ATOM     17  C   UNL     1       5.599   5.725  15.546  0.00  0.00    +0.000 A 
ATOM     18  C   UNL     1       6.696   4.932  15.854  0.00  0.00    +0.000 A 
ATOM     19  F   UNL     1       7.490   4.494  14.867  0.00  0.00    +0.000 F 
ATOM     20  C   UNL     1       6.983   4.590  17.169  0.00  0.00    +0.000 A 
ATOM     21  C   UNL     1       6.158   5.052  18.197  0.00  0.00    +0.000 A 
ENDBRANCH  14  15
ENDBRANCH  13  14
ENDBRANCH  12  13
ENDBRANCH   4  12
TORSDOF 5
ENDMDL
MODEL 6
REMARK VINA RESULT:      -6.7      3.287      6.497
REMARK  Name = 
REMARK  5 active torsions:
REMARK  status: ('A' for Active; 'I' for Inactive)
REMARK    1  A    between atoms: C_2  and  C_4
REMARK    2  A    between atoms: N_7  and  C_8
REMARK    3  A    between atoms: C_8  and  C_9
REMARK    4  A    between atoms: C_9  and  O_10
REMARK    5  A    between atoms: O_10  and  C_11
REMARK                            x       y       z     vdW  Elec       q    Type
REMARK                         _______ _______ _______ _____ _____    ______ ____
ROOT
ATOM      1  C   UNL     1       1.221   3.755  20.286  0.00  0.00    +0.000 C 
ATOM      2  C   UNL     1       0.972   3.283  18.856  0.00  0.00    +0.000 C 
ATOM      3  C   UNL     1       2.215   3.472  17.988  0.00  0.00    +0.000 C 
ATOM      4  N   UNL     1       2.665   4.874  17.962  0.00  0.00    +0.000 NA
ATOM      5  C   UNL     1       2.916   5.387  19.318  0.00  0.00    +0.000 C 
ATOM      6  C   UNL     1       1.708   5.209  20.242  0.00  0.00    +0.000 C 
ENDROOT
BRANCH   1   8
ATOM      7  N   UNL     1       1.779   2.361  22.223  0.00  0.00    +0.000 N 
ATOM      8  C   UNL     1       2.183   2.812  21.004  0.00  0.00    +0.000 C 
ATOM      9  O   UNL     1       3.250   2.414  20.539  0.00  0.00    +0.000 OA
ATOM     10  H   UNL     1       2.371   1.658  22.648  0.00  0.00    +0.000 HD
ATOM     11  H   UNL     1       0.809   2.392  22.503  0.00  0.00    +0.000 HD
ENDBRANCH   1   8
BRANCH   4  12
ATOM     12  C   UNL     1       3.890   5.023  17.137  0.00  0.00    +0.000 C 
BRANCH  12  13
ATOM     13  C   UNL     1       4.865   3.848  17.298  0.00  0.00    +0.000 C 
BRANCH  13  14
ATOM     14  O   UNL     1       6.121   4.133  16.677  0.00  0.00    +0.000 OA
BRANCH  14  15
ATOM     15  C   UNL     1       6.776   5.227  17.185  0.00  0.00    +0.000 A 
ATOM     16  C   UNL     1       6.908   6.468  16.547  0.00  0.00    +0.000 A 
ATOM     17  C   UNL     1       7.586   7.514  17.171  0.00  0.00    +0.000 A 
ATOM     18  C   UNL     1       8.132   7.320  18.432  0.00  0.00    +0.000 A 
ATOM     19  F   UNL     1       8.774   8.329  19.035  0.00  0.00    +0.000 F 
ATOM     20  C   UNL     1       8.018   6.095  19.078  0.00  0.00    +0.000 A 
ATOM     21  C   UNL     1       7.343   5.046  18.450  0.00  0.00    +0.000 A 
ENDBRANCH  14  15
ENDBRANCH  13  14
ENDBRANCH  12  13
ENDBRANCH   4  12
TORSDOF 5
ENDMDL
MODEL 7
REMARK VINA RESULT:      -6.7      3.129      5.396
REMARK  Name = 
REMARK  5 active torsions:
REMARK  status: ('A' for Active; 'I' for Inactive)
REMARK    1  A    between atoms: C_2  and  C_4
REMARK    2  A    between atoms: N_7  and  C_8
REMARK    3  A    between atoms: C_8  and  C_9
REMARK    4  A    between atoms: C_9  and  O_10
REMARK    5  A    between atoms: O_10  and  C_11
REMARK                            x       y       z     vdW  Elec       q    Type
REMARK                         _______ _______ _______ _____ _____    ______ ____
ROOT
ATOM      1  C   UNL     1       2.385   1.989  20.036  0.00  0.00    +0.000 C 
ATOM      2  C   UNL     1       1.194   2.513  19.238  0.00  0.00    +0.000 C 
ATOM      3  C   UNL     1       1.288   4.025  19.035  0.00  0.00    +0.000 C 
ATOM      4  N   UNL     1       1.371   4.752  20.313  0.00  0.00    +0.000 NA
ATOM      5  C   UNL     1       2.501   4.283  21.131  0.00  0.00    +0.000 C 
ATOM      6  C   UNL     1       2.470   2.768  21.354  0.00  0.00    +0.000 C 
ENDROOT
BRANCH   1   8
ATOM      7  N   UNL     1       4.831   1.923  19.889  0.00  0.00    +0.000 N 
ATOM      8  C   UNL     1       3.663   2.058  19.204  0.00  0.00    +0.000 C 
ATOM      9  O   UNL     1       3.695   2.183  17.981  0.00  0.00    +0.000 OA
ATOM     10  H   UNL     1       5.667   1.867  19.323  0.00  0.00    +0.000 HD
ATOM     11  H   UNL     1       4.858   1.510  20.811  0.00  0.00    +0.000 HD
ENDBRANCH   1   8
BRANCH   4  12
ATOM     12  C   UNL     1       1.491   6.214  20.086  0.00  0.00    +0.000 C 
BRANCH  12  13
ATOM     13  C   UNL     1       2.895   6.631  19.623  0.00  0.00    +0.000 C 
BRANCH  13  14
ATOM     14  O   UNL     1       3.074   6.372  18.228  0.00  0.00    +0.000 OA
BRANCH  14  15
ATOM     15  C   UNL     1       4.294   5.834  17.898  0.00  0.00    +0.000 A 
ATOM     16  C   UNL     1       4.764   5.619  16.596  0.00  0.00    +0.000 A 
ATOM     17  C   UNL     1       6.032   5.077  16.383  0.00  0.00    +0.000 A 
ATOM     18  C   UNL     1       6.827   4.751  17.473  0.00  0.00    +0.000 A 
ATOM     19  F   UNL     1       8.049   4.241  17.268  0.00  0.00    +0.000 F 
ATOM     20  C   UNL     1       6.376   4.950  18.771  0.00  0.00    +0.000 A 
ATOM     21  C   UNL     1       5.105   5.488  18.983  0.00  0.00    +0.000 A 
ENDBRANCH  14  15
ENDBRANCH  13  14
ENDBRANCH  12  13
ENDBRANCH   4  12
TORSDOF 5
ENDMDL
MODEL 8
REMARK VINA RESULT:      -6.7      3.212      5.679
REMARK  Name = 
REMARK  5 active torsions:
REMARK  status: ('A' for Active; 'I' for Inactive)
REMARK    1  A    between atoms: C_2  and  C_4
REMARK    2  A    between atoms: N_7  and  C_8
REMARK    3  A    between atoms: C_8  and  C_9
REMARK    4  A    between atoms: C_9  and  O_10
REMARK    5  A    between atoms: O_10  and  C_11
REMARK                            x       y       z     vdW  Elec       q    Type
REMARK                         _______ _______ _______ _____ _____    ______ ____
ROOT
ATOM      1  C   UNL     1       1.908   2.297  19.746  0.00  0.00    +0.000 C 
ATOM      2  C   UNL     1       1.132   3.086  18.695  0.00  0.00    +0.000 C 
ATOM      3  C   UNL     1       1.727   4.481  18.504  0.00  0.00    +0.000 C 
ATOM      4  N   UNL     1       1.755   5.249  19.761  0.00  0.00    +0.000 NA
ATOM      5  C   UNL     1       2.487   4.530  20.817  0.00  0.00    +0.000 C 
ATOM      6  C   UNL     1       1.946   3.115  21.042  0.00  0.00    +0.000 C 
ENDROOT
BRANCH   1   8
ATOM      7  N   UNL     1       4.319   2.040  20.107  0.00  0.00    +0.000 N 
ATOM      8  C   UNL     1       3.292   1.918  19.223  0.00  0.00    +0.000 C 
ATOM      9  O   UNL     1       3.517   1.483  18.095  0.00  0.00    +0.000 OA
ATOM     10  H   UNL     1       5.214   1.692  19.789  0.00  0.00    +0.000 HD
ATOM     11  H   UNL     1       4.157   2.079  21.104  0.00  0.00    +0.000 HD
ENDBRANCH   1   8
BRANCH   4  12
ATOM     12  C   UNL     1       2.363   6.586  19.554  0.00  0.00    +0.000 C 
BRANCH  12  13
ATOM     13  C   UNL     1       2.998   6.744  18.164  0.00  0.00    +0.000 C 
BRANCH  13  14
ATOM     14  O   UNL     1       4.404   6.488  18.209  0.00  0.00    +0.000 OA
BRANCH  14  15
ATOM     15  C   UNL     1       4.898   5.812  17.121  0.00  0.00    +0.000 A 
ATOM     16  C   UNL     1       5.125   6.365  15.853  0.00  0.00    +0.000 A 
ATOM     17  C   UNL     1       5.647   5.580  14.824  0.00  0.00    +0.000 A 
ATOM     18  C   UNL     1       5.941   4.245  15.064  0.00  0.00    +0.000 A 
ATOM     19  F   UNL     1       6.452   3.496  14.078  0.00  0.00    +0.000 F 
ATOM     20  C   UNL     1       5.717   3.678  16.312  0.00  0.00    +0.000 A 
ATOM     21  C   UNL     1       5.190   4.462  17.340  0.00  0.00    +0.000 A 
ENDBRANCH  14  15
ENDBRANCH  13  14
ENDBRANCH  12  13
ENDBRANCH   4  12
TORSDOF 5
ENDMDL
MODEL 9
REMARK VINA RESULT:      -6.6      1.831      2.698
REMARK  Name = 
REMARK  5 active torsions:
REMARK  status: ('A' for Active; 'I' for Inactive)
REMARK    1  A    between atoms: C_2  and  C_4
REMARK    2  A    between atoms: N_7  and  C_8
REMARK    3  A    between atoms: C_8  and  C_9
REMARK    4  A    between atoms: C_9  and  O_10
REMARK    5  A    between atoms: O_10  and  C_11
REMARK                            x       y       z     vdW  Elec       q    Type
REMARK                         _______ _______ _______ _____ _____    ______ ____
ROOT
ATOM      1  C   UNL     1       7.806   5.529  18.056  0.00  0.00    +0.000 C 
ATOM      2  C   UNL     1       7.662   7.025  17.792  0.00  0.00    +0.000 C 
ATOM      3  C   UNL     1       6.192   7.437  17.738  0.00  0.00    +0.000 C 
ATOM      4  N   UNL     1       5.443   6.691  16.712  0.00  0.00    +0.000 NA
ATOM      5  C   UNL     1       5.551   5.237  16.914  0.00  0.00    +0.000 C 
ATOM      6  C   UNL     1       7.006   4.766  16.993  0.00  0.00    +0.000 C 
ENDROOT
BRANCH   1   8
ATOM      7  N   UNL     1       8.358   5.332  20.436  0.00  0.00    +0.000 N 
ATOM      8  C   UNL     1       7.392   5.194  19.488  0.00  0.00    +0.000 C 
ATOM      9  O   UNL     1       6.259   4.857  19.827  0.00  0.00    +0.000 OA
ATOM     10  H   UNL     1       8.052   5.208  21.393  0.00  0.00    +0.000 HD
ATOM     11  H   UNL     1       9.182   5.894  20.275  0.00  0.00    +0.000 HD
ENDBRANCH   1   8
BRANCH   4  12
ATOM     12  C   UNL     1       4.014   7.089  16.703  0.00  0.00    +0.000 C 
BRANCH  12  13
ATOM     13  C   UNL     1       3.273   6.685  17.987  0.00  0.00    +0.000 C 
BRANCH  13  14
ATOM     14  O   UNL     1       2.457   5.532  17.767  0.00  0.00    +0.000 OA
BRANCH  14  15
ATOM     15  C   UNL     1       2.158   4.818  18.902  0.00  0.00    +0.000 A 
ATOM     16  C   UNL     1       2.633   5.098  20.190  0.00  0.00    +0.000 A 
ATOM     17  C   UNL     1       2.247   4.307  21.272  0.00  0.00    +0.000 A 
ATOM     18  C   UNL     1       1.387   3.238  21.066  0.00  0.00    +0.000 A 
ATOM     19  F   UNL     1       1.009   2.486  22.107  0.00  0.00    +0.000 F 
ATOM     20  C   UNL     1       0.911   2.940  19.795  0.00  0.00    +0.000 A 
ATOM     21  C   UNL     1       1.302   3.729  18.711  0.00  0.00    +0.000 A 
ENDBRANCH  14  15
ENDBRANCH  13  14
ENDBRANCH  12  13
ENDBRANCH   4  12
TORSDOF 5
ENDMDL
