MODEL 1
REMARK VINA RESULT:      -6.4      0.000      0.000
REMARK  Name = 
REMARK  10 active torsions:
REMARK  status: ('A' for Active; 'I' for Inactive)
REMARK    1  A    between atoms: C_1  and  C_2
REMARK    2  A    between atoms: C_2  and  S_3
REMARK    3  A    between atoms: S_3  and  N_6
REMARK    4  A    between atoms: N_6  and  C_7
REMARK    5  A    between atoms: C_10  and  C_11
REMARK    6  A    between atoms: C_14  and  S_15
REMARK    7  A    between atoms: S_15  and  C_16
REMARK    8  A    between atoms: C_16  and  C_17
REMARK    9  A    between atoms: C_17  and  O_19
REMARK   10  A    between atoms: O_19  and  C_20
REMARK                            x       y       z     vdW  Elec       q    Type
REMARK                         _______ _______ _______ _____ _____    ______ ____
ROOT
ATOM      1  C   UNL     1       1.139   9.947  19.438  0.00  0.00    +0.000 A 
ATOM      2  C   UNL     1       1.238   8.951  20.401  0.00  0.00    +0.000 A 
ATOM      3  C   UNL     1       1.800   7.715  20.063  0.00  0.00    +0.000 A 
ATOM      4  C   UNL     1       2.253   7.450  18.758  0.00  0.00    +0.000 A 
ATOM      5  C   UNL     1       2.169   8.476  17.806  0.00  0.00    +0.000 A 
ATOM      6  C   UNL     1       1.618   9.720  18.148  0.00  0.00    +0.000 A 
ENDROOT
BRANCH   4   7
ATOM      7  C   UNL     1       2.750   6.113  18.444  0.00  0.00    +0.000 A 
ATOM      8  N   UNL     1       2.360   4.948  18.922  0.00  0.00    +0.000 NA
ATOM      9  N   UNL     1       3.080   3.986  18.255  0.00  0.00    +0.000 NA
ATOM     10  C   UNL     1       3.869   4.624  17.415  0.00  0.00    +0.000 A 
ATOM     11  O   UNL     1       3.729   5.987  17.492  0.00  0.00    +0.000 OA
BRANCH  10  12
ATOM     12  S   UNL     1       4.971   3.833  16.328  0.00  0.00    +0.000 S 
BRANCH  12  13
ATOM     13  C   UNL     1       5.900   5.275  15.712  0.00  0.00    +0.000 C 
BRANCH  13  14
ATOM     14  C   UNL     1       7.261   5.400  16.365  0.00  0.00    +0.000 C 
ATOM     15  O   UNL     1       7.929   4.486  16.831  0.00  0.00    +0.000 OA
BRANCH  14  16
ATOM     16  O   UNL     1       7.665   6.705  16.336  0.00  0.00    +0.000 OA
ATOM     17  C   UNL     1       7.470   7.393  17.575  0.00  0.00    +0.000 C 
ENDBRANCH  14  16
ENDBRANCH  13  14
ENDBRANCH  12  13
ENDBRANCH  10  12
ENDBRANCH   4   7
BRANCH   1  18
ATOM     18  N   UNL     1       0.513  11.183  19.740  0.00  0.00    +0.000 N 
ATOM     19  H   UNL     1       1.083  12.027  19.719  0.00  0.00    +0.000 HD
BRANCH  18  20
ATOM     20  S   UNL     1      -1.116  11.409  19.394  0.00  0.00    +0.000 S 
ATOM     21  O   UNL     1      -1.701  11.942  20.605  0.00  0.00    +0.000 OA
ATOM     22  O   UNL     1      -1.645  10.229  18.750  0.00  0.00    +0.000 OA
BRANCH  20  24
ATOM     23  C   UNL     1       0.070  13.713  18.512  0.00  0.00    +0.000 C 
ATOM     24  C   UNL     1      -1.063  12.750  18.204  0.00  0.00    +0.000 C 
ENDBRANCH  20  24
ENDBRANCH  18  20
ENDBRANCH   1  18
TORSDOF 8
ENDMDL
MODEL 2
REMARK VINA RESULT:      -6.4      1.358      1.576
REMARK  Name = 
REMARK  10 active torsions:
REMARK  status: ('A' for Active; 'I' for Inactive)
REMARK    1  A    between atoms: C_1  and  C_2
REMARK    2  A    between atoms: C_2  and  S_3
REMARK    3  A    between atoms: S_3  and  N_6
REMARK    4  A    between atoms: N_6  and  C_7
REMARK    5  A    between atoms: C_10  and  C_11
REMARK    6  A    between atoms: C_14  and  S_15
REMARK    7  A    between atoms: S_15  and  C_16
REMARK    8  A    between atoms: C_16  and  C_17
REMARK    9  A    between atoms: C_17  and  O_19
REMARK   10  A    between atoms: O_19  and  C_20
REMARK                            x       y       z     vdW  Elec       q    Type
REMARK                         _______ _______ _______ _____ _____    ______ ____
ROOT
ATOM      1  C   UNL     1       0.829  10.145  19.590  0.00  0.00    +0.000 A 
ATOM      2  C   UNL     1       0.950   9.224  20.623  0.00  0.00    +0.000 A 
ATOM      3  C   UNL     1       1.634   8.024  20.404  0.00  0.00    +0.000 A 
ATOM      4  C   UNL     1       2.189   7.716  19.149  0.00  0.00    +0.000 A 
ATOM      5  C   UNL     1       2.081   8.668  18.126  0.00  0.00    +0.000 A 
ATOM      6  C   UNL     1       1.408   9.878  18.348  0.00  0.00    +0.000 A 
ENDROOT
BRANCH   4   7
ATOM      7  C   UNL     1       2.815   6.411  18.957  0.00  0.00    +0.000 A 
ATOM      8  N   UNL     1       2.761   5.342  19.728  0.00  0.00    +0.000 NA
ATOM      9  N   UNL     1       3.448   4.348  19.074  0.00  0.00    +0.000 NA
ATOM     10  C   UNL     1       3.885   4.873  17.947  0.00  0.00    +0.000 A 
ATOM     11  O   UNL     1       3.536   6.194  17.812  0.00  0.00    +0.000 OA
BRANCH  10  12
ATOM     12  S   UNL     1       4.804   3.997  16.761  0.00  0.00    +0.000 S 
BRANCH  12  13
ATOM     13  C   UNL     1       6.479   4.607  17.144  0.00  0.00    +0.000 C 
BRANCH  13  14
ATOM     14  C   UNL     1       6.968   5.613  16.122  0.00  0.00    +0.000 C 
ATOM     15  O   UNL     1       7.524   5.358  15.061  0.00  0.00    +0.000 OA
BRANCH  14  16
ATOM     16  O   UNL     1       6.669   6.878  16.546  0.00  0.00    +0.000 OA
ATOM     17  C   UNL     1       7.524   7.347  17.594  0.00  0.00    +0.000 C 
ENDBRANCH  14  16
ENDBRANCH  13  14
ENDBRANCH  12  13
ENDBRANCH  10  12
ENDBRANCH   4   7
BRANCH   1  18
ATOM     18  N   UNL     1       0.085  11.338  19.768  0.00  0.00    +0.000 N 
ATOM     19  H   UNL     1      -0.899  11.332  19.506  0.00  0.00    +0.000 HD
BRANCH  18  20
ATOM     20  S   UNL     1       0.494  12.409  20.996  0.00  0.00    +0.000 S 
ATOM     21  O   UNL     1       1.933  12.552  20.925  0.00  0.00    +0.000 OA
ATOM     22  O   UNL     1      -0.171  12.026  22.220  0.00  0.00    +0.000 OA
BRANCH  20  24
ATOM     23  C   UNL     1      -0.356  13.938  18.892  0.00  0.00    +0.000 C 
ATOM     24  C   UNL     1      -0.214  13.947  20.403  0.00  0.00    +0.000 C 
ENDBRANCH  20  24
ENDBRANCH  18  20
ENDBRANCH   1  18
TORSDOF 8
ENDMDL
MODEL 3
REMARK VINA RESULT:      -6.4      1.575      2.116
REMARK  Name = 
REMARK  10 active torsions:
REMARK  status: ('A' for Active; 'I' for Inactive)
REMARK    1  A    between atoms: C_1  and  C_2
REMARK    2  A    between atoms: C_2  and  S_3
REMARK    3  A    between atoms: S_3  and  N_6
REMARK    4  A    between atoms: N_6  and  C_7
REMARK    5  A    between atoms: C_10  and  C_11
REMARK    6  A    between atoms: C_14  and  S_15
REMARK    7  A    between atoms: S_15  and  C_16
REMARK    8  A    between atoms: C_16  and  C_17
REMARK    9  A    between atoms: C_17  and  O_19
REMARK   10  A    between atoms: O_19  and  C_20
REMARK                            x       y       z     vdW  Elec       q    Type
REMARK                         _______ _______ _______ _____ _____    ______ ____
ROOT
ATOM      1  C   UNL     1       1.081  10.144  19.120  0.00  0.00    +0.000 A 
ATOM      2  C   UNL     1       1.729   9.539  18.051  0.00  0.00    +0.000 A 
ATOM      3  C   UNL     1       2.218   8.236  18.186  0.00  0.00    +0.000 A 
ATOM      4  C   UNL     1       2.086   7.526  19.393  0.00  0.00    +0.000 A 
ATOM      5  C   UNL     1       1.406   8.142  20.453  0.00  0.00    +0.000 A 
ATOM      6  C   UNL     1       0.902   9.444  20.313  0.00  0.00    +0.000 A 
ENDROOT
BRANCH   4   7
ATOM      7  C   UNL     1       2.694   6.203  19.502  0.00  0.00    +0.000 A 
ATOM      8  N   UNL     1       2.572   5.310  20.465  0.00  0.00    +0.000 NA
ATOM      9  N   UNL     1       3.274   4.198  20.064  0.00  0.00    +0.000 NA
ATOM     10  C   UNL     1       3.785   4.484  18.883  0.00  0.00    +0.000 A 
ATOM     11  O   UNL     1       3.473   5.754  18.468  0.00  0.00    +0.000 OA
BRANCH  10  12
ATOM     12  S   UNL     1       4.751   3.378  17.952  0.00  0.00    +0.000 S 
BRANCH  12  13
ATOM     13  C   UNL     1       5.654   4.559  16.897  0.00  0.00    +0.000 C 
BRANCH  13  14
ATOM     14  C   UNL     1       7.144   4.549  17.174  0.00  0.00    +0.000 C 
ATOM     15  O   UNL     1       7.677   4.478  18.274  0.00  0.00    +0.000 OA
BRANCH  14  16
ATOM     16  O   UNL     1       7.829   4.604  15.993  0.00  0.00    +0.000 OA
ATOM     17  C   UNL     1       6.995   4.861  14.858  0.00  0.00    +0.000 C 
ENDBRANCH  14  16
ENDBRANCH  13  14
ENDBRANCH  12  13
ENDBRANCH  10  12
ENDBRANCH   4   7
BRANCH   1  18
ATOM     18  N   UNL     1       0.635  11.487  19.028  0.00  0.00    +0.000 N 
ATOM     19  H   UNL     1       1.288  12.186  18.681  0.00  0.00    +0.000 HD
BRANCH  18  20
ATOM     20  S   UNL     1      -0.988  11.817  18.743  0.00  0.00    +0.000 S 
ATOM     21  O   UNL     1      -1.003  12.991  17.896  0.00  0.00    +0.000 OA
ATOM     22  O   UNL     1      -1.722  11.769  19.987  0.00  0.00    +0.000 OA
BRANCH  20  24
ATOM     23  C   UNL     1      -2.977  10.190  17.801  0.00  0.00    +0.000 C 
ATOM     24  C   UNL     1      -1.479  10.428  17.720  0.00  0.00    +0.000 C 
ENDBRANCH  20  24
ENDBRANCH  18  20
ENDBRANCH   1  18
TORSDOF 8
ENDMDL
MODEL 4
REMARK VINA RESULT:      -6.3      2.600      3.842
REMARK  Name = 
REMARK  10 active torsions:
REMARK  status: ('A' for Active; 'I' for Inactive)
REMARK    1  A    between atoms: C_1  and  C_2
REMARK    2  A    between atoms: C_2  and  S_3
REMARK    3  A    between atoms: S_3  and  N_6
REMARK    4  A    between atoms: N_6  and  C_7
REMARK    5  A    between atoms: C_10  and  C_11
REMARK    6  A    between atoms: C_14  and  S_15
REMARK    7  A    between atoms: S_15  and  C_16
REMARK    8  A    between atoms: C_16  and  C_17
REMARK    9  A    between atoms: C_17  and  O_19
REMARK   10  A    between atoms: O_19  and  C_20
REMARK                            x       y       z     vdW  Elec       q    Type
REMARK                         _______ _______ _______ _____ _____    ______ ____
ROOT
ATOM      1  C   UNL     1       0.829  10.009  19.504  0.00  0.00    +0.000 A 
ATOM      2  C   UNL     1       1.061   8.934  20.353  0.00  0.00    +0.000 A 
ATOM      3  C   UNL     1       1.847   7.863  19.915  0.00  0.00    +0.000 A 
ATOM      4  C   UNL     1       2.395   7.840  18.620  0.00  0.00    +0.000 A 
ATOM      5  C   UNL     1       2.173   8.945  17.786  0.00  0.00    +0.000 A 
ATOM      6  C   UNL     1       1.397  10.026  18.230  0.00  0.00    +0.000 A 
ENDROOT
BRANCH   4   7
ATOM      7  C   UNL     1       3.134   6.656  18.189  0.00  0.00    +0.000 A 
ATOM      8  N   UNL     1       4.035   6.542  17.234  0.00  0.00    +0.000 NA
ATOM      9  N   UNL     1       4.492   5.246  17.273  0.00  0.00    +0.000 NA
ATOM     10  C   UNL     1       3.836   4.648  18.247  0.00  0.00    +0.000 A 
ATOM     11  O   UNL     1       2.937   5.480  18.865  0.00  0.00    +0.000 OA
BRANCH  10  12
ATOM     12  S   UNL     1       4.077   2.987  18.701  0.00  0.00    +0.000 S 
BRANCH  12  13
ATOM     13  C   UNL     1       2.612   2.231  17.923  0.00  0.00    +0.000 C 
BRANCH  13  14
ATOM     14  C   UNL     1       1.409   2.237  18.843  0.00  0.00    +0.000 C 
ATOM     15  O   UNL     1       0.234   2.239  18.501  0.00  0.00    +0.000 OA
BRANCH  14  16
ATOM     16  O   UNL     1       1.828   2.210  20.144  0.00  0.00    +0.000 OA
ATOM     17  C   UNL     1       1.179   3.178  20.975  0.00  0.00    +0.000 C 
ENDBRANCH  14  16
ENDBRANCH  13  14
ENDBRANCH  12  13
ENDBRANCH  10  12
ENDBRANCH   4   7
BRANCH   1  18
ATOM     18  N   UNL     1      -0.017  11.074  19.903  0.00  0.00    +0.000 N 
ATOM     19  H   UNL     1       0.388  11.828  20.454  0.00  0.00    +0.000 HD
BRANCH  18  20
ATOM     20  S   UNL     1      -1.329  11.510  18.947  0.00  0.00    +0.000 S 
ATOM     21  O   UNL     1      -1.940  10.265  18.533  0.00  0.00    +0.000 OA
ATOM     22  O   UNL     1      -0.922  12.512  17.989  0.00  0.00    +0.000 OA
BRANCH  20  24
ATOM     23  C   UNL     1      -1.822  12.250  21.535  0.00  0.00    +0.000 C 
ATOM     24  C   UNL     1      -2.433  12.260  20.145  0.00  0.00    +0.000 C 
ENDBRANCH  20  24
ENDBRANCH  18  20
ENDBRANCH   1  18
TORSDOF 8
ENDMDL
MODEL 5
REMARK VINA RESULT:      -6.3      2.431      3.874
REMARK  Name = 
REMARK  10 active torsions:
REMARK  status: ('A' for Active; 'I' for Inactive)
REMARK    1  A    between atoms: C_1  and  C_2
REMARK    2  A    between atoms: C_2  and  S_3
REMARK    3  A    between atoms: S_3  and  N_6
REMARK    4  A    between atoms: N_6  and  C_7
REMARK    5  A    between atoms: C_10  and  C_11
REMARK    6  A    between atoms: C_14  and  S_15
REMARK    7  A    between atoms: S_15  and  C_16
REMARK    8  A    between atoms: C_16  and  C_17
REMARK    9  A    between atoms: C_17  and  O_19
REMARK   10  A    between atoms: O_19  and  C_20
REMARK                            x       y       z     vdW  Elec       q    Type
REMARK                         _______ _______ _______ _____ _____    ______ ____
ROOT
ATOM      1  C   UNL     1       1.079   9.962  19.557  0.00  0.00    +0.000 A 
ATOM      2  C   UNL     1       1.524   9.862  18.245  0.00  0.00    +0.000 A 
ATOM      3  C   UNL     1       2.146   8.687  17.813  0.00  0.00    +0.000 A 
ATOM      4  C   UNL     1       2.351   7.603  18.686  0.00  0.00    +0.000 A 
ATOM      5  C   UNL     1       1.872   7.711  19.999  0.00  0.00    +0.000 A 
ATOM      6  C   UNL     1       1.235   8.885  20.430  0.00  0.00    +0.000 A 
ENDROOT
BRANCH   4   7
ATOM      7  C   UNL     1       3.084   6.437  18.201  0.00  0.00    +0.000 A 
ATOM      8  N   UNL     1       4.330   6.356  17.777  0.00  0.00    +0.000 NA
ATOM      9  N   UNL     1       4.570   5.030  17.507  0.00  0.00    +0.000 NA
ATOM     10  C   UNL     1       3.454   4.385  17.777  0.00  0.00    +0.000 A 
ATOM     11  O   UNL     1       2.453   5.220  18.207  0.00  0.00    +0.000 OA
BRANCH  10  12
ATOM     12  S   UNL     1       3.262   2.665  17.607  0.00  0.00    +0.000 S 
BRANCH  12  13
ATOM     13  C   UNL     1       2.589   2.257  19.251  0.00  0.00    +0.000 C 
BRANCH  13  14
ATOM     14  C   UNL     1       1.097   2.502  19.334  0.00  0.00    +0.000 C 
ATOM     15  O   UNL     1       0.257   2.149  18.517  0.00  0.00    +0.000 OA
BRANCH  14  16
ATOM     16  O   UNL     1       0.806   3.166  20.494  0.00  0.00    +0.000 OA
ATOM     17  C   UNL     1       1.750   2.926  21.543  0.00  0.00    +0.000 C 
ENDBRANCH  14  16
ENDBRANCH  13  14
ENDBRANCH  12  13
ENDBRANCH  10  12
ENDBRANCH   4   7
BRANCH   1  18
ATOM     18  N   UNL     1       0.505  11.167  20.035  0.00  0.00    +0.000 N 
ATOM     19  H   UNL     1       1.132  11.931  20.284  0.00  0.00    +0.000 HD
BRANCH  18  20
ATOM     20  S   UNL     1      -1.025  11.633  19.521  0.00  0.00    +0.000 S 
ATOM     21  O   UNL     1      -1.637  12.285  20.659  0.00  0.00    +0.000 OA
ATOM     22  O   UNL     1      -1.667  10.532  18.840  0.00  0.00    +0.000 OA
BRANCH  20  24
ATOM     23  C   UNL     1      -0.347  14.236  19.014  0.00  0.00    +0.000 C 
ATOM     24  C   UNL     1      -0.644  12.915  18.326  0.00  0.00    +0.000 C 
ENDBRANCH  20  24
ENDBRANCH  18  20
ENDBRANCH   1  18
TORSDOF 8
ENDMDL
MODEL 6
REMARK VINA RESULT:      -6.3      1.436      1.585
REMARK  Name = 
REMARK  10 active torsions:
REMARK  status: ('A' for Active; 'I' for Inactive)
REMARK    1  A    between atoms: C_1  and  C_2
REMARK    2  A    between atoms: C_2  and  S_3
REMARK    3  A    between atoms: S_3  and  N_6
REMARK    4  A    between atoms: N_6  and  C_7
REMARK    5  A    between atoms: C_10  and  C_11
REMARK    6  A    between atoms: C_14  and  S_15
REMARK    7  A    between atoms: S_15  and  C_16
REMARK    8  A    between atoms: C_16  and  C_17
REMARK    9  A    between atoms: C_17  and  O_19
REMARK   10  A    between atoms: O_19  and  C_20
REMARK                            x       y       z     vdW  Elec       q    Type
REMARK                         _______ _______ _______ _____ _____    ______ ____
ROOT
ATOM      1  C   UNL     1       0.680   9.703  19.572  0.00  0.00    +0.000 A 
ATOM      2  C   UNL     1       0.988   8.802  20.583  0.00  0.00    +0.000 A 
ATOM      3  C   UNL     1       1.850   7.732  20.317  0.00  0.00    +0.000 A 
ATOM      4  C   UNL     1       2.399   7.535  19.038  0.00  0.00    +0.000 A 
ATOM      5  C   UNL     1       2.097   8.469  18.036  0.00  0.00    +0.000 A 
ATOM      6  C   UNL     1       1.245   9.550  18.306  0.00  0.00    +0.000 A 
ENDROOT
BRANCH   4   7
ATOM      7  C   UNL     1       3.221   6.352  18.799  0.00  0.00    +0.000 A 
ATOM      8  N   UNL     1       3.678   5.470  19.666  0.00  0.00    +0.000 NA
ATOM      9  N   UNL     1       4.332   4.504  18.939  0.00  0.00    +0.000 NA
ATOM     10  C   UNL     1       4.237   4.859  17.674  0.00  0.00    +0.000 A 
ATOM     11  O   UNL     1       3.558   6.040  17.508  0.00  0.00    +0.000 OA
BRANCH  10  12
ATOM     12  S   UNL     1       4.900   3.939  16.356  0.00  0.00    +0.000 S 
BRANCH  12  13
ATOM     13  C   UNL     1       6.020   5.183  15.634  0.00  0.00    +0.000 C 
BRANCH  13  14
ATOM     14  C   UNL     1       6.960   5.774  16.666  0.00  0.00    +0.000 C 
ATOM     15  O   UNL     1       7.758   5.157  17.358  0.00  0.00    +0.000 OA
BRANCH  14  16
ATOM     16  O   UNL     1       6.808   7.132  16.697  0.00  0.00    +0.000 OA
ATOM     17  C   UNL     1       7.706   7.788  17.599  0.00  0.00    +0.000 C 
ENDBRANCH  14  16
ENDBRANCH  13  14
ENDBRANCH  12  13
ENDBRANCH  10  12
ENDBRANCH   4   7
BRANCH   1  18
ATOM     18  N   UNL     1      -0.241  10.757  19.800  0.00  0.00    +0.000 N 
ATOM     19  H   UNL     1      -1.156  10.519  20.179  0.00  0.00    +0.000 HD
BRANCH  18  20
ATOM     20  S   UNL     1       0.316  12.295  20.181  0.00  0.00    +0.000 S 
ATOM     21  O   UNL     1       0.416  12.997  18.919  0.00  0.00    +0.000 OA
ATOM     22  O   UNL     1       1.439  12.197  21.086  0.00  0.00    +0.000 OA
BRANCH  20  24
ATOM     23  C   UNL     1      -2.343  12.943  20.213  0.00  0.00    +0.000 C 
ATOM     24  C   UNL     1      -1.083  12.994  21.059  0.00  0.00    +0.000 C 
ENDBRANCH  20  24
ENDBRANCH  18  20
ENDBRANCH   1  18
TORSDOF 8
ENDMDL
MODEL 7
REMARK VINA RESULT:      -6.3      4.877      6.820
REMARK  Name = 
REMARK  10 active torsions:
REMARK  status: ('A' for Active; 'I' for Inactive)
REMARK    1  A    between atoms: C_1  and  C_2
REMARK    2  A    between atoms: C_2  and  S_3
REMARK    3  A    between atoms: S_3  and  N_6
REMARK    4  A    between atoms: N_6  and  C_7
REMARK    5  A    between atoms: C_10  and  C_11
REMARK    6  A    between atoms: C_14  and  S_15
REMARK    7  A    between atoms: S_15  and  C_16
REMARK    8  A    between atoms: C_16  and  C_17
REMARK    9  A    between atoms: C_17  and  O_19
REMARK   10  A    between atoms: O_19  and  C_20
REMARK                            x       y       z     vdW  Elec       q    Type
REMARK                         _______ _______ _______ _____ _____    ______ ____
ROOT
ATOM      1  C   UNL     1       3.765   4.934  19.419  0.00  0.00    +0.000 A 
ATOM      2  C   UNL     1       3.271   5.412  18.212  0.00  0.00    +0.000 A 
ATOM      3  C   UNL     1       4.095   5.417  17.081  0.00  0.00    +0.000 A 
ATOM      4  C   UNL     1       5.425   4.965  17.141  0.00  0.00    +0.000 A 
ATOM      5  C   UNL     1       5.898   4.462  18.361  0.00  0.00    +0.000 A 
ATOM      6  C   UNL     1       5.069   4.443  19.493  0.00  0.00    +0.000 A 
ENDROOT
BRANCH   4   7
ATOM      7  C   UNL     1       6.262   5.075  15.950  0.00  0.00    +0.000 A 
ATOM      8  N   UNL     1       7.375   5.761  15.778  0.00  0.00    +0.000 NA
ATOM      9  N   UNL     1       7.822   5.477  14.509  0.00  0.00    +0.000 NA
ATOM     10  C   UNL     1       6.950   4.640  13.984  0.00  0.00    +0.000 A 
ATOM     11  O   UNL     1       5.915   4.352  14.838  0.00  0.00    +0.000 OA
BRANCH  10  12
ATOM     12  S   UNL     1       7.088   3.973  12.385  0.00  0.00    +0.000 S 
BRANCH  12  13
ATOM     13  C   UNL     1       5.367   4.159  11.813  0.00  0.00    +0.000 C 
BRANCH  13  14
ATOM     14  C   UNL     1       4.745   2.831  11.433  0.00  0.00    +0.000 C 
ATOM     15  O   UNL     1       3.707   2.670  10.804  0.00  0.00    +0.000 OA
BRANCH  14  16
ATOM     16  O   UNL     1       5.538   1.810  11.876  0.00  0.00    +0.000 OA
ATOM     17  C   UNL     1       6.033   0.972  10.827  0.00  0.00    +0.000 C 
ENDBRANCH  14  16
ENDBRANCH  13  14
ENDBRANCH  12  13
ENDBRANCH  10  12
ENDBRANCH   4   7
BRANCH   1  18
ATOM     18  N   UNL     1       2.972   4.980  20.593  0.00  0.00    +0.000 N 
ATOM     19  H   UNL     1       2.725   5.894  20.969  0.00  0.00    +0.000 HD
BRANCH  18  20
ATOM     20  S   UNL     1       1.871   3.752  20.913  0.00  0.00    +0.000 S 
ATOM     21  O   UNL     1       0.587   4.255  20.474  0.00  0.00    +0.000 OA
ATOM     22  O   UNL     1       2.073   3.255  22.255  0.00  0.00    +0.000 OA
BRANCH  20  24
ATOM     23  C   UNL     1       1.260   2.204  18.741  0.00  0.00    +0.000 C 
ATOM     24  C   UNL     1       2.367   2.489  19.741  0.00  0.00    +0.000 C 
ENDBRANCH  20  24
ENDBRANCH  18  20
ENDBRANCH   1  18
TORSDOF 8
ENDMDL
MODEL 8
REMARK VINA RESULT:      -6.2      2.694      3.627
REMARK  Name = 
REMARK  10 active torsions:
REMARK  status: ('A' for Active; 'I' for Inactive)
REMARK    1  A    between atoms: C_1  and  C_2
REMARK    2  A    between atoms: C_2  and  S_3
REMARK    3  A    between atoms: S_3  and  N_6
REMARK    4  A    between atoms: N_6  and  C_7
REMARK    5  A    between atoms: C_10  and  C_11
REMARK    6  A    between atoms: C_14  and  S_15
REMARK    7  A    between atoms: S_15  and  C_16
REMARK    8  A    between atoms: C_16  and  C_17
REMARK    9  A    between atoms: C_17  and  O_19
REMARK   10  A    between atoms: O_19  and  C_20
REMARK                            x       y       z     vdW  Elec       q    Type
REMARK                         _______ _______ _______ _____ _____    ______ ____
ROOT
ATOM      1  C   UNL     1       0.783   9.779  19.389  0.00  0.00    +0.000 A 
ATOM      2  C   UNL     1       1.087   8.860  20.385  0.00  0.00    +0.000 A 
ATOM      3  C   UNL     1       1.934   7.784  20.098  0.00  0.00    +0.000 A 
ATOM      4  C   UNL     1       2.473   7.599  18.812  0.00  0.00    +0.000 A 
ATOM      5  C   UNL     1       2.177   8.551  17.827  0.00  0.00    +0.000 A 
ATOM      6  C   UNL     1       1.339   9.638  18.117  0.00  0.00    +0.000 A 
ENDROOT
BRANCH   4   7
ATOM      7  C   UNL     1       3.280   6.411  18.551  0.00  0.00    +0.000 A 
ATOM      8  N   UNL     1       4.188   6.213  17.616  0.00  0.00    +0.000 NA
ATOM      9  N   UNL     1       4.719   4.965  17.838  0.00  0.00    +0.000 NA
ATOM     10  C   UNL     1       4.097   4.475  18.892  0.00  0.00    +0.000 A 
ATOM     11  O   UNL     1       3.150   5.334  19.390  0.00  0.00    +0.000 OA
BRANCH  10  12
ATOM     12  S   UNL     1       4.432   2.914  19.577  0.00  0.00    +0.000 S 
BRANCH  12  13
ATOM     13  C   UNL     1       3.615   1.846  18.346  0.00  0.00    +0.000 C 
BRANCH  13  14
ATOM     14  C   UNL     1       2.240   2.357  17.969  0.00  0.00    +0.000 C 
ATOM     15  O   UNL     1       1.961   3.035  16.990  0.00  0.00    +0.000 OA
BRANCH  14  16
ATOM     16  O   UNL     1       1.323   1.920  18.885  0.00  0.00    +0.000 OA
ATOM     17  C   UNL     1       0.660   2.980  19.581  0.00  0.00    +0.000 C 
ENDBRANCH  14  16
ENDBRANCH  13  14
ENDBRANCH  12  13
ENDBRANCH  10  12
ENDBRANCH   4   7
BRANCH   1  18
ATOM     18  N   UNL     1      -0.124  10.840  19.638  0.00  0.00    +0.000 N 
ATOM     19  H   UNL     1      -1.090  10.725  19.336  0.00  0.00    +0.000 HD
BRANCH  18  20
ATOM     20  S   UNL     1       0.097  11.842  20.968  0.00  0.00    +0.000 S 
ATOM     21  O   UNL     1       1.510  12.158  20.988  0.00  0.00    +0.000 OA
ATOM     22  O   UNL     1      -0.571  11.280  22.119  0.00  0.00    +0.000 OA
BRANCH  20  24
ATOM     23  C   UNL     1      -0.383  13.733  19.048  0.00  0.00    +0.000 C 
ATOM     24  C   UNL     1      -0.764  13.332  20.463  0.00  0.00    +0.000 C 
ENDBRANCH  20  24
ENDBRANCH  18  20
ENDBRANCH   1  18
TORSDOF 8
ENDMDL
MODEL 9
REMARK VINA RESULT:      -6.2      1.506      1.630
REMARK  Name = 
REMARK  10 active torsions:
REMARK  status: ('A' for Active; 'I' for Inactive)
REMARK    1  A    between atoms: C_1  and  C_2
REMARK    2  A    between atoms: C_2  and  S_3
REMARK    3  A    between atoms: S_3  and  N_6
REMARK    4  A    between atoms: N_6  and  C_7
REMARK    5  A    between atoms: C_10  and  C_11
REMARK    6  A    between atoms: C_14  and  S_15
REMARK    7  A    between atoms: S_15  and  C_16
REMARK    8  A    between atoms: C_16  and  C_17
REMARK    9  A    between atoms: C_17  and  O_19
REMARK   10  A    between atoms: O_19  and  C_20
REMARK                            x       y       z     vdW  Elec       q    Type
REMARK                         _______ _______ _______ _____ _____    ______ ____
ROOT
ATOM      1  C   UNL     1       0.716  10.044  19.301  0.00  0.00    +0.000 A 
ATOM      2  C   UNL     1       0.941   9.239  20.411  0.00  0.00    +0.000 A 
ATOM      3  C   UNL     1       1.702   8.073  20.277  0.00  0.00    +0.000 A 
ATOM      4  C   UNL     1       2.232   7.684  19.034  0.00  0.00    +0.000 A 
ATOM      5  C   UNL     1       2.017   8.521  17.930  0.00  0.00    +0.000 A 
ATOM      6  C   UNL     1       1.266   9.698  18.066  0.00  0.00    +0.000 A 
ENDROOT
BRANCH   4   7
ATOM      7  C   UNL     1       2.944   6.412  18.939  0.00  0.00    +0.000 A 
ATOM      8  N   UNL     1       3.163   5.512  19.877  0.00  0.00    +0.000 NA
ATOM      9  N   UNL     1       3.808   4.459  19.271  0.00  0.00    +0.000 NA
ATOM     10  C   UNL     1       3.947   4.786  18.002  0.00  0.00    +0.000 A 
ATOM     11  O   UNL     1       3.437   6.028  17.719  0.00  0.00    +0.000 OA
BRANCH  10  12
ATOM     12  S   UNL     1       4.696   3.762  16.814  0.00  0.00    +0.000 S 
BRANCH  12  13
ATOM     13  C   UNL     1       6.391   4.433  16.841  0.00  0.00    +0.000 C 
BRANCH  13  14
ATOM     14  C   UNL     1       6.542   5.641  15.939  0.00  0.00    +0.000 C 
ATOM     15  O   UNL     1       5.814   5.944  15.004  0.00  0.00    +0.000 OA
BRANCH  14  16
ATOM     16  O   UNL     1       7.618   6.381  16.343  0.00  0.00    +0.000 OA
ATOM     17  C   UNL     1       7.391   7.107  17.556  0.00  0.00    +0.000 C 
ENDBRANCH  14  16
ENDBRANCH  13  14
ENDBRANCH  12  13
ENDBRANCH  10  12
ENDBRANCH   4   7
BRANCH   1  18
ATOM     18  N   UNL     1      -0.107  11.194  19.398  0.00  0.00    +0.000 N 
ATOM     19  H   UNL     1      -1.116  11.060  19.441  0.00  0.00    +0.000 HD
BRANCH  18  20
ATOM     20  S   UNL     1       0.466  12.577  20.163  0.00  0.00    +0.000 S 
ATOM     21  O   UNL     1       0.630  12.212  21.554  0.00  0.00    +0.000 OA
ATOM     22  O   UNL     1      -0.326  13.718  19.765  0.00  0.00    +0.000 OA
BRANCH  20  24
ATOM     23  C   UNL     1       2.122  13.707  18.300  0.00  0.00    +0.000 C 
ATOM     24  C   UNL     1       2.111  12.736  19.467  0.00  0.00    +0.000 C 
ENDBRANCH  20  24
ENDBRANCH  18  20
ENDBRANCH   1  18
TORSDOF 8
ENDMDL
