MODEL 1
REMARK VINA RESULT:      -7.3      0.000      0.000
REMARK  Name = 
REMARK  13 active torsions:
REMARK  status: ('A' for Active; 'I' for Inactive)
REMARK    1  A    between atoms: C_1  and  O_2
REMARK    2  A    between atoms: O_2  and  C_3
REMARK    3  A    between atoms: C_3  and  C_4
REMARK    4  A    between atoms: C_4  and  N_5
REMARK    5  A    between atoms: C_6  and  C_7
REMARK    6  A    between atoms: C_10  and  C_11
REMARK    7  A    between atoms: C_11  and  C_12
REMARK    8  A    between atoms: C_11  and  C_13
REMARK    9  A    between atoms: C_18  and  C_19
REMARK   10  A    between atoms: C_23  and  C_24
REMARK   11  A    between atoms: C_24  and  C_25
REMARK   12  A    between atoms: C_31  and  O_32
REMARK   13  A    between atoms: O_32  and  C_33
REMARK                            x       y       z     vdW  Elec       q    Type
REMARK                         _______ _______ _______ _____ _____    ______ ____
ROOT
ATOM      1  N   UNL     1      -1.808  10.888  18.911  0.00  0.00    +0.000 N 
ATOM      2  C   UNL     1      -0.599  10.780  19.600  0.00  0.00    +0.000 A 
ATOM      3  N   UNL     1      -0.653  11.519  20.691  0.00  0.00    +0.000 NA
ATOM      4  C   UNL     1      -1.870  12.144  20.708  0.00  0.00    +0.000 A 
ATOM      5  C   UNL     1      -2.381  13.017  21.692  0.00  0.00    +0.000 A 
ATOM      6  C   UNL     1      -3.685  13.543  21.482  0.00  0.00    +0.000 A 
ATOM      7  C   UNL     1      -4.411  13.188  20.326  0.00  0.00    +0.000 A 
ATOM      8  C   UNL     1      -3.913  12.300  19.361  0.00  0.00    +0.000 A 
ATOM      9  C   UNL     1      -2.617  11.790  19.591  0.00  0.00    +0.000 A 
ENDROOT
BRANCH   2  10
ATOM     10  C   UNL     1       0.518   9.859  19.308  0.00  0.00    +0.000 A 
ATOM     11  C   UNL     1       1.098   9.731  18.043  0.00  0.00    +0.000 A 
ATOM     12  C   UNL     1       1.952   8.665  17.747  0.00  0.00    +0.000 A 
ATOM     13  C   UNL     1       2.320   7.742  18.731  0.00  0.00    +0.000 A 
ATOM     14  C   UNL     1       1.880   7.967  20.041  0.00  0.00    +0.000 A 
ATOM     15  C   UNL     1       0.981   9.006  20.322  0.00  0.00    +0.000 A 
BRANCH  13  16
ATOM     16  C   UNL     1       3.142   6.526  18.345  0.00  0.00    +0.000 C 
ATOM     17  C   UNL     1       2.268   5.326  17.986  0.00  0.00    +0.000 C 
ATOM     18  C   UNL     1       4.125   6.851  17.214  0.00  0.00    +0.000 C 
ENDBRANCH  13  16
ENDBRANCH   2  10
BRANCH   5  19
ATOM     19  C   UNL     1      -1.579  13.355  22.921  0.00  0.00    +0.000 C 
ATOM     20  F   UNL     1      -2.276  13.859  23.974  0.00  0.00    +0.000 F 
ATOM     21  F   UNL     1      -0.899  12.281  23.415  0.00  0.00    +0.000 F 
ATOM     22  F   UNL     1      -0.618  14.292  22.653  0.00  0.00    +0.000 F 
ENDBRANCH   5  19
BRANCH   8  23
ATOM     23  O   UNL     1      -4.597  11.902  18.251  0.00  0.00    +0.000 OA
ATOM     24  C   UNL     1      -5.893  11.343  18.428  0.00  0.00    +0.000 C 
ENDBRANCH   8  23
BRANCH   1  25
ATOM     25  C   UNL     1      -2.198  10.114  17.743  0.00  0.00    +0.000 C 
BRANCH  25  26
ATOM     26  C   UNL     1      -2.027  10.876  16.432  0.00  0.00    +0.000 C 
BRANCH  26  28
ATOM     27  C   UNL     1      -3.023  10.027  14.484  0.00  0.00    +0.000 C 
ATOM     28  O   UNL     1      -3.230  10.803  15.662  0.00  0.00    +0.000 OA
ENDBRANCH  26  28
ENDBRANCH  25  26
ENDBRANCH   1  25
BRANCH   6  29
ATOM     29  C   UNL     1      -4.342  14.510  22.462  0.00  0.00    +0.000 C 
BRANCH  29  30
ATOM     30  C   UNL     1      -5.632  14.009  23.051  0.00  0.00    +0.000 A 
ATOM     31  N   UNL     1      -5.835  12.793  23.520  0.00  0.00    +0.000 NA
ATOM     32  C   UNL     1      -7.137  12.675  23.966  0.00  0.00    +0.000 A 
ATOM     33  C   UNL     1      -7.903  13.816  23.877  0.00  0.00    +0.000 A 
ATOM     34  S   UNL     1      -6.972  15.084  23.201  0.00  0.00    +0.000 S 
ENDBRANCH  29  30
ENDBRANCH   6  29
TORSDOF 9
ENDMDL
MODEL 2
REMARK VINA RESULT:      -7.0      6.652     11.617
REMARK  Name = 
REMARK  13 active torsions:
REMARK  status: ('A' for Active; 'I' for Inactive)
REMARK    1  A    between atoms: C_1  and  O_2
REMARK    2  A    between atoms: O_2  and  C_3
REMARK    3  A    between atoms: C_3  and  C_4
REMARK    4  A    between atoms: C_4  and  N_5
REMARK    5  A    between atoms: C_6  and  C_7
REMARK    6  A    between atoms: C_10  and  C_11
REMARK    7  A    between atoms: C_11  and  C_12
REMARK    8  A    between atoms: C_11  and  C_13
REMARK    9  A    between atoms: C_18  and  C_19
REMARK   10  A    between atoms: C_23  and  C_24
REMARK   11  A    between atoms: C_24  and  C_25
REMARK   12  A    between atoms: C_31  and  O_32
REMARK   13  A    between atoms: O_32  and  C_33
REMARK                            x       y       z     vdW  Elec       q    Type
REMARK                         _______ _______ _______ _____ _____    ______ ____
ROOT
ATOM      1  N   UNL     1       2.429   5.479  18.794  0.00  0.00    +0.000 N 
ATOM      2  C   UNL     1       2.691   6.823  19.062  0.00  0.00    +0.000 A 
ATOM      3  N   UNL     1       3.872   7.143  18.569  0.00  0.00    +0.000 NA
ATOM      4  C   UNL     1       4.407   6.013  18.012  0.00  0.00    +0.000 A 
ATOM      5  C   UNL     1       5.645   5.880  17.348  0.00  0.00    +0.000 A 
ATOM      6  C   UNL     1       5.981   4.590  16.851  0.00  0.00    +0.000 A 
ATOM      7  C   UNL     1       5.092   3.511  17.032  0.00  0.00    +0.000 A 
ATOM      8  C   UNL     1       3.850   3.651  17.670  0.00  0.00    +0.000 A 
ATOM      9  C   UNL     1       3.537   4.939  18.154  0.00  0.00    +0.000 A 
ENDROOT
BRANCH   2  10
ATOM     10  C   UNL     1       1.761   7.820  19.631  0.00  0.00    +0.000 A 
ATOM     11  C   UNL     1       1.268   8.911  18.910  0.00  0.00    +0.000 A 
ATOM     12  C   UNL     1       0.622   9.969  19.556  0.00  0.00    +0.000 A 
ATOM     13  C   UNL     1       0.373   9.927  20.932  0.00  0.00    +0.000 A 
ATOM     14  C   UNL     1       0.709   8.759  21.627  0.00  0.00    +0.000 A 
ATOM     15  C   UNL     1       1.404   7.724  20.985  0.00  0.00    +0.000 A 
BRANCH  13  16
ATOM     16  C   UNL     1      -0.213  11.146  21.622  0.00  0.00    +0.000 C 
ATOM     17  C   UNL     1      -1.159  11.926  20.713  0.00  0.00    +0.000 C 
ATOM     18  C   UNL     1      -0.899  10.769  22.940  0.00  0.00    +0.000 C 
ENDBRANCH  13  16
ENDBRANCH   2  10
BRANCH   5  19
ATOM     19  C   UNL     1       6.556   7.064  17.160  0.00  0.00    +0.000 C 
ATOM     20  F   UNL     1       6.623   7.578  15.902  0.00  0.00    +0.000 F 
ATOM     21  F   UNL     1       6.225   8.114  17.965  0.00  0.00    +0.000 F 
ATOM     22  F   UNL     1       7.850   6.760  17.485  0.00  0.00    +0.000 F 
ENDBRANCH   5  19
BRANCH   8  23
ATOM     23  O   UNL     1       2.947   2.643  17.831  0.00  0.00    +0.000 OA
ATOM     24  C   UNL     1       3.393   1.434  18.433  0.00  0.00    +0.000 C 
ENDBRANCH   8  23
BRANCH   1  25
ATOM     25  C   UNL     1       1.174   4.787  19.042  0.00  0.00    +0.000 C 
BRANCH  25  26
ATOM     26  C   UNL     1       1.021   4.319  20.486  0.00  0.00    +0.000 C 
BRANCH  26  28
ATOM     27  C   UNL     1       1.840   2.447  21.641  0.00  0.00    +0.000 C 
ATOM     28  O   UNL     1       1.044   2.890  20.544  0.00  0.00    +0.000 OA
ENDBRANCH  26  28
ENDBRANCH  25  26
ENDBRANCH   1  25
BRANCH   6  29
ATOM     29  C   UNL     1       7.297   4.312  16.131  0.00  0.00    +0.000 C 
BRANCH  29  30
ATOM     30  C   UNL     1       7.250   4.553  14.648  0.00  0.00    +0.000 A 
ATOM     31  N   UNL     1       8.021   5.394  13.986  0.00  0.00    +0.000 NA
ATOM     32  C   UNL     1       7.693   5.373  12.644  0.00  0.00    +0.000 A 
ATOM     33  C   UNL     1       6.707   4.481  12.286  0.00  0.00    +0.000 A 
ATOM     34  S   UNL     1       6.155   3.643  13.673  0.00  0.00    +0.000 S 
ENDBRANCH  29  30
ENDBRANCH   6  29
TORSDOF 9
ENDMDL
MODEL 3
REMARK VINA RESULT:      -6.9      3.400      4.742
REMARK  Name = 
REMARK  13 active torsions:
REMARK  status: ('A' for Active; 'I' for Inactive)
REMARK    1  A    between atoms: C_1  and  O_2
REMARK    2  A    between atoms: O_2  and  C_3
REMARK    3  A    between atoms: C_3  and  C_4
REMARK    4  A    between atoms: C_4  and  N_5
REMARK    5  A    between atoms: C_6  and  C_7
REMARK    6  A    between atoms: C_10  and  C_11
REMARK    7  A    between atoms: C_11  and  C_12
REMARK    8  A    between atoms: C_11  and  C_13
REMARK    9  A    between atoms: C_18  and  C_19
REMARK   10  A    between atoms: C_23  and  C_24
REMARK   11  A    between atoms: C_24  and  C_25
REMARK   12  A    between atoms: C_31  and  O_32
REMARK   13  A    between atoms: O_32  and  C_33
REMARK                            x       y       z     vdW  Elec       q    Type
REMARK                         _______ _______ _______ _____ _____    ______ ____
ROOT
ATOM      1  N   UNL     1       0.538  10.247  20.186  0.00  0.00    +0.000 N 
ATOM      2  C   UNL     1       0.656   9.358  19.117  0.00  0.00    +0.000 A 
ATOM      3  N   UNL     1      -0.383   9.500  18.316  0.00  0.00    +0.000 NA
ATOM      4  C   UNL     1      -1.203  10.447  18.867  0.00  0.00    +0.000 A 
ATOM      5  C   UNL     1      -2.420  10.941  18.353  0.00  0.00    +0.000 A 
ATOM      6  C   UNL     1      -3.095  11.934  19.116  0.00  0.00    +0.000 A 
ATOM      7  C   UNL     1      -2.543  12.381  20.334  0.00  0.00    +0.000 A 
ATOM      8  C   UNL     1      -1.320  11.907  20.832  0.00  0.00    +0.000 A 
ATOM      9  C   UNL     1      -0.668  10.924  20.058  0.00  0.00    +0.000 A 
ENDROOT
BRANCH   2  10
ATOM     10  C   UNL     1       1.818   8.510  18.782  0.00  0.00    +0.000 A 
ATOM     11  C   UNL     1       2.662   8.757  17.696  0.00  0.00    +0.000 A 
ATOM     12  C   UNL     1       3.570   7.790  17.255  0.00  0.00    +0.000 A 
ATOM     13  C   UNL     1       3.722   6.580  17.940  0.00  0.00    +0.000 A 
ATOM     14  C   UNL     1       3.005   6.402  19.129  0.00  0.00    +0.000 A 
ATOM     15  C   UNL     1       2.056   7.351  19.537  0.00  0.00    +0.000 A 
BRANCH  13  16
ATOM     16  C   UNL     1       4.620   5.502  17.362  0.00  0.00    +0.000 C 
ATOM     17  C   UNL     1       3.917   4.149  17.272  0.00  0.00    +0.000 C 
ATOM     18  C   UNL     1       5.191   5.918  16.001  0.00  0.00    +0.000 C 
ENDBRANCH  13  16
ENDBRANCH   2  10
BRANCH   5  19
ATOM     19  C   UNL     1      -2.964  10.449  17.037  0.00  0.00    +0.000 C 
ATOM     20  F   UNL     1      -3.729   9.325  17.086  0.00  0.00    +0.000 F 
ATOM     21  F   UNL     1      -3.729  11.383  16.403  0.00  0.00    +0.000 F 
ATOM     22  F   UNL     1      -1.960  10.154  16.156  0.00  0.00    +0.000 F 
ENDBRANCH   5  19
BRANCH   8  23
ATOM     23  O   UNL     1      -0.735  12.341  21.984  0.00  0.00    +0.000 OA
ATOM     24  C   UNL     1      -1.579  12.795  23.035  0.00  0.00    +0.000 C 
ENDBRANCH   8  23
BRANCH   1  25
ATOM     25  C   UNL     1       1.547  10.501  21.201  0.00  0.00    +0.000 C 
BRANCH  25  26
ATOM     26  C   UNL     1       1.572   9.445  22.302  0.00  0.00    +0.000 C 
BRANCH  26  28
ATOM     27  C   UNL     1      -0.538   9.210  23.303  0.00  0.00    +0.000 C 
ATOM     28  O   UNL     1       0.734   9.848  23.388  0.00  0.00    +0.000 OA
ENDBRANCH  26  28
ENDBRANCH  25  26
ENDBRANCH   1  25
BRANCH   6  29
ATOM     29  C   UNL     1      -4.426  12.535  18.678  0.00  0.00    +0.000 C 
BRANCH  29  30
ATOM     30  C   UNL     1      -5.631  11.866  19.280  0.00  0.00    +0.000 A 
ATOM     31  N   UNL     1      -6.165  10.734  18.862  0.00  0.00    +0.000 NA
ATOM     32  C   UNL     1      -7.268  10.424  19.632  0.00  0.00    +0.000 A 
ATOM     33  C   UNL     1      -7.541  11.298  20.661  0.00  0.00    +0.000 A 
ATOM     34  S   UNL     1      -6.387  12.562  20.665  0.00  0.00    +0.000 S 
ENDBRANCH  29  30
ENDBRANCH   6  29
TORSDOF 9
ENDMDL
MODEL 4
REMARK VINA RESULT:      -6.9      3.013      3.966
REMARK  Name = 
REMARK  13 active torsions:
REMARK  status: ('A' for Active; 'I' for Inactive)
REMARK    1  A    between atoms: C_1  and  O_2
REMARK    2  A    between atoms: O_2  and  C_3
REMARK    3  A    between atoms: C_3  and  C_4
REMARK    4  A    between atoms: C_4  and  N_5
REMARK    5  A    between atoms: C_6  and  C_7
REMARK    6  A    between atoms: C_10  and  C_11
REMARK    7  A    between atoms: C_11  and  C_12
REMARK    8  A    between atoms: C_11  and  C_13
REMARK    9  A    between atoms: C_18  and  C_19
REMARK   10  A    between atoms: C_23  and  C_24
REMARK   11  A    between atoms: C_24  and  C_25
REMARK   12  A    between atoms: C_31  and  O_32
REMARK   13  A    between atoms: O_32  and  C_33
REMARK                            x       y       z     vdW  Elec       q    Type
REMARK                         _______ _______ _______ _____ _____    ______ ____
ROOT
ATOM      1  N   UNL     1      -0.066  11.248  20.354  0.00  0.00    +0.000 N 
ATOM      2  C   UNL     1      -0.063  10.159  19.481  0.00  0.00    +0.000 A 
ATOM      3  N   UNL     1      -1.216  10.109  18.843  0.00  0.00    +0.000 NA
ATOM      4  C   UNL     1      -1.993  11.132  19.314  0.00  0.00    +0.000 A 
ATOM      5  C   UNL     1      -3.299  11.482  18.909  0.00  0.00    +0.000 A 
ATOM      6  C   UNL     1      -3.903  12.597  19.554  0.00  0.00    +0.000 A 
ATOM      7  C   UNL     1      -3.200  13.299  20.553  0.00  0.00    +0.000 A 
ATOM      8  C   UNL     1      -1.893  12.966  20.937  0.00  0.00    +0.000 A 
ATOM      9  C   UNL     1      -1.312  11.857  20.284  0.00  0.00    +0.000 A 
ENDROOT
BRANCH   2  10
ATOM     10  C   UNL     1       1.080   9.286  19.145  0.00  0.00    +0.000 A 
ATOM     11  C   UNL     1       1.763   9.347  17.927  0.00  0.00    +0.000 A 
ATOM     12  C   UNL     1       2.644   8.332  17.544  0.00  0.00    +0.000 A 
ATOM     13  C   UNL     1       2.937   7.269  18.404  0.00  0.00    +0.000 A 
ATOM     14  C   UNL     1       2.390   7.296  19.692  0.00  0.00    +0.000 A 
ATOM     15  C   UNL     1       1.465   8.287  20.053  0.00  0.00    +0.000 A 
BRANCH  13  16
ATOM     16  C   UNL     1       3.795   6.120  17.907  0.00  0.00    +0.000 C 
ATOM     17  C   UNL     1       2.979   4.855  17.655  0.00  0.00    +0.000 C 
ATOM     18  C   UNL     1       4.597   6.518  16.663  0.00  0.00    +0.000 C 
ENDBRANCH  13  16
ENDBRANCH   2  10
BRANCH   5  19
ATOM     19  C   UNL     1      -4.007  10.716  17.823  0.00  0.00    +0.000 C 
ATOM     20  F   UNL     1      -5.211  10.177  18.154  0.00  0.00    +0.000 F 
ATOM     21  F   UNL     1      -4.239  11.473  16.713  0.00  0.00    +0.000 F 
ATOM     22  F   UNL     1      -3.257   9.659  17.382  0.00  0.00    +0.000 F 
ENDBRANCH   5  19
BRANCH   8  23
ATOM     23  O   UNL     1      -1.165  13.642  21.871  0.00  0.00    +0.000 OA
ATOM     24  C   UNL     1      -0.994  15.043  21.701  0.00  0.00    +0.000 C 
ENDBRANCH   8  23
BRANCH   1  25
ATOM     25  C   UNL     1       1.069  11.729  21.125  0.00  0.00    +0.000 C 
BRANCH  25  26
ATOM     26  C   UNL     1       1.817  12.872  20.446  0.00  0.00    +0.000 C 
BRANCH  26  28
ATOM     27  C   UNL     1       1.449  14.385  18.689  0.00  0.00    +0.000 C 
ATOM     28  O   UNL     1       1.365  13.021  19.097  0.00  0.00    +0.000 OA
ENDBRANCH  26  28
ENDBRANCH  25  26
ENDBRANCH   1  25
BRANCH   6  29
ATOM     29  C   UNL     1      -5.316  13.065  19.219  0.00  0.00    +0.000 C 
BRANCH  29  30
ATOM     30  C   UNL     1      -6.327  12.790  20.297  0.00  0.00    +0.000 A 
ATOM     31  N   UNL     1      -6.791  11.599  20.624  0.00  0.00    +0.000 NA
ATOM     32  C   UNL     1      -7.716  11.720  21.642  0.00  0.00    +0.000 A 
ATOM     33  C   UNL     1      -7.916  12.997  22.117  0.00  0.00    +0.000 A 
ATOM     34  S   UNL     1      -6.924  14.094  21.256  0.00  0.00    +0.000 S 
ENDBRANCH  29  30
ENDBRANCH   6  29
TORSDOF 9
ENDMDL
MODEL 5
REMARK VINA RESULT:      -6.9      0.566      1.046
REMARK  Name = 
REMARK  13 active torsions:
REMARK  status: ('A' for Active; 'I' for Inactive)
REMARK    1  A    between atoms: C_1  and  O_2
REMARK    2  A    between atoms: O_2  and  C_3
REMARK    3  A    between atoms: C_3  and  C_4
REMARK    4  A    between atoms: C_4  and  N_5
REMARK    5  A    between atoms: C_6  and  C_7
REMARK    6  A    between atoms: C_10  and  C_11
REMARK    7  A    between atoms: C_11  and  C_12
REMARK    8  A    between atoms: C_11  and  C_13
REMARK    9  A    between atoms: C_18  and  C_19
REMARK   10  A    between atoms: C_23  and  C_24
REMARK   11  A    between atoms: C_24  and  C_25
REMARK   12  A    between atoms: C_31  and  O_32
REMARK   13  A    between atoms: O_32  and  C_33
REMARK                            x       y       z     vdW  Elec       q    Type
REMARK                         _______ _______ _______ _____ _____    ______ ____
ROOT
ATOM      1  N   UNL     1      -1.621  10.662  18.841  0.00  0.00    +0.000 N 
ATOM      2  C   UNL     1      -0.387  10.581  19.488  0.00  0.00    +0.000 A 
ATOM      3  N   UNL     1      -0.384  11.396  20.524  0.00  0.00    +0.000 NA
ATOM      4  C   UNL     1      -1.591  12.042  20.544  0.00  0.00    +0.000 A 
ATOM      5  C   UNL     1      -2.048  12.992  21.483  0.00  0.00    +0.000 A 
ATOM      6  C   UNL     1      -3.352  13.525  21.287  0.00  0.00    +0.000 A 
ATOM      7  C   UNL     1      -4.129  13.102  20.190  0.00  0.00    +0.000 A 
ATOM      8  C   UNL     1      -3.684  12.139  19.272  0.00  0.00    +0.000 A 
ATOM      9  C   UNL     1      -2.388  11.623  19.485  0.00  0.00    +0.000 A 
ENDROOT
BRANCH   2  10
ATOM     10  C   UNL     1       0.704   9.621  19.218  0.00  0.00    +0.000 A 
ATOM     11  C   UNL     1       1.325   9.494  17.972  0.00  0.00    +0.000 A 
ATOM     12  C   UNL     1       2.147   8.401  17.686  0.00  0.00    +0.000 A 
ATOM     13  C   UNL     1       2.442   7.445  18.665  0.00  0.00    +0.000 A 
ATOM     14  C   UNL     1       1.963   7.664  19.961  0.00  0.00    +0.000 A 
ATOM     15  C   UNL     1       1.096   8.732  20.231  0.00  0.00    +0.000 A 
BRANCH  13  16
ATOM     16  C   UNL     1       3.230   6.205  18.284  0.00  0.00    +0.000 C 
ATOM     17  C   UNL     1       4.203   5.779  19.381  0.00  0.00    +0.000 C 
ATOM     18  C   UNL     1       2.302   5.050  17.891  0.00  0.00    +0.000 C 
ENDBRANCH  13  16
ENDBRANCH   2  10
BRANCH   5  19
ATOM     19  C   UNL     1      -1.191  13.401  22.652  0.00  0.00    +0.000 C 
ATOM     20  F   UNL     1       0.067  13.825  22.357  0.00  0.00    +0.000 F 
ATOM     21  F   UNL     1      -1.751  14.405  23.386  0.00  0.00    +0.000 F 
ATOM     22  F   UNL     1      -1.017  12.370  23.534  0.00  0.00    +0.000 F 
ENDBRANCH   5  19
BRANCH   8  23
ATOM     23  O   UNL     1      -4.418  11.676  18.221  0.00  0.00    +0.000 OA
ATOM     24  C   UNL     1      -5.711  12.230  18.012  0.00  0.00    +0.000 C 
ENDBRANCH   8  23
BRANCH   1  25
ATOM     25  C   UNL     1      -2.069   9.814  17.747  0.00  0.00    +0.000 C 
BRANCH  25  26
ATOM     26  C   UNL     1      -2.221  10.564  16.427  0.00  0.00    +0.000 C 
BRANCH  26  28
ATOM     27  C   UNL     1      -3.057  10.160  14.272  0.00  0.00    +0.000 C 
ATOM     28  O   UNL     1      -3.299  10.010  15.669  0.00  0.00    +0.000 OA
ENDBRANCH  26  28
ENDBRANCH  25  26
ENDBRANCH   1  25
BRANCH   6  29
ATOM     29  C   UNL     1      -3.953  14.571  22.221  0.00  0.00    +0.000 C 
BRANCH  29  30
ATOM     30  C   UNL     1      -5.245  14.150  22.865  0.00  0.00    +0.000 A 
ATOM     31  N   UNL     1      -5.366  13.239  23.811  0.00  0.00    +0.000 NA
ATOM     32  C   UNL     1      -6.696  13.095  24.155  0.00  0.00    +0.000 A 
ATOM     33  C   UNL     1      -7.575  13.930  23.501  0.00  0.00    +0.000 A 
ATOM     34  S   UNL     1      -6.716  14.927  22.407  0.00  0.00    +0.000 S 
ENDBRANCH  29  30
ENDBRANCH   6  29
TORSDOF 9
ENDMDL
MODEL 6
REMARK VINA RESULT:      -6.9      3.220      4.305
REMARK  Name = 
REMARK  13 active torsions:
REMARK  status: ('A' for Active; 'I' for Inactive)
REMARK    1  A    between atoms: C_1  and  O_2
REMARK    2  A    between atoms: O_2  and  C_3
REMARK    3  A    between atoms: C_3  and  C_4
REMARK    4  A    between atoms: C_4  and  N_5
REMARK    5  A    between atoms: C_6  and  C_7
REMARK    6  A    between atoms: C_10  and  C_11
REMARK    7  A    between atoms: C_11  and  C_12
REMARK    8  A    between atoms: C_11  and  C_13
REMARK    9  A    between atoms: C_18  and  C_19
REMARK   10  A    between atoms: C_23  and  C_24
REMARK   11  A    between atoms: C_24  and  C_25
REMARK   12  A    between atoms: C_31  and  O_32
REMARK   13  A    between atoms: O_32  and  C_33
REMARK                            x       y       z     vdW  Elec       q    Type
REMARK                         _______ _______ _______ _____ _____    ______ ____
ROOT
ATOM      1  N   UNL     1      -0.175  11.394  20.163  0.00  0.00    +0.000 N 
ATOM      2  C   UNL     1      -0.171  10.240  19.378  0.00  0.00    +0.000 A 
ATOM      3  N   UNL     1      -1.343  10.111  18.786  0.00  0.00    +0.000 NA
ATOM      4  C   UNL     1      -2.132  11.149  19.203  0.00  0.00    +0.000 A 
ATOM      5  C   UNL     1      -3.459  11.435  18.819  0.00  0.00    +0.000 A 
ATOM      6  C   UNL     1      -4.072  12.581  19.396  0.00  0.00    +0.000 A 
ATOM      7  C   UNL     1      -3.355  13.377  20.312  0.00  0.00    +0.000 A 
ATOM      8  C   UNL     1      -2.027  13.107  20.674  0.00  0.00    +0.000 A 
ATOM      9  C   UNL     1      -1.439  11.965  20.089  0.00  0.00    +0.000 A 
ENDROOT
BRANCH   2  10
ATOM     10  C   UNL     1       0.984   9.371  19.071  0.00  0.00    +0.000 A 
ATOM     11  C   UNL     1       1.671   9.407  17.854  0.00  0.00    +0.000 A 
ATOM     12  C   UNL     1       2.566   8.392  17.503  0.00  0.00    +0.000 A 
ATOM     13  C   UNL     1       2.867   7.356  18.394  0.00  0.00    +0.000 A 
ATOM     14  C   UNL     1       2.314   7.413  19.679  0.00  0.00    +0.000 A 
ATOM     15  C   UNL     1       1.376   8.402  20.008  0.00  0.00    +0.000 A 
BRANCH  13  16
ATOM     16  C   UNL     1       3.740   6.205  17.933  0.00  0.00    +0.000 C 
ATOM     17  C   UNL     1       4.885   6.670  17.035  0.00  0.00    +0.000 C 
ATOM     18  C   UNL     1       4.266   5.389  19.120  0.00  0.00    +0.000 C 
ENDBRANCH  13  16
ENDBRANCH   2  10
BRANCH   5  19
ATOM     19  C   UNL     1      -4.181  10.568  17.822  0.00  0.00    +0.000 C 
ATOM     20  F   UNL     1      -5.468  10.246  18.125  0.00  0.00    +0.000 F 
ATOM     21  F   UNL     1      -4.229  11.126  16.578  0.00  0.00    +0.000 F 
ATOM     22  F   UNL     1      -3.549   9.366  17.648  0.00  0.00    +0.000 F 
ENDBRANCH   5  19
BRANCH   8  23
ATOM     23  O   UNL     1      -1.287  13.873  21.526  0.00  0.00    +0.000 OA
ATOM     24  C   UNL     1      -1.309  15.284  21.349  0.00  0.00    +0.000 C 
ENDBRANCH   8  23
BRANCH   1  25
ATOM     25  C   UNL     1       0.972  11.962  20.853  0.00  0.00    +0.000 C 
BRANCH  25  26
ATOM     26  C   UNL     1       1.809  12.885  19.972  0.00  0.00    +0.000 C 
BRANCH  26  28
ATOM     27  C   UNL     1       3.326  14.189  21.199  0.00  0.00    +0.000 C 
ATOM     28  O   UNL     1       2.019  14.136  20.632  0.00  0.00    +0.000 OA
ENDBRANCH  26  28
ENDBRANCH  25  26
ENDBRANCH   1  25
BRANCH   6  29
ATOM     29  C   UNL     1      -5.507  12.987  19.075  0.00  0.00    +0.000 C 
BRANCH  29  30
ATOM     30  C   UNL     1      -6.435  12.951  20.258  0.00  0.00    +0.000 A 
ATOM     31  N   UNL     1      -6.863  14.005  20.925  0.00  0.00    +0.000 NA
ATOM     32  C   UNL     1      -7.685  13.603  21.959  0.00  0.00    +0.000 A 
ATOM     33  C   UNL     1      -7.915  12.248  22.045  0.00  0.00    +0.000 A 
ATOM     34  S   UNL     1      -7.068  11.439  20.797  0.00  0.00    +0.000 S 
ENDBRANCH  29  30
ENDBRANCH   6  29
TORSDOF 9
ENDMDL
MODEL 7
REMARK VINA RESULT:      -6.9      1.030      1.274
REMARK  Name = 
REMARK  13 active torsions:
REMARK  status: ('A' for Active; 'I' for Inactive)
REMARK    1  A    between atoms: C_1  and  O_2
REMARK    2  A    between atoms: O_2  and  C_3
REMARK    3  A    between atoms: C_3  and  C_4
REMARK    4  A    between atoms: C_4  and  N_5
REMARK    5  A    between atoms: C_6  and  C_7
REMARK    6  A    between atoms: C_10  and  C_11
REMARK    7  A    between atoms: C_11  and  C_12
REMARK    8  A    between atoms: C_11  and  C_13
REMARK    9  A    between atoms: C_18  and  C_19
REMARK   10  A    between atoms: C_23  and  C_24
REMARK   11  A    between atoms: C_24  and  C_25
REMARK   12  A    between atoms: C_31  and  O_32
REMARK   13  A    between atoms: O_32  and  C_33
REMARK                            x       y       z     vdW  Elec       q    Type
REMARK                         _______ _______ _______ _____ _____    ______ ____
ROOT
ATOM      1  N   UNL     1      -1.283  10.747  18.614  0.00  0.00    +0.000 N 
ATOM      2  C   UNL     1      -0.251  10.397  19.486  0.00  0.00    +0.000 A 
ATOM      3  N   UNL     1      -0.519  10.867  20.689  0.00  0.00    +0.000 NA
ATOM      4  C   UNL     1      -1.699  11.556  20.610  0.00  0.00    +0.000 A 
ATOM      5  C   UNL     1      -2.388  12.213  21.651  0.00  0.00    +0.000 A 
ATOM      6  C   UNL     1      -3.607  12.864  21.316  0.00  0.00    +0.000 A 
ATOM      7  C   UNL     1      -4.078  12.837  19.988  0.00  0.00    +0.000 A 
ATOM      8  C   UNL     1      -3.406  12.162  18.958  0.00  0.00    +0.000 A 
ATOM      9  C   UNL     1      -2.199  11.522  19.313  0.00  0.00    +0.000 A 
ENDROOT
BRANCH   2  10
ATOM     10  C   UNL     1       0.883   9.492  19.211  0.00  0.00    +0.000 A 
ATOM     11  C   UNL     1       1.599   9.497  18.011  0.00  0.00    +0.000 A 
ATOM     12  C   UNL     1       2.471   8.454  17.687  0.00  0.00    +0.000 A 
ATOM     13  C   UNL     1       2.719   7.416  18.592  0.00  0.00    +0.000 A 
ATOM     14  C   UNL     1       2.139   7.499  19.863  0.00  0.00    +0.000 A 
ATOM     15  C   UNL     1       1.224   8.518  20.164  0.00  0.00    +0.000 A 
BRANCH  13  16
ATOM     16  C   UNL     1       3.568   6.235  18.159  0.00  0.00    +0.000 C 
ATOM     17  C   UNL     1       2.726   4.997  17.856  0.00  0.00    +0.000 C 
ATOM     18  C   UNL     1       4.466   6.596  16.970  0.00  0.00    +0.000 C 
ENDBRANCH  13  16
ENDBRANCH   2  10
BRANCH   5  19
ATOM     19  C   UNL     1      -1.858  12.201  23.061  0.00  0.00    +0.000 C 
ATOM     20  F   UNL     1      -0.880  11.294  23.328  0.00  0.00    +0.000 F 
ATOM     21  F   UNL     1      -1.348  13.408  23.439  0.00  0.00    +0.000 F 
ATOM     22  F   UNL     1      -2.846  11.932  23.968  0.00  0.00    +0.000 F 
ENDBRANCH   5  19
BRANCH   8  23
ATOM     23  O   UNL     1      -3.847  12.080  17.670  0.00  0.00    +0.000 OA
ATOM     24  C   UNL     1      -5.251  12.092  17.442  0.00  0.00    +0.000 C 
ENDBRANCH   8  23
BRANCH   1  25
ATOM     25  C   UNL     1      -1.433  10.292  17.241  0.00  0.00    +0.000 C 
BRANCH  25  26
ATOM     26  C   UNL     1      -2.702   9.476  17.012  0.00  0.00    +0.000 C 
BRANCH  26  28
ATOM     27  C   UNL     1      -3.059  10.430  14.897  0.00  0.00    +0.000 C 
ATOM     28  O   UNL     1      -2.871   9.213  15.616  0.00  0.00    +0.000 OA
ENDBRANCH  26  28
ENDBRANCH  25  26
ENDBRANCH   1  25
BRANCH   6  29
ATOM     29  C   UNL     1      -4.436  13.624  22.347  0.00  0.00    +0.000 C 
BRANCH  29  30
ATOM     30  C   UNL     1      -5.790  13.024  22.611  0.00  0.00    +0.000 A 
ATOM     31  N   UNL     1      -6.428  12.196  21.806  0.00  0.00    +0.000 NA
ATOM     32  C   UNL     1      -7.650  11.859  22.355  0.00  0.00    +0.000 A 
ATOM     33  C   UNL     1      -7.915  12.396  23.595  0.00  0.00    +0.000 A 
ATOM     34  S   UNL     1      -6.597  13.367  24.096  0.00  0.00    +0.000 S 
ENDBRANCH  29  30
ENDBRANCH   6  29
TORSDOF 9
ENDMDL
MODEL 8
REMARK VINA RESULT:      -6.8      3.456      4.881
REMARK  Name = 
REMARK  13 active torsions:
REMARK  status: ('A' for Active; 'I' for Inactive)
REMARK    1  A    between atoms: C_1  and  O_2
REMARK    2  A    between atoms: O_2  and  C_3
REMARK    3  A    between atoms: C_3  and  C_4
REMARK    4  A    between atoms: C_4  and  N_5
REMARK    5  A    between atoms: C_6  and  C_7
REMARK    6  A    between atoms: C_10  and  C_11
REMARK    7  A    between atoms: C_11  and  C_12
REMARK    8  A    between atoms: C_11  and  C_13
REMARK    9  A    between atoms: C_18  and  C_19
REMARK   10  A    between atoms: C_23  and  C_24
REMARK   11  A    between atoms: C_24  and  C_25
REMARK   12  A    between atoms: C_31  and  O_32
REMARK   13  A    between atoms: O_32  and  C_33
REMARK                            x       y       z     vdW  Elec       q    Type
REMARK                         _______ _______ _______ _____ _____    ______ ____
ROOT
ATOM      1  N   UNL     1       0.471  10.156  20.008  0.00  0.00    +0.000 N 
ATOM      2  C   UNL     1       0.684   9.257  18.962  0.00  0.00    +0.000 A 
ATOM      3  N   UNL     1      -0.288   9.380  18.078  0.00  0.00    +0.000 NA
ATOM      4  C   UNL     1      -1.158  10.325  18.550  0.00  0.00    +0.000 A 
ATOM      5  C   UNL     1      -2.334  10.802  17.932  0.00  0.00    +0.000 A 
ATOM      6  C   UNL     1      -3.078  11.795  18.627  0.00  0.00    +0.000 A 
ATOM      7  C   UNL     1      -2.631  12.261  19.881  0.00  0.00    +0.000 A 
ATOM      8  C   UNL     1      -1.449  11.805  20.482  0.00  0.00    +0.000 A 
ATOM      9  C   UNL     1      -0.727  10.820  19.774  0.00  0.00    +0.000 A 
ENDROOT
BRANCH   2  10
ATOM     10  C   UNL     1       1.877   8.418  18.733  0.00  0.00    +0.000 A 
ATOM     11  C   UNL     1       2.761   8.612  17.668  0.00  0.00    +0.000 A 
ATOM     12  C   UNL     1       3.707   7.641  17.330  0.00  0.00    +0.000 A 
ATOM     13  C   UNL     1       3.856   6.482  18.101  0.00  0.00    +0.000 A 
ATOM     14  C   UNL     1       3.093   6.366  19.268  0.00  0.00    +0.000 A 
ATOM     15  C   UNL     1       2.108   7.317  19.573  0.00  0.00    +0.000 A 
BRANCH  13  16
ATOM     16  C   UNL     1       4.801   5.391  17.633  0.00  0.00    +0.000 C 
ATOM     17  C   UNL     1       5.797   4.983  18.717  0.00  0.00    +0.000 C 
ATOM     18  C   UNL     1       4.033   4.174  17.103  0.00  0.00    +0.000 C 
ENDBRANCH  13  16
ENDBRANCH   2  10
BRANCH   5  19
ATOM     19  C   UNL     1      -2.764  10.290  16.583  0.00  0.00    +0.000 C 
ATOM     20  F   UNL     1      -2.794  11.203  15.575  0.00  0.00    +0.000 F 
ATOM     21  F   UNL     1      -1.974   9.274  16.131  0.00  0.00    +0.000 F 
ATOM     22  F   UNL     1      -4.028   9.767  16.622  0.00  0.00    +0.000 F 
ENDBRANCH   5  19
BRANCH   8  23
ATOM     23  O   UNL     1      -0.963  12.256  21.673  0.00  0.00    +0.000 OA
ATOM     24  C   UNL     1      -1.869  12.890  22.569  0.00  0.00    +0.000 C 
ENDBRANCH   8  23
BRANCH   1  25
ATOM     25  C   UNL     1       1.392  10.431  21.099  0.00  0.00    +0.000 C 
BRANCH  25  26
ATOM     26  C   UNL     1       1.363   9.368  22.193  0.00  0.00    +0.000 C 
BRANCH  26  28
ATOM     27  C   UNL     1      -0.700   9.413  23.313  0.00  0.00    +0.000 C 
ATOM     28  O   UNL     1       0.655   9.858  23.335  0.00  0.00    +0.000 OA
ENDBRANCH  26  28
ENDBRANCH  25  26
ENDBRANCH   1  25
BRANCH   6  29
ATOM     29  C   UNL     1      -4.374  12.378  18.075  0.00  0.00    +0.000 C 
BRANCH  29  30
ATOM     30  C   UNL     1      -5.570  12.171  18.963  0.00  0.00    +0.000 A 
ATOM     31  N   UNL     1      -6.046  13.052  19.822  0.00  0.00    +0.000 NA
ATOM     32  C   UNL     1      -7.138  12.521  20.480  0.00  0.00    +0.000 A 
ATOM     33  C   UNL     1      -7.516  11.257  20.085  0.00  0.00    +0.000 A 
ATOM     34  S   UNL     1      -6.464  10.700  18.854  0.00  0.00    +0.000 S 
ENDBRANCH  29  30
ENDBRANCH   6  29
TORSDOF 9
ENDMDL
MODEL 9
REMARK VINA RESULT:      -6.8      3.232      4.331
REMARK  Name = 
REMARK  13 active torsions:
REMARK  status: ('A' for Active; 'I' for Inactive)
REMARK    1  A    between atoms: C_1  and  O_2
REMARK    2  A    between atoms: O_2  and  C_3
REMARK    3  A    between atoms: C_3  and  C_4
REMARK    4  A    between atoms: C_4  and  N_5
REMARK    5  A    between atoms: C_6  and  C_7
REMARK    6  A    between atoms: C_10  and  C_11
REMARK    7  A    between atoms: C_11  and  C_12
REMARK    8  A    between atoms: C_11  and  C_13
REMARK    9  A    between atoms: C_18  and  C_19
REMARK   10  A    between atoms: C_23  and  C_24
REMARK   11  A    between atoms: C_24  and  C_25
REMARK   12  A    between atoms: C_31  and  O_32
REMARK   13  A    between atoms: O_32  and  C_33
REMARK                            x       y       z     vdW  Elec       q    Type
REMARK                         _______ _______ _______ _____ _____    ______ ____
ROOT
ATOM      1  N   UNL     1       0.009  11.217  20.157  0.00  0.00    +0.000 N 
ATOM      2  C   UNL     1       0.041  10.081  19.345  0.00  0.00    +0.000 A 
ATOM      3  N   UNL     1      -1.118   9.955  18.727  0.00  0.00    +0.000 NA
ATOM      4  C   UNL     1      -1.926  10.975  19.153  0.00  0.00    +0.000 A 
ATOM      5  C   UNL     1      -3.248  11.257  18.748  0.00  0.00    +0.000 A 
ATOM      6  C   UNL     1      -3.884  12.383  19.340  0.00  0.00    +0.000 A 
ATOM      7  C   UNL     1      -3.194  13.164  20.289  0.00  0.00    +0.000 A 
ATOM      8  C   UNL     1      -1.871  12.899  20.671  0.00  0.00    +0.000 A 
ATOM      9  C   UNL     1      -1.259  11.777  20.071  0.00  0.00    +0.000 A 
ENDROOT
BRANCH   2  10
ATOM     10  C   UNL     1       1.210   9.232  19.041  0.00  0.00    +0.000 A 
ATOM     11  C   UNL     1       1.979   9.368  17.883  0.00  0.00    +0.000 A 
ATOM     12  C   UNL     1       2.892   8.380  17.504  0.00  0.00    +0.000 A 
ATOM     13  C   UNL     1       3.127   7.266  18.317  0.00  0.00    +0.000 A 
ATOM     14  C   UNL     1       2.487   7.214  19.561  0.00  0.00    +0.000 A 
ATOM     15  C   UNL     1       1.533   8.179  19.913  0.00  0.00    +0.000 A 
BRANCH  13  16
ATOM     16  C   UNL     1       4.025   6.151  17.815  0.00  0.00    +0.000 C 
ATOM     17  C   UNL     1       3.264   4.844  17.605  0.00  0.00    +0.000 C 
ATOM     18  C   UNL     1       4.774   6.564  16.542  0.00  0.00    +0.000 C 
ENDBRANCH  13  16
ENDBRANCH   2  10
BRANCH   5  19
ATOM     19  C   UNL     1      -3.941  10.406  17.717  0.00  0.00    +0.000 C 
ATOM     20  F   UNL     1      -3.146   9.843  16.768  0.00  0.00    +0.000 F 
ATOM     21  F   UNL     1      -4.636   9.372  18.271  0.00  0.00    +0.000 F 
ATOM     22  F   UNL     1      -4.871  11.125  17.015  0.00  0.00    +0.000 F 
ENDBRANCH   5  19
BRANCH   8  23
ATOM     23  O   UNL     1      -1.156  13.651  21.556  0.00  0.00    +0.000 OA
ATOM     24  C   UNL     1      -1.562  14.997  21.771  0.00  0.00    +0.000 C 
ENDBRANCH   8  23
BRANCH   1  25
ATOM     25  C   UNL     1       1.136  11.779  20.883  0.00  0.00    +0.000 C 
BRANCH  25  26
ATOM     26  C   UNL     1       1.950  12.771  20.058  0.00  0.00    +0.000 C 
BRANCH  26  28
ATOM     27  C   UNL     1       3.288  14.437  21.029  0.00  0.00    +0.000 C 
ATOM     28  O   UNL     1       1.956  14.051  20.695  0.00  0.00    +0.000 OA
ENDBRANCH  26  28
ENDBRANCH  25  26
ENDBRANCH   1  25
BRANCH   6  29
ATOM     29  C   UNL     1      -5.317  12.782  19.000  0.00  0.00    +0.000 C 
BRANCH  29  30
ATOM     30  C   UNL     1      -6.347  12.248  19.956  0.00  0.00    +0.000 A 
ATOM     31  N   UNL     1      -6.904  11.054  19.890  0.00  0.00    +0.000 NA
ATOM     32  C   UNL     1      -7.817  10.906  20.916  0.00  0.00    +0.000 A 
ATOM     33  C   UNL     1      -7.916  11.971  21.784  0.00  0.00    +0.000 A 
ATOM     34  S   UNL     1      -6.839  13.210  21.300  0.00  0.00    +0.000 S 
ENDBRANCH  29  30
ENDBRANCH   6  29
TORSDOF 9
ENDMDL
