MODEL 1
REMARK VINA RESULT:      -7.9      0.000      0.000
REMARK  Name = 
REMARK  8 active torsions:
REMARK  status: ('A' for Active; 'I' for Inactive)
REMARK    1  A    between atoms: C_2  and  O_3
REMARK    2  A    between atoms: C_2  and  C_4
REMARK    3  A    between atoms: C_4  and  C_5
REMARK    4  A    between atoms: C_8  and  C_9
REMARK    5  A    between atoms: C_22  and  C_23
REMARK    6  A    between atoms: C_25  and  C_26
REMARK    7  A    between atoms: C_26  and  C_27
REMARK    8  A    between atoms: C_27  and  O_29
REMARK                            x       y       z     vdW  Elec       q    Type
REMARK                         _______ _______ _______ _____ _____    ______ ____
ROOT
ATOM      1  C   UNL     1       1.225  10.333  19.015  0.00  0.00    +0.000 A 
ATOM      2  N   UNL     1       1.953   9.722  18.040  0.00  0.00    +0.000 NA
ATOM      3  C   UNL     1       2.361   8.460  18.269  0.00  0.00    +0.000 A 
ATOM      4  C   UNL     1       3.187   7.829  17.350  0.00  0.00    +0.000 A 
ATOM      5  C   UNL     1       3.785   6.590  17.628  0.00  0.00    +0.000 A 
ATOM      6  C   UNL     1       4.730   6.018  16.762  0.00  0.00    +0.000 A 
ATOM      7  C   UNL     1       5.391   4.839  17.110  0.00  0.00    +0.000 A 
ATOM      8  C   UNL     1       5.084   4.196  18.306  0.00  0.00    +0.000 A 
ATOM      9  C   UNL     1       4.113   4.729  19.155  0.00  0.00    +0.000 A 
ATOM     10  C   UNL     1       3.468   5.934  18.834  0.00  0.00    +0.000 A 
ATOM     11  C   UNL     1       2.549   6.528  19.710  0.00  0.00    +0.000 A 
ATOM     12  C   UNL     1       2.020   7.785  19.463  0.00  0.00    +0.000 A 
ATOM     13  N   UNL     1       1.236   8.358  20.392  0.00  0.00    +0.000 NA
ATOM     14  C   UNL     1       0.835   9.640  20.169  0.00  0.00    +0.000 A 
ENDROOT
BRANCH   1  18
ATOM     15  C   UNL     1       1.240  14.113  18.853  0.00  0.00    +0.000 A 
ATOM     16  C   UNL     1      -0.053  13.977  18.390  0.00  0.00    +0.000 A 
ATOM     17  S   UNL     1      -0.526  12.341  18.237  0.00  0.00    +0.000 S 
ATOM     18  C   UNL     1       0.999  11.771  18.784  0.00  0.00    +0.000 A 
ATOM     19  C   UNL     1       1.875  12.831  18.951  0.00  0.00    +0.000 A 
BRANCH  15  20
ATOM     20  C   UNL     1       1.906  15.412  19.217  0.00  0.00    +0.000 C 
BRANCH  20  22
ATOM     21  O   UNL     1       3.397  15.499  17.331  0.00  0.00    +0.000 OA
ATOM     22  C   UNL     1       2.639  16.109  18.083  0.00  0.00    +0.000 C 
BRANCH  22  23
ATOM     23  O   UNL     1       2.432  17.432  17.922  0.00  0.00    +0.000 OA
ATOM     24  H   UNL     1       3.035  18.016  18.422  0.00  0.00    +0.000 HD
ENDBRANCH  22  23
ENDBRANCH  20  22
ENDBRANCH  15  20
ENDBRANCH   1  18
BRANCH  14  25
ATOM     25  C   UNL     1       0.011  10.156  21.277  0.00  0.00    +0.000 A 
ATOM     26  C   UNL     1      -0.840  11.251  21.267  0.00  0.00    +0.000 A 
ATOM     27  C   UNL     1      -1.466  11.506  22.533  0.00  0.00    +0.000 A 
ATOM     28  C   UNL     1      -1.128  10.520  23.441  0.00  0.00    +0.000 A 
ATOM     29  S   UNL     1       0.119   9.509  22.863  0.00  0.00    +0.000 S 
BRANCH  27  30
ATOM     30  C   UNL     1      -2.316  12.703  22.847  0.00  0.00    +0.000 C 
BRANCH  30  31
ATOM     31  C   UNL     1      -3.732  12.396  23.273  0.00  0.00    +0.000 C 
ATOM     32  O   UNL     1      -4.101  12.072  24.393  0.00  0.00    +0.000 OA
BRANCH  31  33
ATOM     33  O   UNL     1      -4.602  12.508  22.229  0.00  0.00    +0.000 OA
ATOM     34  H   UNL     1      -4.667  13.398  21.834  0.00  0.00    +0.000 HD
ENDBRANCH  31  33
ENDBRANCH  30  31
ENDBRANCH  27  30
ENDBRANCH  14  25
TORSDOF 8
ENDMDL
MODEL 2
REMARK VINA RESULT:      -7.7      1.098      1.368
REMARK  Name = 
REMARK  8 active torsions:
REMARK  status: ('A' for Active; 'I' for Inactive)
REMARK    1  A    between atoms: C_2  and  O_3
REMARK    2  A    between atoms: C_2  and  C_4
REMARK    3  A    between atoms: C_4  and  C_5
REMARK    4  A    between atoms: C_8  and  C_9
REMARK    5  A    between atoms: C_22  and  C_23
REMARK    6  A    between atoms: C_25  and  C_26
REMARK    7  A    between atoms: C_26  and  C_27
REMARK    8  A    between atoms: C_27  and  O_29
REMARK                            x       y       z     vdW  Elec       q    Type
REMARK                         _______ _______ _______ _____ _____    ______ ____
ROOT
ATOM      1  C   UNL     1       1.217  10.451  19.022  0.00  0.00    +0.000 A 
ATOM      2  N   UNL     1       1.943   9.786  18.082  0.00  0.00    +0.000 NA
ATOM      3  C   UNL     1       2.290   8.514  18.349  0.00  0.00    +0.000 A 
ATOM      4  C   UNL     1       3.113   7.827  17.468  0.00  0.00    +0.000 A 
ATOM      5  C   UNL     1       3.648   6.570  17.789  0.00  0.00    +0.000 A 
ATOM      6  C   UNL     1       4.591   5.938  16.963  0.00  0.00    +0.000 A 
ATOM      7  C   UNL     1       5.189   4.740  17.355  0.00  0.00    +0.000 A 
ATOM      8  C   UNL     1       4.823   4.139  18.556  0.00  0.00    +0.000 A 
ATOM      9  C   UNL     1       3.853   4.732  19.366  0.00  0.00    +0.000 A 
ATOM     10  C   UNL     1       3.271   5.956  19.000  0.00  0.00    +0.000 A 
ATOM     11  C   UNL     1       2.355   6.609  19.837  0.00  0.00    +0.000 A 
ATOM     12  C   UNL     1       1.888   7.882  19.547  0.00  0.00    +0.000 A 
ATOM     13  N   UNL     1       1.105   8.509  20.441  0.00  0.00    +0.000 NA
ATOM     14  C   UNL     1       0.766   9.802  20.180  0.00  0.00    +0.000 A 
ENDROOT
BRANCH   1  18
ATOM     15  C   UNL     1       1.439  14.216  18.723  0.00  0.00    +0.000 A 
ATOM     16  C   UNL     1       0.114  14.142  18.344  0.00  0.00    +0.000 A 
ATOM     17  S   UNL     1      -0.460  12.533  18.278  0.00  0.00    +0.000 S 
ATOM     18  C   UNL     1       1.060  11.891  18.753  0.00  0.00    +0.000 A 
ATOM     19  C   UNL     1       2.004  12.902  18.829  0.00  0.00    +0.000 A 
BRANCH  15  20
ATOM     20  C   UNL     1       2.200  15.484  19.000  0.00  0.00    +0.000 C 
BRANCH  20  22
ATOM     21  O   UNL     1       2.814  17.296  17.541  0.00  0.00    +0.000 OA
ATOM     22  C   UNL     1       2.902  16.097  17.801  0.00  0.00    +0.000 C 
BRANCH  22  23
ATOM     23  O   UNL     1       3.635  15.279  17.018  0.00  0.00    +0.000 OA
ATOM     24  H   UNL     1       3.654  15.511  16.068  0.00  0.00    +0.000 HD
ENDBRANCH  22  23
ENDBRANCH  20  22
ENDBRANCH  15  20
ENDBRANCH   1  18
BRANCH  14  25
ATOM     25  C   UNL     1      -0.064  10.379  21.252  0.00  0.00    +0.000 A 
ATOM     26  C   UNL     1      -0.777  11.568  21.231  0.00  0.00    +0.000 A 
ATOM     27  C   UNL     1      -1.453  11.856  22.464  0.00  0.00    +0.000 A 
ATOM     28  C   UNL     1      -1.296  10.809  23.352  0.00  0.00    +0.000 A 
ATOM     29  S   UNL     1      -0.140   9.674  22.815  0.00  0.00    +0.000 S 
BRANCH  27  30
ATOM     30  C   UNL     1      -2.176  13.136  22.770  0.00  0.00    +0.000 C 
BRANCH  30  31
ATOM     31  C   UNL     1      -1.383  14.152  23.558  0.00  0.00    +0.000 C 
ATOM     32  O   UNL     1      -0.261  14.562  23.297  0.00  0.00    +0.000 OA
BRANCH  31  33
ATOM     33  O   UNL     1      -2.072  14.580  24.654  0.00  0.00    +0.000 OA
ATOM     34  H   UNL     1      -1.839  15.474  24.971  0.00  0.00    +0.000 HD
ENDBRANCH  31  33
ENDBRANCH  30  31
ENDBRANCH  27  30
ENDBRANCH  14  25
TORSDOF 8
ENDMDL
MODEL 3
REMARK VINA RESULT:      -7.7      1.487      1.671
REMARK  Name = 
REMARK  8 active torsions:
REMARK  status: ('A' for Active; 'I' for Inactive)
REMARK    1  A    between atoms: C_2  and  O_3
REMARK    2  A    between atoms: C_2  and  C_4
REMARK    3  A    between atoms: C_4  and  C_5
REMARK    4  A    between atoms: C_8  and  C_9
REMARK    5  A    between atoms: C_22  and  C_23
REMARK    6  A    between atoms: C_25  and  C_26
REMARK    7  A    between atoms: C_26  and  C_27
REMARK    8  A    between atoms: C_27  and  O_29
REMARK                            x       y       z     vdW  Elec       q    Type
REMARK                         _______ _______ _______ _____ _____    ______ ____
ROOT
ATOM      1  C   UNL     1       1.195  10.320  19.028  0.00  0.00    +0.000 A 
ATOM      2  N   UNL     1       1.879   9.645  18.063  0.00  0.00    +0.000 NA
ATOM      3  C   UNL     1       2.287   8.395  18.351  0.00  0.00    +0.000 A 
ATOM      4  C   UNL     1       3.071   7.703  17.439  0.00  0.00    +0.000 A 
ATOM      5  C   UNL     1       3.671   6.477  17.766  0.00  0.00    +0.000 A 
ATOM      6  C   UNL     1       4.577   5.846  16.899  0.00  0.00    +0.000 A 
ATOM      7  C   UNL     1       5.242   4.683  17.291  0.00  0.00    +0.000 A 
ATOM      8  C   UNL     1       4.980   4.116  18.534  0.00  0.00    +0.000 A 
ATOM      9  C   UNL     1       4.048   4.707  19.388  0.00  0.00    +0.000 A 
ATOM     10  C   UNL     1       3.399   5.897  19.021  0.00  0.00    +0.000 A 
ATOM     11  C   UNL     1       2.520   6.550  19.896  0.00  0.00    +0.000 A 
ATOM     12  C   UNL     1       1.990   7.796  19.595  0.00  0.00    +0.000 A 
ATOM     13  N   UNL     1       1.249   8.430  20.519  0.00  0.00    +0.000 NA
ATOM     14  C   UNL     1       0.847   9.701  20.236  0.00  0.00    +0.000 A 
ENDROOT
BRANCH   1  18
ATOM     15  C   UNL     1       1.237  14.082  18.629  0.00  0.00    +0.000 A 
ATOM     16  C   UNL     1      -0.082  13.934  18.248  0.00  0.00    +0.000 A 
ATOM     17  S   UNL     1      -0.578  12.298  18.225  0.00  0.00    +0.000 S 
ATOM     18  C   UNL     1       0.970  11.744  18.720  0.00  0.00    +0.000 A 
ATOM     19  C   UNL     1       1.864  12.801  18.771  0.00  0.00    +0.000 A 
BRANCH  15  20
ATOM     20  C   UNL     1       1.935  15.392  18.873  0.00  0.00    +0.000 C 
BRANCH  20  22
ATOM     21  O   UNL     1       0.683  17.358  18.275  0.00  0.00    +0.000 OA
ATOM     22  C   UNL     1       1.023  16.573  19.159  0.00  0.00    +0.000 C 
BRANCH  22  23
ATOM     23  O   UNL     1       0.589  16.739  20.425  0.00  0.00    +0.000 OA
ATOM     24  H   UNL     1       0.569  17.662  20.746  0.00  0.00    +0.000 HD
ENDBRANCH  22  23
ENDBRANCH  20  22
ENDBRANCH  15  20
ENDBRANCH   1  18
BRANCH  14  25
ATOM     25  C   UNL     1       0.073  10.290  21.343  0.00  0.00    +0.000 A 
ATOM     26  C   UNL     1      -0.261  11.622  21.534  0.00  0.00    +0.000 A 
ATOM     27  C   UNL     1      -0.995  11.864  22.744  0.00  0.00    +0.000 A 
ATOM     28  C   UNL     1      -1.271  10.670  23.383  0.00  0.00    +0.000 A 
ATOM     29  S   UNL     1      -0.424   9.358  22.696  0.00  0.00    +0.000 S 
BRANCH  27  30
ATOM     30  C   UNL     1      -1.357  13.222  23.273  0.00  0.00    +0.000 C 
BRANCH  30  31
ATOM     31  C   UNL     1      -0.690  14.385  22.578  0.00  0.00    +0.000 C 
ATOM     32  O   UNL     1       0.396  14.873  22.855  0.00  0.00    +0.000 OA
BRANCH  31  33
ATOM     33  O   UNL     1      -1.465  14.870  21.566  0.00  0.00    +0.000 OA
ATOM     34  H   UNL     1      -1.279  14.498  20.683  0.00  0.00    +0.000 HD
ENDBRANCH  31  33
ENDBRANCH  30  31
ENDBRANCH  27  30
ENDBRANCH  14  25
TORSDOF 8
ENDMDL
MODEL 4
REMARK VINA RESULT:      -7.5      5.573     10.302
REMARK  Name = 
REMARK  8 active torsions:
REMARK  status: ('A' for Active; 'I' for Inactive)
REMARK    1  A    between atoms: C_2  and  O_3
REMARK    2  A    between atoms: C_2  and  C_4
REMARK    3  A    between atoms: C_4  and  C_5
REMARK    4  A    between atoms: C_8  and  C_9
REMARK    5  A    between atoms: C_22  and  C_23
REMARK    6  A    between atoms: C_25  and  C_26
REMARK    7  A    between atoms: C_26  and  C_27
REMARK    8  A    between atoms: C_27  and  O_29
REMARK                            x       y       z     vdW  Elec       q    Type
REMARK                         _______ _______ _______ _____ _____    ______ ____
ROOT
ATOM      1  C   UNL     1       2.424   6.489  18.522  0.00  0.00    +0.000 A 
ATOM      2  N   UNL     1       1.405   7.317  18.882  0.00  0.00    +0.000 NA
ATOM      3  C   UNL     1       1.543   8.628  18.606  0.00  0.00    +0.000 A 
ATOM      4  C   UNL     1       0.578   9.525  19.041  0.00  0.00    +0.000 A 
ATOM      5  C   UNL     1       0.766  10.912  18.940  0.00  0.00    +0.000 A 
ATOM      6  C   UNL     1      -0.143  11.821  19.505  0.00  0.00    +0.000 A 
ATOM      7  C   UNL     1       0.119  13.192  19.486  0.00  0.00    +0.000 A 
ATOM      8  C   UNL     1       1.269  13.673  18.866  0.00  0.00    +0.000 A 
ATOM      9  C   UNL     1       2.158  12.784  18.259  0.00  0.00    +0.000 A 
ATOM     10  C   UNL     1       1.924  11.400  18.304  0.00  0.00    +0.000 A 
ATOM     11  C   UNL     1       2.845  10.486  17.772  0.00  0.00    +0.000 A 
ATOM     12  C   UNL     1       2.688   9.119  17.941  0.00  0.00    +0.000 A 
ATOM     13  N   UNL     1       3.659   8.293  17.515  0.00  0.00    +0.000 NA
ATOM     14  C   UNL     1       3.528   6.970  17.806  0.00  0.00    +0.000 A 
ENDROOT
BRANCH   1  18
ATOM     15  C   UNL     1       2.685   3.142  20.266  0.00  0.00    +0.000 A 
ATOM     16  C   UNL     1       1.853   2.690  19.261  0.00  0.00    +0.000 A 
ATOM     17  S   UNL     1       1.392   3.935  18.183  0.00  0.00    +0.000 S 
ATOM     18  C   UNL     1       2.294   5.116  19.043  0.00  0.00    +0.000 A 
ATOM     19  C   UNL     1       2.823   4.567  20.199  0.00  0.00    +0.000 A 
BRANCH  15  20
ATOM     20  C   UNL     1       3.366   2.277  21.291  0.00  0.00    +0.000 C 
BRANCH  20  22
ATOM     21  O   UNL     1       5.483   1.221  21.728  0.00  0.00    +0.000 OA
ATOM     22  C   UNL     1       4.759   1.800  20.920  0.00  0.00    +0.000 C 
BRANCH  22  23
ATOM     23  O   UNL     1       5.188   2.033  19.662  0.00  0.00    +0.000 OA
ATOM     24  H   UNL     1       4.593   2.577  19.108  0.00  0.00    +0.000 HD
ENDBRANCH  22  23
ENDBRANCH  20  22
ENDBRANCH  15  20
ENDBRANCH   1  18
BRANCH  14  25
ATOM     25  C   UNL     1       4.673   6.184  17.312  0.00  0.00    +0.000 A 
ATOM     26  C   UNL     1       4.819   5.577  16.073  0.00  0.00    +0.000 A 
ATOM     27  C   UNL     1       6.049   4.852  15.929  0.00  0.00    +0.000 A 
ATOM     28  C   UNL     1       6.838   5.019  17.050  0.00  0.00    +0.000 A 
ATOM     29  S   UNL     1       5.995   5.775  18.327  0.00  0.00    +0.000 S 
BRANCH  27  30
ATOM     30  C   UNL     1       6.403   3.984  14.755  0.00  0.00    +0.000 C 
BRANCH  30  31
ATOM     31  C   UNL     1       7.163   4.675  13.648  0.00  0.00    +0.000 C 
ATOM     32  O   UNL     1       7.935   5.615  13.771  0.00  0.00    +0.000 OA
BRANCH  31  33
ATOM     33  O   UNL     1       6.880   4.127  12.432  0.00  0.00    +0.000 OA
ATOM     34  H   UNL     1       6.317   3.329  12.455  0.00  0.00    +0.000 HD
ENDBRANCH  31  33
ENDBRANCH  30  31
ENDBRANCH  27  30
ENDBRANCH  14  25
TORSDOF 8
ENDMDL
MODEL 5
REMARK VINA RESULT:      -7.5      1.068      1.248
REMARK  Name = 
REMARK  8 active torsions:
REMARK  status: ('A' for Active; 'I' for Inactive)
REMARK    1  A    between atoms: C_2  and  O_3
REMARK    2  A    between atoms: C_2  and  C_4
REMARK    3  A    between atoms: C_4  and  C_5
REMARK    4  A    between atoms: C_8  and  C_9
REMARK    5  A    between atoms: C_22  and  C_23
REMARK    6  A    between atoms: C_25  and  C_26
REMARK    7  A    between atoms: C_26  and  C_27
REMARK    8  A    between atoms: C_27  and  O_29
REMARK                            x       y       z     vdW  Elec       q    Type
REMARK                         _______ _______ _______ _____ _____    ______ ____
ROOT
ATOM      1  C   UNL     1       1.187  10.339  19.048  0.00  0.00    +0.000 A 
ATOM      2  N   UNL     1       1.907   9.732  18.065  0.00  0.00    +0.000 NA
ATOM      3  C   UNL     1       2.328   8.473  18.292  0.00  0.00    +0.000 A 
ATOM      4  C   UNL     1       3.147   7.847  17.363  0.00  0.00    +0.000 A 
ATOM      5  C   UNL     1       3.758   6.614  17.636  0.00  0.00    +0.000 A 
ATOM      6  C   UNL     1       4.697   6.047  16.759  0.00  0.00    +0.000 A 
ATOM      7  C   UNL     1       5.371   4.874  17.102  0.00  0.00    +0.000 A 
ATOM      8  C   UNL     1       5.086   4.232  18.303  0.00  0.00    +0.000 A 
ATOM      9  C   UNL     1       4.121   4.759  19.164  0.00  0.00    +0.000 A 
ATOM     10  C   UNL     1       3.463   5.958  18.848  0.00  0.00    +0.000 A 
ATOM     11  C   UNL     1       2.551   6.547  19.735  0.00  0.00    +0.000 A 
ATOM     12  C   UNL     1       2.009   7.799  19.491  0.00  0.00    +0.000 A 
ATOM     13  N   UNL     1       1.232   8.368  20.429  0.00  0.00    +0.000 NA
ATOM     14  C   UNL     1       0.818   9.646  20.209  0.00  0.00    +0.000 A 
ENDROOT
BRANCH   1  18
ATOM     15  C   UNL     1       1.147  14.120  18.906  0.00  0.00    +0.000 A 
ATOM     16  C   UNL     1      -0.126  13.966  18.396  0.00  0.00    +0.000 A 
ATOM     17  S   UNL     1      -0.567  12.324  18.218  0.00  0.00    +0.000 S 
ATOM     18  C   UNL     1       0.946  11.775  18.816  0.00  0.00    +0.000 A 
ATOM     19  C   UNL     1       1.799  12.848  19.020  0.00  0.00    +0.000 A 
BRANCH  15  20
ATOM     20  C   UNL     1       1.779  15.427  19.301  0.00  0.00    +0.000 C 
BRANCH  20  22
ATOM     21  O   UNL     1       0.577  16.950  20.724  0.00  0.00    +0.000 OA
ATOM     22  C   UNL     1       1.336  15.986  20.642  0.00  0.00    +0.000 C 
BRANCH  22  23
ATOM     23  O   UNL     1       1.806  15.389  21.756  0.00  0.00    +0.000 OA
ATOM     24  H   UNL     1       1.533  15.798  22.600  0.00  0.00    +0.000 HD
ENDBRANCH  22  23
ENDBRANCH  20  22
ENDBRANCH  15  20
ENDBRANCH   1  18
BRANCH  14  25
ATOM     25  C   UNL     1       0.005  10.159  21.326  0.00  0.00    +0.000 A 
ATOM     26  C   UNL     1      -0.754  11.319  21.365  0.00  0.00    +0.000 A 
ATOM     27  C   UNL     1      -1.396  11.545  22.628  0.00  0.00    +0.000 A 
ATOM     28  C   UNL     1      -1.168  10.480  23.479  0.00  0.00    +0.000 A 
ATOM     29  S   UNL     1       0.011   9.407  22.869  0.00  0.00    +0.000 S 
BRANCH  27  30
ATOM     30  C   UNL     1      -2.156  12.787  22.997  0.00  0.00    +0.000 C 
BRANCH  30  31
ATOM     31  C   UNL     1      -3.580  12.562  23.449  0.00  0.00    +0.000 C 
ATOM     32  O   UNL     1      -3.990  12.585  24.601  0.00  0.00    +0.000 OA
BRANCH  31  33
ATOM     33  O   UNL     1      -4.403  12.306  22.393  0.00  0.00    +0.000 OA
ATOM     34  H   UNL     1      -4.917  11.478  22.456  0.00  0.00    +0.000 HD
ENDBRANCH  31  33
ENDBRANCH  30  31
ENDBRANCH  27  30
ENDBRANCH  14  25
TORSDOF 8
ENDMDL
MODEL 6
REMARK VINA RESULT:      -7.4      1.350      1.844
REMARK  Name = 
REMARK  8 active torsions:
REMARK  status: ('A' for Active; 'I' for Inactive)
REMARK    1  A    between atoms: C_2  and  O_3
REMARK    2  A    between atoms: C_2  and  C_4
REMARK    3  A    between atoms: C_4  and  C_5
REMARK    4  A    between atoms: C_8  and  C_9
REMARK    5  A    between atoms: C_22  and  C_23
REMARK    6  A    between atoms: C_25  and  C_26
REMARK    7  A    between atoms: C_26  and  C_27
REMARK    8  A    between atoms: C_27  and  O_29
REMARK                            x       y       z     vdW  Elec       q    Type
REMARK                         _______ _______ _______ _____ _____    ______ ____
ROOT
ATOM      1  C   UNL     1       0.641  11.394  19.531  0.00  0.00    +0.000 A 
ATOM      2  N   UNL     1       1.251  10.527  18.677  0.00  0.00    +0.000 NA
ATOM      3  C   UNL     1       1.424   9.260  19.098  0.00  0.00    +0.000 A 
ATOM      4  C   UNL     1       2.127   8.363  18.305  0.00  0.00    +0.000 A 
ATOM      5  C   UNL     1       2.490   7.093  18.777  0.00  0.00    +0.000 A 
ATOM      6  C   UNL     1       3.320   6.241  18.032  0.00  0.00    +0.000 A 
ATOM      7  C   UNL     1       3.756   5.028  18.566  0.00  0.00    +0.000 A 
ATOM      8  C   UNL     1       3.335   4.633  19.833  0.00  0.00    +0.000 A 
ATOM      9  C   UNL     1       2.472   5.449  20.567  0.00  0.00    +0.000 A 
ATOM     10  C   UNL     1       2.056   6.689  20.055  0.00  0.00    +0.000 A 
ATOM     11  C   UNL     1       1.256   7.559  20.808  0.00  0.00    +0.000 A 
ATOM     12  C   UNL     1       0.963   8.840  20.366  0.00  0.00    +0.000 A 
ATOM     13  N   UNL     1       0.292   9.674  21.178  0.00  0.00    +0.000 NA
ATOM     14  C   UNL     1       0.129  10.960  20.761  0.00  0.00    +0.000 A 
ENDROOT
BRANCH   1  18
ATOM     15  C   UNL     1       1.401  15.012  18.723  0.00  0.00    +0.000 A 
ATOM     16  C   UNL     1       0.049  15.110  18.460  0.00  0.00    +0.000 A 
ATOM     17  S   UNL     1      -0.766  13.619  18.652  0.00  0.00    +0.000 S 
ATOM     18  C   UNL     1       0.679  12.799  19.088  0.00  0.00    +0.000 A 
ATOM     19  C   UNL     1       1.768  13.646  18.956  0.00  0.00    +0.000 A 
BRANCH  15  20
ATOM     20  C   UNL     1       2.368  16.163  18.770  0.00  0.00    +0.000 C 
BRANCH  20  22
ATOM     21  O   UNL     1       2.941  17.574  16.908  0.00  0.00    +0.000 OA
ATOM     22  C   UNL     1       3.066  16.482  17.460  0.00  0.00    +0.000 C 
BRANCH  22  23
ATOM     23  O   UNL     1       3.837  15.522  16.910  0.00  0.00    +0.000 OA
ATOM     24  H   UNL     1       4.800  15.684  16.945  0.00  0.00    +0.000 HD
ENDBRANCH  22  23
ENDBRANCH  20  22
ENDBRANCH  15  20
ENDBRANCH   1  18
BRANCH  14  25
ATOM     25  C   UNL     1      -0.593  11.772  21.757  0.00  0.00    +0.000 A 
ATOM     26  C   UNL     1      -1.792  11.479  22.387  0.00  0.00    +0.000 A 
ATOM     27  C   UNL     1      -2.241  12.510  23.280  0.00  0.00    +0.000 A 
ATOM     28  C   UNL     1      -1.299  13.518  23.359  0.00  0.00    +0.000 A 
ATOM     29  S   UNL     1      -0.075  13.352  22.181  0.00  0.00    +0.000 S 
BRANCH  27  30
ATOM     30  C   UNL     1      -3.569  12.523  23.980  0.00  0.00    +0.000 C 
BRANCH  30  31
ATOM     31  C   UNL     1      -4.753  12.881  23.113  0.00  0.00    +0.000 C 
ATOM     32  O   UNL     1      -5.862  12.368  23.146  0.00  0.00    +0.000 OA
BRANCH  31  33
ATOM     33  O   UNL     1      -4.442  13.876  22.234  0.00  0.00    +0.000 OA
ATOM     34  H   UNL     1      -3.577  13.786  21.789  0.00  0.00    +0.000 HD
ENDBRANCH  31  33
ENDBRANCH  30  31
ENDBRANCH  27  30
ENDBRANCH  14  25
TORSDOF 8
ENDMDL
MODEL 7
REMARK VINA RESULT:      -7.3      5.287     10.199
REMARK  Name = 
REMARK  8 active torsions:
REMARK  status: ('A' for Active; 'I' for Inactive)
REMARK    1  A    between atoms: C_2  and  O_3
REMARK    2  A    between atoms: C_2  and  C_4
REMARK    3  A    between atoms: C_4  and  C_5
REMARK    4  A    between atoms: C_8  and  C_9
REMARK    5  A    between atoms: C_22  and  C_23
REMARK    6  A    between atoms: C_25  and  C_26
REMARK    7  A    between atoms: C_26  and  C_27
REMARK    8  A    between atoms: C_27  and  O_29
REMARK                            x       y       z     vdW  Elec       q    Type
REMARK                         _______ _______ _______ _____ _____    ______ ____
ROOT
ATOM      1  C   UNL     1       2.502   7.063  19.057  0.00  0.00    +0.000 A 
ATOM      2  N   UNL     1       1.490   7.813  19.573  0.00  0.00    +0.000 NA
ATOM      3  C   UNL     1       1.384   9.087  19.152  0.00  0.00    +0.000 A 
ATOM      4  C   UNL     1       0.431   9.921  19.721  0.00  0.00    +0.000 A 
ATOM      5  C   UNL     1       0.403  11.297  19.450  0.00  0.00    +0.000 A 
ATOM      6  C   UNL     1      -0.467  12.164  20.131  0.00  0.00    +0.000 A 
ATOM      7  C   UNL     1      -0.403  13.542  19.922  0.00  0.00    +0.000 A 
ATOM      8  C   UNL     1       0.499  14.066  19.002  0.00  0.00    +0.000 A 
ATOM      9  C   UNL     1       1.339  13.212  18.284  0.00  0.00    +0.000 A 
ATOM     10  C   UNL     1       1.310  11.827  18.512  0.00  0.00    +0.000 A 
ATOM     11  C   UNL     1       2.199  10.961  17.861  0.00  0.00    +0.000 A 
ATOM     12  C   UNL     1       2.271   9.616  18.188  0.00  0.00    +0.000 A 
ATOM     13  N   UNL     1       3.221   8.855  17.619  0.00  0.00    +0.000 NA
ATOM     14  C   UNL     1       3.340   7.570  18.054  0.00  0.00    +0.000 A 
ENDROOT
BRANCH   1  18
ATOM     15  C   UNL     1       3.431   3.578  20.200  0.00  0.00    +0.000 A 
ATOM     16  C   UNL     1       2.301   3.667  20.987  0.00  0.00    +0.000 A 
ATOM     17  S   UNL     1       1.516   5.179  20.840  0.00  0.00    +0.000 S 
ATOM     18  C   UNL     1       2.680   5.758  19.718  0.00  0.00    +0.000 A 
ATOM     19  C   UNL     1       3.707   4.839  19.576  0.00  0.00    +0.000 A 
BRANCH  15  20
ATOM     20  C   UNL     1       4.266   2.342  20.006  0.00  0.00    +0.000 C 
BRANCH  20  22
ATOM     21  O   UNL     1       3.313   2.032  17.819  0.00  0.00    +0.000 OA
ATOM     22  C   UNL     1       3.988   1.562  18.733  0.00  0.00    +0.000 C 
BRANCH  22  23
ATOM     23  O   UNL     1       4.508   0.321  18.631  0.00  0.00    +0.000 OA
ATOM     24  H   UNL     1       3.856  -0.406  18.590  0.00  0.00    +0.000 HD
ENDBRANCH  22  23
ENDBRANCH  20  22
ENDBRANCH  15  20
ENDBRANCH   1  18
BRANCH  14  25
ATOM     25  C   UNL     1       4.437   6.860  17.374  0.00  0.00    +0.000 A 
ATOM     26  C   UNL     1       4.346   5.777  16.513  0.00  0.00    +0.000 A 
ATOM     27  C   UNL     1       5.618   5.298  16.053  0.00  0.00    +0.000 A 
ATOM     28  C   UNL     1       6.633   6.111  16.520  0.00  0.00    +0.000 A 
ATOM     29  S   UNL     1       6.084   7.219  17.697  0.00  0.00    +0.000 S 
BRANCH  27  30
ATOM     30  C   UNL     1       5.826   4.057  15.233  0.00  0.00    +0.000 C 
BRANCH  30  31
ATOM     31  C   UNL     1       6.541   4.263  13.919  0.00  0.00    +0.000 C 
ATOM     32  O   UNL     1       7.266   5.202  13.624  0.00  0.00    +0.000 OA
BRANCH  31  33
ATOM     33  O   UNL     1       6.275   3.252  13.043  0.00  0.00    +0.000 OA
ATOM     34  H   UNL     1       6.011   3.536  12.147  0.00  0.00    +0.000 HD
ENDBRANCH  31  33
ENDBRANCH  30  31
ENDBRANCH  27  30
ENDBRANCH  14  25
TORSDOF 8
ENDMDL
MODEL 8
REMARK VINA RESULT:      -7.3      1.472      1.686
REMARK  Name = 
REMARK  8 active torsions:
REMARK  status: ('A' for Active; 'I' for Inactive)
REMARK    1  A    between atoms: C_2  and  O_3
REMARK    2  A    between atoms: C_2  and  C_4
REMARK    3  A    between atoms: C_4  and  C_5
REMARK    4  A    between atoms: C_8  and  C_9
REMARK    5  A    between atoms: C_22  and  C_23
REMARK    6  A    between atoms: C_25  and  C_26
REMARK    7  A    between atoms: C_26  and  C_27
REMARK    8  A    between atoms: C_27  and  O_29
REMARK                            x       y       z     vdW  Elec       q    Type
REMARK                         _______ _______ _______ _____ _____    ______ ____
ROOT
ATOM      1  C   UNL     1       1.187  10.389  19.053  0.00  0.00    +0.000 A 
ATOM      2  N   UNL     1       1.873   9.719  18.088  0.00  0.00    +0.000 NA
ATOM      3  C   UNL     1       2.273   8.464  18.367  0.00  0.00    +0.000 A 
ATOM      4  C   UNL     1       3.060   7.776  17.455  0.00  0.00    +0.000 A 
ATOM      5  C   UNL     1       3.651   6.545  17.776  0.00  0.00    +0.000 A 
ATOM      6  C   UNL     1       4.560   5.916  16.910  0.00  0.00    +0.000 A 
ATOM      7  C   UNL     1       5.217   4.747  17.296  0.00  0.00    +0.000 A 
ATOM      8  C   UNL     1       4.943   4.170  18.532  0.00  0.00    +0.000 A 
ATOM      9  C   UNL     1       4.008   4.759  19.385  0.00  0.00    +0.000 A 
ATOM     10  C   UNL     1       3.367   5.955  19.024  0.00  0.00    +0.000 A 
ATOM     11  C   UNL     1       2.486   6.606  19.898  0.00  0.00    +0.000 A 
ATOM     12  C   UNL     1       1.965   7.856  19.604  0.00  0.00    +0.000 A 
ATOM     13  N   UNL     1       1.220   8.487  20.528  0.00  0.00    +0.000 NA
ATOM     14  C   UNL     1       0.827   9.761  20.254  0.00  0.00    +0.000 A 
ENDROOT
BRANCH   1  18
ATOM     15  C   UNL     1       1.268  14.151  18.659  0.00  0.00    +0.000 A 
ATOM     16  C   UNL     1      -0.066  14.023  18.327  0.00  0.00    +0.000 A 
ATOM     17  S   UNL     1      -0.586  12.394  18.319  0.00  0.00    +0.000 S 
ATOM     18  C   UNL     1       0.971  11.817  18.756  0.00  0.00    +0.000 A 
ATOM     19  C   UNL     1       1.881  12.861  18.776  0.00  0.00    +0.000 A 
BRANCH  15  20
ATOM     20  C   UNL     1       1.993  15.451  18.880  0.00  0.00    +0.000 C 
BRANCH  20  22
ATOM     21  O   UNL     1       2.401  15.465  21.251  0.00  0.00    +0.000 OA
ATOM     22  C   UNL     1       2.874  15.504  20.116  0.00  0.00    +0.000 C 
BRANCH  22  23
ATOM     23  O   UNL     1       4.207  15.597  19.933  0.00  0.00    +0.000 OA
ATOM     24  H   UNL     1       4.507  15.581  19.003  0.00  0.00    +0.000 HD
ENDBRANCH  22  23
ENDBRANCH  20  22
ENDBRANCH  15  20
ENDBRANCH   1  18
BRANCH  14  25
ATOM     25  C   UNL     1       0.048  10.345  21.360  0.00  0.00    +0.000 A 
ATOM     26  C   UNL     1      -0.262  11.680  21.572  0.00  0.00    +0.000 A 
ATOM     27  C   UNL     1      -1.009  11.913  22.775  0.00  0.00    +0.000 A 
ATOM     28  C   UNL     1      -1.318  10.714  23.388  0.00  0.00    +0.000 A 
ATOM     29  S   UNL     1      -0.486   9.398  22.688  0.00  0.00    +0.000 S 
BRANCH  27  30
ATOM     30  C   UNL     1      -1.353  13.268  23.325  0.00  0.00    +0.000 C 
BRANCH  30  31
ATOM     31  C   UNL     1      -1.336  14.396  22.320  0.00  0.00    +0.000 C 
ATOM     32  O   UNL     1      -2.201  14.648  21.494  0.00  0.00    +0.000 OA
BRANCH  31  33
ATOM     33  O   UNL     1      -0.195  15.135  22.422  0.00  0.00    +0.000 OA
ATOM     34  H   UNL     1      -0.166  15.756  23.175  0.00  0.00    +0.000 HD
ENDBRANCH  31  33
ENDBRANCH  30  31
ENDBRANCH  27  30
ENDBRANCH  14  25
TORSDOF 8
ENDMDL
MODEL 9
REMARK VINA RESULT:      -7.2      4.408      6.669
REMARK  Name = 
REMARK  8 active torsions:
REMARK  status: ('A' for Active; 'I' for Inactive)
REMARK    1  A    between atoms: C_2  and  O_3
REMARK    2  A    between atoms: C_2  and  C_4
REMARK    3  A    between atoms: C_4  and  C_5
REMARK    4  A    between atoms: C_8  and  C_9
REMARK    5  A    between atoms: C_22  and  C_23
REMARK    6  A    between atoms: C_25  and  C_26
REMARK    7  A    between atoms: C_26  and  C_27
REMARK    8  A    between atoms: C_27  and  O_29
REMARK                            x       y       z     vdW  Elec       q    Type
REMARK                         _______ _______ _______ _____ _____    ______ ____
ROOT
ATOM      1  C   UNL     1       0.954  12.484  19.677  0.00  0.00    +0.000 A 
ATOM      2  N   UNL     1       2.058  12.869  18.979  0.00  0.00    +0.000 NA
ATOM      3  C   UNL     1       2.852  13.801  19.538  0.00  0.00    +0.000 A 
ATOM      4  C   UNL     1       3.935  14.297  18.825  0.00  0.00    +0.000 A 
ATOM      5  C   UNL     1       4.679  15.393  19.287  0.00  0.00    +0.000 A 
ATOM      6  C   UNL     1       5.682  15.985  18.502  0.00  0.00    +0.000 A 
ATOM      7  C   UNL     1       6.335  17.139  18.937  0.00  0.00    +0.000 A 
ATOM      8  C   UNL     1       6.024  17.691  20.176  0.00  0.00    +0.000 A 
ATOM      9  C   UNL     1       5.061  17.087  20.987  0.00  0.00    +0.000 A 
ATOM     10  C   UNL     1       4.371  15.946  20.545  0.00  0.00    +0.000 A 
ATOM     11  C   UNL     1       3.345  15.372  21.308  0.00  0.00    +0.000 A 
ATOM     12  C   UNL     1       2.567  14.337  20.813  0.00  0.00    +0.000 A 
ATOM     13  N   UNL     1       1.522  13.902  21.538  0.00  0.00    +0.000 NA
ATOM     14  C   UNL     1       0.708  12.970  20.968  0.00  0.00    +0.000 A 
ENDROOT
BRANCH   1  18
ATOM     15  C   UNL     1      -1.945  10.700  18.026  0.00  0.00    +0.000 A 
ATOM     16  C   UNL     1      -1.026   9.703  17.767  0.00  0.00    +0.000 A 
ATOM     17  S   UNL     1       0.544  10.100  18.317  0.00  0.00    +0.000 S 
ATOM     18  C   UNL     1       0.030  11.626  18.913  0.00  0.00    +0.000 A 
ATOM     19  C   UNL     1      -1.293  11.854  18.571  0.00  0.00    +0.000 A 
BRANCH  15  20
ATOM     20  C   UNL     1      -3.428  10.605  17.787  0.00  0.00    +0.000 C 
BRANCH  20  22
ATOM     21  O   UNL     1      -3.580  10.960  15.412  0.00  0.00    +0.000 OA
ATOM     22  C   UNL     1      -3.931  11.308  16.538  0.00  0.00    +0.000 C 
BRANCH  22  23
ATOM     23  O   UNL     1      -4.787  12.338  16.700  0.00  0.00    +0.000 OA
ATOM     24  H   UNL     1      -4.374  13.221  16.776  0.00  0.00    +0.000 HD
ENDBRANCH  22  23
ENDBRANCH  20  22
ENDBRANCH  15  20
ENDBRANCH   1  18
BRANCH  14  25
ATOM     25  C   UNL     1      -0.413  12.607  21.853  0.00  0.00    +0.000 A 
ATOM     26  C   UNL     1      -1.373  13.445  22.399  0.00  0.00    +0.000 A 
ATOM     27  C   UNL     1      -2.307  12.770  23.255  0.00  0.00    +0.000 A 
ATOM     28  C   UNL     1      -2.065  11.409  23.248  0.00  0.00    +0.000 A 
ATOM     29  S   UNL     1      -0.596  11.017  22.474  0.00  0.00    +0.000 S 
BRANCH  27  30
ATOM     30  C   UNL     1      -3.357  13.448  24.087  0.00  0.00    +0.000 C 
BRANCH  30  31
ATOM     31  C   UNL     1      -4.617  12.648  24.314  0.00  0.00    +0.000 C 
ATOM     32  O   UNL     1      -5.466  12.373  23.478  0.00  0.00    +0.000 OA
BRANCH  31  33
ATOM     33  O   UNL     1      -4.729  12.254  25.615  0.00  0.00    +0.000 OA
ATOM     34  H   UNL     1      -4.186  11.482  25.865  0.00  0.00    +0.000 HD
ENDBRANCH  31  33
ENDBRANCH  30  31
ENDBRANCH  27  30
ENDBRANCH  14  25
TORSDOF 8
ENDMDL
