MODEL 1
REMARK VINA RESULT:      -6.7      0.000      0.000
REMARK  Name = 
REMARK  6 active torsions:
REMARK  status: ('A' for Active; 'I' for Inactive)
REMARK    1  A    between atoms: C_1  and  N_2
REMARK    2  A    between atoms: N_2  and  C_3
REMARK    3  A    between atoms: N_2  and  C_4
REMARK    4  A    between atoms: N_6  and  C_7
REMARK    5  A    between atoms: C_7  and  C_8
REMARK    6  A    between atoms: C_17  and  C_18
REMARK                            x       y       z     vdW  Elec       q    Type
REMARK                         _______ _______ _______ _____ _____    ______ ____
ROOT
ATOM      1  C   UNL     1       4.688   3.629  17.711  0.00  0.00    +0.000 C 
ATOM      2  C   UNL     1       4.086   4.619  16.677  0.00  0.00    +0.000 C 
ATOM      3  N   UNL     1       3.764   5.855  17.408  0.00  0.00    +0.000 NA
ATOM      4  C   UNL     1       4.802   5.931  18.464  0.00  0.00    +0.000 C 
ATOM      5  C   UNL     1       5.624   4.601  18.477  0.00  0.00    +0.000 C 
ENDROOT
BRANCH   5   6
ATOM      6  C   UNL     1       7.051   4.686  17.823  0.00  0.00    +0.000 C 
ATOM      7  C   UNL     1       7.167   5.736  16.698  0.00  0.00    +0.000 C 
ATOM      8  C   UNL     1       7.170   7.181  17.189  0.00  0.00    +0.000 C 
ATOM      9  C   UNL     1       8.192   7.453  18.289  0.00  0.00    +0.000 C 
ATOM     10  C   UNL     1       8.223   6.390  19.380  0.00  0.00    +0.000 C 
ATOM     11  C   UNL     1       8.202   4.968  18.824  0.00  0.00    +0.000 C 
ENDBRANCH   5   6
BRANCH   1  13
ATOM     12  C   UNL     1       4.419   2.251  19.716  0.00  0.00    +0.000 C 
ATOM     13  N   UNL     1       3.728   2.951  18.627  0.00  0.00    +0.000 NA
ATOM     14  C   UNL     1       2.853   2.000  17.932  0.00  0.00    +0.000 C 
ENDBRANCH   1  13
BRANCH   3  15
ATOM     15  C   UNL     1       2.375   5.753  17.916  0.00  0.00    +0.000 C 
BRANCH  15  16
ATOM     16  C   UNL     1       1.908   6.777  18.918  0.00  0.00    +0.000 A 
ATOM     17  C   UNL     1       1.822   8.108  18.497  0.00  0.00    +0.000 A 
ATOM     18  F   UNL     1       2.108   8.439  17.224  0.00  0.00    +0.000 F 
ATOM     19  C   UNL     1       1.487   9.147  19.367  0.00  0.00    +0.000 A 
ATOM     20  C   UNL     1       1.234   8.859  20.698  0.00  0.00    +0.000 A 
ATOM     21  C   UNL     1       1.340   7.551  21.157  0.00  0.00    +0.000 A 
ATOM     22  C   UNL     1       1.692   6.511  20.280  0.00  0.00    +0.000 A 
ATOM     23 BR   UNL     1       1.924   4.786  21.042  0.00  0.00    +0.000 Br
ENDBRANCH  15  16
ENDBRANCH   3  15
TORSDOF 4
ENDMDL
MODEL 2
REMARK VINA RESULT:      -6.2      7.081      8.840
REMARK  Name = 
REMARK  6 active torsions:
REMARK  status: ('A' for Active; 'I' for Inactive)
REMARK    1  A    between atoms: C_1  and  N_2
REMARK    2  A    between atoms: N_2  and  C_3
REMARK    3  A    between atoms: N_2  and  C_4
REMARK    4  A    between atoms: N_6  and  C_7
REMARK    5  A    between atoms: C_7  and  C_8
REMARK    6  A    between atoms: C_17  and  C_18
REMARK                            x       y       z     vdW  Elec       q    Type
REMARK                         _______ _______ _______ _____ _____    ______ ____
ROOT
ATOM      1  C   UNL     1       0.610  11.739  21.183  0.00  0.00    +0.000 C 
ATOM      2  C   UNL     1       0.799  10.552  20.200  0.00  0.00    +0.000 C 
ATOM      3  N   UNL     1       0.010  10.865  18.997  0.00  0.00    +0.000 NA
ATOM      4  C   UNL     1       0.077  12.342  18.896  0.00  0.00    +0.000 C 
ATOM      5  C   UNL     1       0.747  12.919  20.185  0.00  0.00    +0.000 C 
ENDROOT
BRANCH   5   6
ATOM      6  C   UNL     1       2.241  13.380  20.017  0.00  0.00    +0.000 C 
ATOM      7  C   UNL     1       2.525  14.126  18.697  0.00  0.00    +0.000 C 
ATOM      8  C   UNL     1       1.953  15.540  18.641  0.00  0.00    +0.000 C 
ATOM      9  C   UNL     1       2.331  16.403  19.841  0.00  0.00    +0.000 C 
ATOM     10  C   UNL     1       2.193  15.691  21.181  0.00  0.00    +0.000 C 
ATOM     11  C   UNL     1       2.770  14.277  21.166  0.00  0.00    +0.000 C 
ENDBRANCH   5   6
BRANCH   1  13
ATOM     12  C   UNL     1      -0.859  13.080  22.610  0.00  0.00    +0.000 C 
ATOM     13  N   UNL     1      -0.681  11.794  21.927  0.00  0.00    +0.000 NA
ATOM     14  C   UNL     1      -0.818  10.712  22.909  0.00  0.00    +0.000 C 
ENDBRANCH   1  13
BRANCH   3  15
ATOM     15  C   UNL     1      -1.358  10.321  19.178  0.00  0.00    +0.000 C 
BRANCH  15  16
ATOM     16  C   UNL     1      -2.357  10.531  18.070  0.00  0.00    +0.000 A 
ATOM     17  C   UNL     1      -2.090   9.939  16.831  0.00  0.00    +0.000 A 
ATOM     18  F   UNL     1      -0.994   9.175  16.664  0.00  0.00    +0.000 F 
ATOM     19  C   UNL     1      -2.903  10.143  15.714  0.00  0.00    +0.000 A 
ATOM     20  C   UNL     1      -4.012  10.963  15.827  0.00  0.00    +0.000 A 
ATOM     21  C   UNL     1      -4.291  11.591  17.035  0.00  0.00    +0.000 A 
ATOM     22  C   UNL     1      -3.461  11.394  18.152  0.00  0.00    +0.000 A 
ATOM     23 BR   UNL     1      -3.871  12.396  19.714  0.00  0.00    +0.000 Br
ENDBRANCH  15  16
ENDBRANCH   3  15
TORSDOF 4
ENDMDL
MODEL 3
REMARK VINA RESULT:      -6.1      1.594      1.880
REMARK  Name = 
REMARK  6 active torsions:
REMARK  status: ('A' for Active; 'I' for Inactive)
REMARK    1  A    between atoms: C_1  and  N_2
REMARK    2  A    between atoms: N_2  and  C_3
REMARK    3  A    between atoms: N_2  and  C_4
REMARK    4  A    between atoms: N_6  and  C_7
REMARK    5  A    between atoms: C_7  and  C_8
REMARK    6  A    between atoms: C_17  and  C_18
REMARK                            x       y       z     vdW  Elec       q    Type
REMARK                         _______ _______ _______ _____ _____    ______ ____
ROOT
ATOM      1  C   UNL     1       4.581   3.688  17.839  0.00  0.00    +0.000 C 
ATOM      2  C   UNL     1       3.952   4.682  16.826  0.00  0.00    +0.000 C 
ATOM      3  N   UNL     1       3.678   5.926  17.563  0.00  0.00    +0.000 NA
ATOM      4  C   UNL     1       4.759   5.991  18.576  0.00  0.00    +0.000 C 
ATOM      5  C   UNL     1       5.561   4.649  18.562  0.00  0.00    +0.000 C 
ENDROOT
BRANCH   5   6
ATOM      6  C   UNL     1       6.962   4.710  17.851  0.00  0.00    +0.000 C 
ATOM      7  C   UNL     1       7.048   5.757  16.720  0.00  0.00    +0.000 C 
ATOM      8  C   UNL     1       7.094   7.202  17.207  0.00  0.00    +0.000 C 
ATOM      9  C   UNL     1       8.163   7.460  18.264  0.00  0.00    +0.000 C 
ATOM     10  C   UNL     1       8.222   6.398  19.355  0.00  0.00    +0.000 C 
ATOM     11  C   UNL     1       8.156   4.976  18.804  0.00  0.00    +0.000 C 
ENDBRANCH   5   6
BRANCH   1  13
ATOM     12  C   UNL     1       4.364   2.464  19.948  0.00  0.00    +0.000 C 
ATOM     13  N   UNL     1       3.650   3.027  18.796  0.00  0.00    +0.000 NA
ATOM     14  C   UNL     1       2.848   1.969  18.171  0.00  0.00    +0.000 C 
ENDBRANCH   1  13
BRANCH   3  15
ATOM     15  C   UNL     1       2.309   5.846  18.128  0.00  0.00    +0.000 C 
BRANCH  15  16
ATOM     16  C   UNL     1       1.951   6.777  19.258  0.00  0.00    +0.000 A 
ATOM     17  C   UNL     1       1.569   6.205  20.476  0.00  0.00    +0.000 A 
ATOM     18  F   UNL     1       1.567   4.868  20.630  0.00  0.00    +0.000 F 
ATOM     19  C   UNL     1       1.133   6.973  21.557  0.00  0.00    +0.000 A 
ATOM     20  C   UNL     1       1.069   8.350  21.426  0.00  0.00    +0.000 A 
ATOM     21  C   UNL     1       1.414   8.949  20.220  0.00  0.00    +0.000 A 
ATOM     22  C   UNL     1       1.838   8.170  19.130  0.00  0.00    +0.000 A 
ATOM     23 BR   UNL     1       2.167   9.085  17.497  0.00  0.00    +0.000 Br
ENDBRANCH  15  16
ENDBRANCH   3  15
TORSDOF 4
ENDMDL
MODEL 4
REMARK VINA RESULT:      -6.1      3.542      6.832
REMARK  Name = 
REMARK  6 active torsions:
REMARK  status: ('A' for Active; 'I' for Inactive)
REMARK    1  A    between atoms: C_1  and  N_2
REMARK    2  A    between atoms: N_2  and  C_3
REMARK    3  A    between atoms: N_2  and  C_4
REMARK    4  A    between atoms: N_6  and  C_7
REMARK    5  A    between atoms: C_7  and  C_8
REMARK    6  A    between atoms: C_17  and  C_18
REMARK                            x       y       z     vdW  Elec       q    Type
REMARK                         _______ _______ _______ _____ _____    ______ ____
ROOT
ATOM      1  C   UNL     1       5.063   5.795  17.492  0.00  0.00    +0.000 C 
ATOM      2  C   UNL     1       4.859   5.778  15.953  0.00  0.00    +0.000 C 
ATOM      3  N   UNL     1       4.732   4.367  15.555  0.00  0.00    +0.000 NA
ATOM      4  C   UNL     1       4.073   3.722  16.715  0.00  0.00    +0.000 C 
ATOM      5  C   UNL     1       4.001   4.740  17.900  0.00  0.00    +0.000 C 
ENDROOT
BRANCH   5   6
ATOM      6  C   UNL     1       2.588   5.387  18.144  0.00  0.00    +0.000 C 
ATOM      7  C   UNL     1       1.404   4.454  17.821  0.00  0.00    +0.000 C 
ATOM      8  C   UNL     1       1.200   3.328  18.830  0.00  0.00    +0.000 C 
ATOM      9  C   UNL     1       1.131   3.806  20.277  0.00  0.00    +0.000 C 
ATOM     10  C   UNL     1       2.200   4.828  20.641  0.00  0.00    +0.000 C 
ATOM     11  C   UNL     1       2.365   5.918  19.585  0.00  0.00    +0.000 C 
ENDBRANCH   5   6
BRANCH   1  13
ATOM     12  C   UNL     1       6.364   4.850  19.337  0.00  0.00    +0.000 C 
ATOM     13  N   UNL     1       6.419   5.434  17.993  0.00  0.00    +0.000 NA
ATOM     14  C   UNL     1       7.342   6.574  18.008  0.00  0.00    +0.000 C 
ENDBRANCH   1  13
BRANCH   3  15
ATOM     15  C   UNL     1       6.085   3.844  15.245  0.00  0.00    +0.000 C 
BRANCH  15  16
ATOM     16  C   UNL     1       6.771   4.341  13.999  0.00  0.00    +0.000 A 
ATOM     17  C   UNL     1       7.762   5.317  14.147  0.00  0.00    +0.000 A 
ATOM     18  F   UNL     1       8.110   5.754  15.371  0.00  0.00    +0.000 F 
ATOM     19  C   UNL     1       8.396   5.909  13.053  0.00  0.00    +0.000 A 
ATOM     20  C   UNL     1       8.033   5.527  11.772  0.00  0.00    +0.000 A 
ATOM     21  C   UNL     1       7.031   4.582  11.589  0.00  0.00    +0.000 A 
ATOM     22  C   UNL     1       6.385   3.999  12.693  0.00  0.00    +0.000 A 
ATOM     23 BR   UNL     1       4.951   2.810  12.320  0.00  0.00    +0.000 Br
ENDBRANCH  15  16
ENDBRANCH   3  15
TORSDOF 4
ENDMDL
MODEL 5
REMARK VINA RESULT:      -5.9      7.090     11.770
REMARK  Name = 
REMARK  6 active torsions:
REMARK  status: ('A' for Active; 'I' for Inactive)
REMARK    1  A    between atoms: C_1  and  N_2
REMARK    2  A    between atoms: N_2  and  C_3
REMARK    3  A    between atoms: N_2  and  C_4
REMARK    4  A    between atoms: N_6  and  C_7
REMARK    5  A    between atoms: C_7  and  C_8
REMARK    6  A    between atoms: C_17  and  C_18
REMARK                            x       y       z     vdW  Elec       q    Type
REMARK                         _______ _______ _______ _____ _____    ______ ____
ROOT
ATOM      1  C   UNL     1      -3.414  14.020  22.031  0.00  0.00    +0.000 C 
ATOM      2  C   UNL     1      -2.317  14.402  21.000  0.00  0.00    +0.000 C 
ATOM      3  N   UNL     1      -1.749  13.142  20.495  0.00  0.00    +0.000 NA
ATOM      4  C   UNL     1      -2.890  12.195  20.525  0.00  0.00    +0.000 C 
ATOM      5  C   UNL     1      -4.098  12.863  21.257  0.00  0.00    +0.000 C 
ENDROOT
BRANCH   5   6
ATOM      6  C   UNL     1      -5.250  13.380  20.320  0.00  0.00    +0.000 C 
ATOM      7  C   UNL     1      -6.080  12.256  19.665  0.00  0.00    +0.000 C 
ATOM      8  C   UNL     1      -7.018  11.530  20.625  0.00  0.00    +0.000 C 
ATOM      9  C   UNL     1      -7.916  12.464  21.431  0.00  0.00    +0.000 C 
ATOM     10  C   UNL     1      -7.188  13.671  22.011  0.00  0.00    +0.000 C 
ATOM     11  C   UNL     1      -6.255  14.342  21.006  0.00  0.00    +0.000 C 
ENDBRANCH   5   6
BRANCH   1  13
ATOM     12  C   UNL     1      -3.976  12.818  24.088  0.00  0.00    +0.000 C 
ATOM     13  N   UNL     1      -2.945  13.582  23.377  0.00  0.00    +0.000 NA
ATOM     14  C   UNL     1      -2.516  14.702  24.223  0.00  0.00    +0.000 C 
ENDBRANCH   1  13
BRANCH   3  15
ATOM     15  C   UNL     1      -0.609  12.759  21.363  0.00  0.00    +0.000 C 
BRANCH  15  16
ATOM     16  C   UNL     1      -0.185  11.314  21.382  0.00  0.00    +0.000 A 
ATOM     17  C   UNL     1      -0.505  10.556  22.514  0.00  0.00    +0.000 A 
ATOM     18  F   UNL     1      -1.206  11.103  23.523  0.00  0.00    +0.000 F 
ATOM     19  C   UNL     1      -0.082   9.234  22.672  0.00  0.00    +0.000 A 
ATOM     20  C   UNL     1       0.685   8.647  21.680  0.00  0.00    +0.000 A 
ATOM     21  C   UNL     1       1.047   9.381  20.557  0.00  0.00    +0.000 A 
ATOM     22  C   UNL     1       0.631  10.715  20.409  0.00  0.00    +0.000 A 
ATOM     23 BR   UNL     1       1.284  11.655  18.893  0.00  0.00    +0.000 Br
ENDBRANCH  15  16
ENDBRANCH   3  15
TORSDOF 4
ENDMDL
MODEL 6
REMARK VINA RESULT:      -5.9      8.790     10.296
REMARK  Name = 
REMARK  6 active torsions:
REMARK  status: ('A' for Active; 'I' for Inactive)
REMARK    1  A    between atoms: C_1  and  N_2
REMARK    2  A    between atoms: N_2  and  C_3
REMARK    3  A    between atoms: N_2  and  C_4
REMARK    4  A    between atoms: N_6  and  C_7
REMARK    5  A    between atoms: C_7  and  C_8
REMARK    6  A    between atoms: C_17  and  C_18
REMARK                            x       y       z     vdW  Elec       q    Type
REMARK                         _______ _______ _______ _____ _____    ______ ____
ROOT
ATOM      1  C   UNL     1       8.891  14.974  21.301  0.00  0.00    +0.000 C 
ATOM      2  C   UNL     1       9.370  14.814  22.769  0.00  0.00    +0.000 C 
ATOM      3  N   UNL     1       8.889  13.503  23.234  0.00  0.00    +0.000 NA
ATOM      4  C   UNL     1       8.912  12.658  22.017  0.00  0.00    +0.000 C 
ATOM      5  C   UNL     1       9.217  13.553  20.772  0.00  0.00    +0.000 C 
ENDROOT
BRANCH   5   6
ATOM      6  C   UNL     1      10.683  13.451  20.214  0.00  0.00    +0.000 C 
ATOM      7  C   UNL     1      11.250  12.016  20.191  0.00  0.00    +0.000 C 
ATOM      8  C   UNL     1      10.646  11.122  19.113  0.00  0.00    +0.000 C 
ATOM      9  C   UNL     1      10.677  11.737  17.717  0.00  0.00    +0.000 C 
ATOM     10  C   UNL     1      10.245  13.197  17.676  0.00  0.00    +0.000 C 
ATOM     11  C   UNL     1      10.871  14.034  18.789  0.00  0.00    +0.000 C 
ENDBRANCH   5   6
BRANCH   1  13
ATOM     12  C   UNL     1       7.044  15.137  19.702  0.00  0.00    +0.000 C 
ATOM     13  N   UNL     1       7.456  15.323  21.098  0.00  0.00    +0.000 NA
ATOM     14  C   UNL     1       7.141  16.696  21.508  0.00  0.00    +0.000 C 
ENDBRANCH   1  13
BRANCH   3  15
ATOM     15  C   UNL     1       7.545  13.682  23.835  0.00  0.00    +0.000 C 
BRANCH  15  16
ATOM     16  C   UNL     1       7.147  12.773  24.969  0.00  0.00    +0.000 A 
ATOM     17  C   UNL     1       6.190  11.787  24.707  0.00  0.00    +0.000 A 
ATOM     18  F   UNL     1       5.684  11.641  23.469  0.00  0.00    +0.000 F 
ATOM     19  C   UNL     1       5.686  10.951  25.706  0.00  0.00    +0.000 A 
ATOM     20  C   UNL     1       6.142  11.099  27.005  0.00  0.00    +0.000 A 
ATOM     21  C   UNL     1       7.070  12.089  27.305  0.00  0.00    +0.000 A 
ATOM     22  C   UNL     1       7.563  12.937  26.299  0.00  0.00    +0.000 A 
ATOM     23 BR   UNL     1       8.736  14.328  26.847  0.00  0.00    +0.000 Br
ENDBRANCH  15  16
ENDBRANCH   3  15
TORSDOF 4
ENDMDL
MODEL 7
REMARK VINA RESULT:      -5.9      5.436      9.474
REMARK  Name = 
REMARK  6 active torsions:
REMARK  status: ('A' for Active; 'I' for Inactive)
REMARK    1  A    between atoms: C_1  and  N_2
REMARK    2  A    between atoms: N_2  and  C_3
REMARK    3  A    between atoms: N_2  and  C_4
REMARK    4  A    between atoms: N_6  and  C_7
REMARK    5  A    between atoms: C_7  and  C_8
REMARK    6  A    between atoms: C_17  and  C_18
REMARK                            x       y       z     vdW  Elec       q    Type
REMARK                         _______ _______ _______ _____ _____    ______ ____
ROOT
ATOM      1  C   UNL     1      -0.200  13.326  21.001  0.00  0.00    +0.000 C 
ATOM      2  C   UNL     1       1.057  12.437  20.796  0.00  0.00    +0.000 C 
ATOM      3  N   UNL     1       1.022  11.965  19.402  0.00  0.00    +0.000 NA
ATOM      4  C   UNL     1       0.381  13.077  18.660  0.00  0.00    +0.000 C 
ATOM      5  C   UNL     1      -0.157  14.135  19.678  0.00  0.00    +0.000 C 
ENDROOT
BRANCH   5   6
ATOM      6  C   UNL     1       0.709  15.440  19.811  0.00  0.00    +0.000 C 
ATOM      7  C   UNL     1       0.685  16.342  18.559  0.00  0.00    +0.000 C 
ATOM      8  C   UNL     1      -0.630  17.087  18.350  0.00  0.00    +0.000 C 
ATOM      9  C   UNL     1      -1.101  17.858  19.579  0.00  0.00    +0.000 C 
ATOM     10  C   UNL     1      -0.992  17.071  20.880  0.00  0.00    +0.000 C 
ATOM     11  C   UNL     1       0.339  16.337  21.021  0.00  0.00    +0.000 C 
ENDBRANCH   5   6
BRANCH   1  13
ATOM     12  C   UNL     1      -2.610  13.370  20.575  0.00  0.00    +0.000 C 
ATOM     13  N   UNL     1      -1.501  12.619  21.173  0.00  0.00    +0.000 NA
ATOM     14  C   UNL     1      -1.817  12.344  22.579  0.00  0.00    +0.000 C 
ENDBRANCH   1  13
BRANCH   3  15
ATOM     15  C   UNL     1       0.276  10.684  19.359  0.00  0.00    +0.000 C 
BRANCH  15  16
ATOM     16  C   UNL     1       1.049   9.405  19.549  0.00  0.00    +0.000 A 
ATOM     17  C   UNL     1       1.745   8.895  18.447  0.00  0.00    +0.000 A 
ATOM     18  F   UNL     1       1.748   9.560  17.277  0.00  0.00    +0.000 F 
ATOM     19  C   UNL     1       2.419   7.673  18.489  0.00  0.00    +0.000 A 
ATOM     20  C   UNL     1       2.399   6.931  19.657  0.00  0.00    +0.000 A 
ATOM     21  C   UNL     1       1.693   7.393  20.761  0.00  0.00    +0.000 A 
ATOM     22  C   UNL     1       1.004   8.617  20.709  0.00  0.00    +0.000 A 
ATOM     23 BR   UNL     1      -0.024   9.089  22.235  0.00  0.00    +0.000 Br
ENDBRANCH  15  16
ENDBRANCH   3  15
TORSDOF 4
ENDMDL
MODEL 8
REMARK VINA RESULT:      -5.9      2.288      4.590
REMARK  Name = 
REMARK  6 active torsions:
REMARK  status: ('A' for Active; 'I' for Inactive)
REMARK    1  A    between atoms: C_1  and  N_2
REMARK    2  A    between atoms: N_2  and  C_3
REMARK    3  A    between atoms: N_2  and  C_4
REMARK    4  A    between atoms: N_6  and  C_7
REMARK    5  A    between atoms: C_7  and  C_8
REMARK    6  A    between atoms: C_17  and  C_18
REMARK                            x       y       z     vdW  Elec       q    Type
REMARK                         _______ _______ _______ _____ _____    ______ ____
ROOT
ATOM      1  C   UNL     1       4.725   5.272  18.020  0.00  0.00    +0.000 C 
ATOM      2  C   UNL     1       4.150   5.657  19.410  0.00  0.00    +0.000 C 
ATOM      3  N   UNL     1       2.737   6.013  19.203  0.00  0.00    +0.000 NA
ATOM      4  C   UNL     1       2.305   5.141  18.084  0.00  0.00    +0.000 C 
ATOM      5  C   UNL     1       3.551   4.408  17.490  0.00  0.00    +0.000 C 
ENDROOT
BRANCH   5   6
ATOM      6  C   UNL     1       3.699   2.896  17.897  0.00  0.00    +0.000 C 
ATOM      7  C   UNL     1       4.130   2.679  19.363  0.00  0.00    +0.000 C 
ATOM      8  C   UNL     1       3.039   2.976  20.387  0.00  0.00    +0.000 C 
ATOM      9  C   UNL     1       1.719   2.266  20.101  0.00  0.00    +0.000 C 
ATOM     10  C   UNL     1       1.285   2.332  18.642  0.00  0.00    +0.000 C 
ATOM     11  C   UNL     1       2.426   2.041  17.669  0.00  0.00    +0.000 C 
ENDBRANCH   5   6
BRANCH   1  13
ATOM     12  C   UNL     1       5.185   5.932  15.708  0.00  0.00    +0.000 C 
ATOM     13  N   UNL     1       5.046   6.395  17.093  0.00  0.00    +0.000 NA
ATOM     14  C   UNL     1       6.263   7.119  17.476  0.00  0.00    +0.000 C 
ENDBRANCH   1  13
BRANCH   3  15
ATOM     15  C   UNL     1       2.656   7.466  18.918  0.00  0.00    +0.000 C 
BRANCH  15  16
ATOM     16  C   UNL     1       1.733   8.305  19.764  0.00  0.00    +0.000 A 
ATOM     17  C   UNL     1       1.156   7.705  20.889  0.00  0.00    +0.000 A 
ATOM     18  F   UNL     1       1.460   6.435  21.214  0.00  0.00    +0.000 F 
ATOM     19  C   UNL     1       0.219   8.363  21.688  0.00  0.00    +0.000 A 
ATOM     20  C   UNL     1      -0.162   9.653  21.361  0.00  0.00    +0.000 A 
ATOM     21  C   UNL     1       0.369  10.268  20.233  0.00  0.00    +0.000 A 
ATOM     22  C   UNL     1       1.301   9.596  19.423  0.00  0.00    +0.000 A 
ATOM     23 BR   UNL     1       1.867  10.488  17.844  0.00  0.00    +0.000 Br
ENDBRANCH  15  16
ENDBRANCH   3  15
TORSDOF 4
ENDMDL
MODEL 9
REMARK VINA RESULT:      -5.9      7.832      9.796
REMARK  Name = 
REMARK  6 active torsions:
REMARK  status: ('A' for Active; 'I' for Inactive)
REMARK    1  A    between atoms: C_1  and  N_2
REMARK    2  A    between atoms: N_2  and  C_3
REMARK    3  A    between atoms: N_2  and  C_4
REMARK    4  A    between atoms: N_6  and  C_7
REMARK    5  A    between atoms: C_7  and  C_8
REMARK    6  A    between atoms: C_17  and  C_18
REMARK                            x       y       z     vdW  Elec       q    Type
REMARK                         _______ _______ _______ _____ _____    ______ ____
ROOT
ATOM      1  C   UNL     1      -0.265  12.585  21.461  0.00  0.00    +0.000 C 
ATOM      2  C   UNL     1       0.335  11.418  20.631  0.00  0.00    +0.000 C 
ATOM      3  N   UNL     1      -0.290  11.476  19.300  0.00  0.00    +0.000 NA
ATOM      4  C   UNL     1      -0.525  12.922  19.074  0.00  0.00    +0.000 C 
ATOM      5  C   UNL     1      -0.218  13.707  20.391  0.00  0.00    +0.000 C 
ENDROOT
BRANCH   5   6
ATOM      6  C   UNL     1       1.149  14.483  20.408  0.00  0.00    +0.000 C 
ATOM      7  C   UNL     1       1.392  15.356  19.159  0.00  0.00    +0.000 C 
ATOM      8  C   UNL     1       0.535  16.617  19.100  0.00  0.00    +0.000 C 
ATOM      9  C   UNL     1       0.597  17.461  20.370  0.00  0.00    +0.000 C 
ATOM     10  C   UNL     1       0.486  16.652  21.656  0.00  0.00    +0.000 C 
ATOM     11  C   UNL     1       1.355  15.396  21.644  0.00  0.00    +0.000 C 
ENDBRANCH   5   6
BRANCH   1  13
ATOM     12  C   UNL     1      -2.258  13.661  22.389  0.00  0.00    +0.000 C 
ATOM     13  N   UNL     1      -1.643  12.389  21.996  0.00  0.00    +0.000 NA
ATOM     14  C   UNL     1      -1.685  11.468  23.137  0.00  0.00    +0.000 C 
ENDBRANCH   1  13
BRANCH   3  15
ATOM     15  C   UNL     1      -1.521  10.648  19.323  0.00  0.00    +0.000 C 
BRANCH  15  16
ATOM     16  C   UNL     1      -2.400  10.649  18.099  0.00  0.00    +0.000 A 
ATOM     17  C   UNL     1      -1.916  10.016  16.949  0.00  0.00    +0.000 A 
ATOM     18  F   UNL     1      -0.722   9.394  16.966  0.00  0.00    +0.000 F 
ATOM     19  C   UNL     1      -2.609  10.035  15.738  0.00  0.00    +0.000 A 
ATOM     20  C   UNL     1      -3.818  10.707  15.661  0.00  0.00    +0.000 A 
ATOM     21  C   UNL     1      -4.313  11.372  16.776  0.00  0.00    +0.000 A 
ATOM     22  C   UNL     1      -3.604  11.362  17.990  0.00  0.00    +0.000 A 
ATOM     23 BR   UNL     1      -4.317  12.403  19.410  0.00  0.00    +0.000 Br
ENDBRANCH  15  16
ENDBRANCH   3  15
TORSDOF 4
ENDMDL
