MODEL 1
REMARK VINA RESULT:      -9.4      0.000      0.000
REMARK  Name = 
REMARK  12 active torsions:
REMARK  status: ('A' for Active; 'I' for Inactive)
REMARK    1  A    between atoms: C_1  and  O_2
REMARK    2  A    between atoms: O_2  and  C_3
REMARK    3  A    between atoms: C_6  and  C_7
REMARK    4  A    between atoms: C_7  and  C_8
REMARK    5  A    between atoms: C_8  and  C_9
REMARK    6  A    between atoms: C_9  and  C_10
REMARK    7  A    between atoms: C_16  and  O_17
REMARK    8  A    between atoms: C_18  and  C_19
REMARK    9  A    between atoms: C_19  and  C_20
REMARK   10  A    between atoms: C_24  and  C_25
REMARK   11  A    between atoms: C_27  and  C_28
REMARK   12  A    between atoms: C_35  and  C_36
REMARK                            x       y       z     vdW  Elec       q    Type
REMARK                         _______ _______ _______ _____ _____    ______ ____
ROOT
ATOM      1  C   UNL     1       3.086   5.687  18.931  0.00  0.00    +0.000 C 
ATOM      2  C   UNL     1       3.424   6.852  17.971  0.00  0.00    +0.000 C 
ATOM      3  C   UNL     1       4.741   6.614  17.317  0.00  0.00    +0.000 C 
ATOM      4  C   UNL     1       5.719   5.947  17.954  0.00  0.00    +0.000 C 
ATOM      5  C   UNL     1       5.509   5.530  19.360  0.00  0.00    +0.000 C 
ATOM      6  O   UNL     1       6.444   5.182  20.071  0.00  0.00    +0.000 OA
ATOM      7  O   UNL     1       4.225   5.500  19.821  0.00  0.00    +0.000 OA
ENDROOT
BRANCH   1   8
ATOM      8  C   UNL     1       2.743   4.304  18.254  0.00  0.00    +0.000 C 
ATOM      9  C   UNL     1       3.725   3.166  18.542  0.00  0.00    +0.000 C 
ATOM     10  C   UNL     1       3.011   1.906  18.054  0.00  0.00    +0.000 C 
ATOM     11  C   UNL     1       1.521   2.173  18.206  0.00  0.00    +0.000 C 
ATOM     12  C   UNL     1       1.396   3.640  18.587  0.00  0.00    +0.000 C 
ENDBRANCH   1   8
BRANCH   3  13
ATOM     13  O   UNL     1       4.847   6.949  15.983  0.00  0.00    +0.000 OA
ATOM     14  H   UNL     1       3.967   6.877  15.569  0.00  0.00    +0.000 HD
ENDBRANCH   3  13
BRANCH   1  15
ATOM     15  C   UNL     1       1.900   6.201  19.813  0.00  0.00    +0.000 C 
BRANCH  15  16
ATOM     16  C   UNL     1       2.230   7.271  20.864  0.00  0.00    +0.000 C 
BRANCH  16  20
ATOM     17  C   UNL     1      -0.473  10.658  20.619  0.00  0.00    +0.000 A 
ATOM     18  C   UNL     1       0.193  10.203  19.478  0.00  0.00    +0.000 A 
ATOM     19  C   UNL     1       1.062   9.107  19.551  0.00  0.00    +0.000 A 
ATOM     20  C   UNL     1       1.287   8.453  20.769  0.00  0.00    +0.000 A 
ATOM     21  C   UNL     1       0.609   8.909  21.909  0.00  0.00    +0.000 A 
ATOM     22  C   UNL     1      -0.262  10.011  21.848  0.00  0.00    +0.000 A 
ATOM     23  C   UNL     1      -0.962  10.481  23.094  0.00  0.00    +0.000 C 
BRANCH  17  25
ATOM     24  C   UNL     1      -2.071  11.997  19.478  0.00  0.00    +0.000 C 
ATOM     25  O   UNL     1      -1.301  11.752  20.648  0.00  0.00    +0.000 OA
ENDBRANCH  17  25
ENDBRANCH  16  20
ENDBRANCH  15  16
ENDBRANCH   1  15
BRANCH   4  26
ATOM     26  C   UNL     1       6.967   5.441  17.287  0.00  0.00    +0.000 C 
BRANCH  26  27
ATOM     27  C   UNL     1       6.785   5.063  15.860  0.00  0.00    +0.000 A 
ATOM     28  N   UNL     1       6.011   4.002  15.491  0.00  0.00    +0.000 NA
ATOM     29  C   UNL     1       6.252   3.876  14.206  0.00  0.00    +0.000 A 
ATOM     30  N   UNL     1       5.790   2.926  13.350  0.00  0.00    +0.000 NA
ATOM     31  C   UNL     1       6.230   2.987  12.125  0.00  0.00    +0.000 A 
ATOM     32  C   UNL     1       5.780   1.928  11.161  0.00  0.00    +0.000 C 
ATOM     33  C   UNL     1       7.157   4.041  11.596  0.00  0.00    +0.000 A 
ATOM     34  C   UNL     1       7.590   4.962  12.477  0.00  0.00    +0.000 A 
ATOM     35  C   UNL     1       8.523   6.070  12.109  0.00  0.00    +0.000 C 
ATOM     36  N   UNL     1       7.147   4.876  13.803  0.00  0.00    +0.000 N 
ATOM     37  N   UNL     1       7.486   5.636  14.876  0.00  0.00    +0.000 NA
ENDBRANCH  26  27
ENDBRANCH   4  26
TORSDOF 8
ENDMDL
MODEL 2
REMARK VINA RESULT:      -9.2      0.867      1.352
REMARK  Name = 
REMARK  12 active torsions:
REMARK  status: ('A' for Active; 'I' for Inactive)
REMARK    1  A    between atoms: C_1  and  O_2
REMARK    2  A    between atoms: O_2  and  C_3
REMARK    3  A    between atoms: C_6  and  C_7
REMARK    4  A    between atoms: C_7  and  C_8
REMARK    5  A    between atoms: C_8  and  C_9
REMARK    6  A    between atoms: C_9  and  C_10
REMARK    7  A    between atoms: C_16  and  O_17
REMARK    8  A    between atoms: C_18  and  C_19
REMARK    9  A    between atoms: C_19  and  C_20
REMARK   10  A    between atoms: C_24  and  C_25
REMARK   11  A    between atoms: C_27  and  C_28
REMARK   12  A    between atoms: C_35  and  C_36
REMARK                            x       y       z     vdW  Elec       q    Type
REMARK                         _______ _______ _______ _____ _____    ______ ____
ROOT
ATOM      1  C   UNL     1       3.322   6.096  18.843  0.00  0.00    +0.000 C 
ATOM      2  C   UNL     1       3.806   7.171  17.841  0.00  0.00    +0.000 C 
ATOM      3  C   UNL     1       5.070   6.731  17.186  0.00  0.00    +0.000 C 
ATOM      4  C   UNL     1       5.954   5.956  17.838  0.00  0.00    +0.000 C 
ATOM      5  C   UNL     1       5.705   5.619  19.260  0.00  0.00    +0.000 C 
ATOM      6  O   UNL     1       6.592   5.169  19.976  0.00  0.00    +0.000 OA
ATOM      7  O   UNL     1       4.435   5.784  19.731  0.00  0.00    +0.000 OA
ENDROOT
BRANCH   1   8
ATOM      8  C   UNL     1       2.783   4.753  18.218  0.00  0.00    +0.000 C 
ATOM      9  C   UNL     1       3.716   3.546  18.340  0.00  0.00    +0.000 C 
ATOM     10  C   UNL     1       2.849   2.347  17.960  0.00  0.00    +0.000 C 
ATOM     11  C   UNL     1       1.423   2.710  18.345  0.00  0.00    +0.000 C 
ATOM     12  C   UNL     1       1.461   4.175  18.753  0.00  0.00    +0.000 C 
ENDBRANCH   1   8
BRANCH   3  13
ATOM     13  O   UNL     1       5.205   7.002  15.840  0.00  0.00    +0.000 OA
ATOM     14  H   UNL     1       5.906   6.432  15.473  0.00  0.00    +0.000 HD
ENDBRANCH   3  13
BRANCH   1  15
ATOM     15  C   UNL     1       2.230   6.800  19.716  0.00  0.00    +0.000 C 
BRANCH  15  16
ATOM     16  C   UNL     1       1.583   8.065  19.132  0.00  0.00    +0.000 C 
BRANCH  16  20
ATOM     17  C   UNL     1      -0.052  10.622  22.236  0.00  0.00    +0.000 A 
ATOM     18  C   UNL     1      -0.073   9.232  22.382  0.00  0.00    +0.000 A 
ATOM     19  C   UNL     1       0.459   8.403  21.386  0.00  0.00    +0.000 A 
ATOM     20  C   UNL     1       1.012   8.950  20.221  0.00  0.00    +0.000 A 
ATOM     21  C   UNL     1       1.038  10.345  20.083  0.00  0.00    +0.000 A 
ATOM     22  C   UNL     1       0.502  11.186  21.075  0.00  0.00    +0.000 A 
ATOM     23  C   UNL     1       0.535  12.679  20.887  0.00  0.00    +0.000 C 
BRANCH  17  25
ATOM     24  C   UNL     1      -2.009  11.481  23.275  0.00  0.00    +0.000 C 
ATOM     25  O   UNL     1      -0.594  11.504  23.136  0.00  0.00    +0.000 OA
ENDBRANCH  17  25
ENDBRANCH  16  20
ENDBRANCH  15  16
ENDBRANCH   1  15
BRANCH   4  26
ATOM     26  C   UNL     1       7.111   5.260  17.181  0.00  0.00    +0.000 C 
BRANCH  26  27
ATOM     27  C   UNL     1       6.884   4.917  15.751  0.00  0.00    +0.000 A 
ATOM     28  N   UNL     1       6.124   3.847  15.381  0.00  0.00    +0.000 NA
ATOM     29  C   UNL     1       6.318   3.764  14.085  0.00  0.00    +0.000 A 
ATOM     30  N   UNL     1       5.848   2.825  13.220  0.00  0.00    +0.000 NA
ATOM     31  C   UNL     1       6.238   2.933  11.981  0.00  0.00    +0.000 A 
ATOM     32  C   UNL     1       5.779   1.889  11.005  0.00  0.00    +0.000 C 
ATOM     33  C   UNL     1       7.117   4.026  11.448  0.00  0.00    +0.000 A 
ATOM     34  C   UNL     1       7.559   4.933  12.339  0.00  0.00    +0.000 A 
ATOM     35  C   UNL     1       8.448   6.076  11.967  0.00  0.00    +0.000 C 
ATOM     36  N   UNL     1       7.171   4.798  13.677  0.00  0.00    +0.000 N 
ATOM     37  N   UNL     1       7.531   5.537  14.758  0.00  0.00    +0.000 NA
ENDBRANCH  26  27
ENDBRANCH   4  26
TORSDOF 8
ENDMDL
MODEL 3
REMARK VINA RESULT:      -8.9      0.498      1.210
REMARK  Name = 
REMARK  12 active torsions:
REMARK  status: ('A' for Active; 'I' for Inactive)
REMARK    1  A    between atoms: C_1  and  O_2
REMARK    2  A    between atoms: O_2  and  C_3
REMARK    3  A    between atoms: C_6  and  C_7
REMARK    4  A    between atoms: C_7  and  C_8
REMARK    5  A    between atoms: C_8  and  C_9
REMARK    6  A    between atoms: C_9  and  C_10
REMARK    7  A    between atoms: C_16  and  O_17
REMARK    8  A    between atoms: C_18  and  C_19
REMARK    9  A    between atoms: C_19  and  C_20
REMARK   10  A    between atoms: C_24  and  C_25
REMARK   11  A    between atoms: C_27  and  C_28
REMARK   12  A    between atoms: C_35  and  C_36
REMARK                            x       y       z     vdW  Elec       q    Type
REMARK                         _______ _______ _______ _____ _____    ______ ____
ROOT
ATOM      1  C   UNL     1       3.109   5.676  18.994  0.00  0.00    +0.000 C 
ATOM      2  C   UNL     1       3.416   6.824  18.004  0.00  0.00    +0.000 C 
ATOM      3  C   UNL     1       4.728   6.592  17.338  0.00  0.00    +0.000 C 
ATOM      4  C   UNL     1       5.725   5.955  17.977  0.00  0.00    +0.000 C 
ATOM      5  C   UNL     1       5.540   5.567  19.395  0.00  0.00    +0.000 C 
ATOM      6  O   UNL     1       6.489   5.250  20.101  0.00  0.00    +0.000 OA
ATOM      7  O   UNL     1       4.262   5.528  19.873  0.00  0.00    +0.000 OA
ENDROOT
BRANCH   1   8
ATOM      8  C   UNL     1       2.780   4.273  18.354  0.00  0.00    +0.000 C 
ATOM      9  C   UNL     1       3.544   3.084  18.939  0.00  0.00    +0.000 C 
ATOM     10  C   UNL     1       2.825   1.853  18.387  0.00  0.00    +0.000 C 
ATOM     11  C   UNL     1       1.377   2.264  18.170  0.00  0.00    +0.000 C 
ATOM     12  C   UNL     1       1.328   3.765  18.410  0.00  0.00    +0.000 C 
ENDBRANCH   1   8
BRANCH   3  13
ATOM     13  O   UNL     1       4.812   6.897  15.995  0.00  0.00    +0.000 OA
ATOM     14  H   UNL     1       3.929   7.156  15.675  0.00  0.00    +0.000 HD
ENDBRANCH   3  13
BRANCH   1  15
ATOM     15  C   UNL     1       1.927   6.193  19.879  0.00  0.00    +0.000 C 
BRANCH  15  16
ATOM     16  C   UNL     1       2.276   7.201  20.984  0.00  0.00    +0.000 C 
BRANCH  16  20
ATOM     17  C   UNL     1      -0.441  10.586  20.935  0.00  0.00    +0.000 A 
ATOM     18  C   UNL     1      -0.110   9.964  22.142  0.00  0.00    +0.000 A 
ATOM     19  C   UNL     1       0.771   8.876  22.164  0.00  0.00    +0.000 A 
ATOM     20  C   UNL     1       1.328   8.383  20.977  0.00  0.00    +0.000 A 
ATOM     21  C   UNL     1       0.998   9.016  19.769  0.00  0.00    +0.000 A 
ATOM     22  C   UNL     1       0.112  10.107  19.736  0.00  0.00    +0.000 A 
ATOM     23  C   UNL     1      -0.229  10.753  18.420  0.00  0.00    +0.000 C 
BRANCH  17  25
ATOM     24  C   UNL     1      -1.021  12.811  21.535  0.00  0.00    +0.000 C 
ATOM     25  O   UNL     1      -1.331  11.624  20.816  0.00  0.00    +0.000 OA
ENDBRANCH  17  25
ENDBRANCH  16  20
ENDBRANCH  15  16
ENDBRANCH   1  15
BRANCH   4  26
ATOM     26  C   UNL     1       6.972   5.453  17.305  0.00  0.00    +0.000 C 
BRANCH  26  27
ATOM     27  C   UNL     1       6.786   5.077  15.878  0.00  0.00    +0.000 A 
ATOM     28  N   UNL     1       6.003   4.023  15.508  0.00  0.00    +0.000 NA
ATOM     29  C   UNL     1       6.244   3.896  14.223  0.00  0.00    +0.000 A 
ATOM     30  N   UNL     1       5.774   2.950  13.367  0.00  0.00    +0.000 NA
ATOM     31  C   UNL     1       6.214   3.009  12.142  0.00  0.00    +0.000 A 
ATOM     32  C   UNL     1       5.755   1.954  11.177  0.00  0.00    +0.000 C 
ATOM     33  C   UNL     1       7.150   4.056  11.613  0.00  0.00    +0.000 A 
ATOM     34  C   UNL     1       7.590   4.972  12.495  0.00  0.00    +0.000 A 
ATOM     35  C   UNL     1       8.533   6.073  12.127  0.00  0.00    +0.000 C 
ATOM     36  N   UNL     1       7.147   4.889  13.821  0.00  0.00    +0.000 N 
ATOM     37  N   UNL     1       7.492   5.646  14.894  0.00  0.00    +0.000 NA
ENDBRANCH  26  27
ENDBRANCH   4  26
TORSDOF 8
ENDMDL
MODEL 4
REMARK VINA RESULT:      -8.9      5.742     11.351
REMARK  Name = 
REMARK  12 active torsions:
REMARK  status: ('A' for Active; 'I' for Inactive)
REMARK    1  A    between atoms: C_1  and  O_2
REMARK    2  A    between atoms: O_2  and  C_3
REMARK    3  A    between atoms: C_6  and  C_7
REMARK    4  A    between atoms: C_7  and  C_8
REMARK    5  A    between atoms: C_8  and  C_9
REMARK    6  A    between atoms: C_9  and  C_10
REMARK    7  A    between atoms: C_16  and  O_17
REMARK    8  A    between atoms: C_18  and  C_19
REMARK    9  A    between atoms: C_19  and  C_20
REMARK   10  A    between atoms: C_24  and  C_25
REMARK   11  A    between atoms: C_27  and  C_28
REMARK   12  A    between atoms: C_35  and  C_36
REMARK                            x       y       z     vdW  Elec       q    Type
REMARK                         _______ _______ _______ _____ _____    ______ ____
ROOT
ATOM      1  C   UNL     1       0.491  10.096  19.355  0.00  0.00    +0.000 C 
ATOM      2  C   UNL     1       0.731  11.575  18.972  0.00  0.00    +0.000 C 
ATOM      3  C   UNL     1      -0.565  12.246  18.672  0.00  0.00    +0.000 C 
ATOM      4  C   UNL     1      -1.593  11.560  18.142  0.00  0.00    +0.000 C 
ATOM      5  C   UNL     1      -1.393  10.141  17.764  0.00  0.00    +0.000 C 
ATOM      6  O   UNL     1      -2.181   9.557  17.030  0.00  0.00    +0.000 OA
ATOM      7  O   UNL     1      -0.322   9.492  18.307  0.00  0.00    +0.000 OA
ENDROOT
BRANCH   1   8
ATOM      8  C   UNL     1      -0.210   9.841  20.745  0.00  0.00    +0.000 C 
ATOM      9  C   UNL     1       0.539   8.910  21.702  0.00  0.00    +0.000 C 
ATOM     10  C   UNL     1      -0.168   9.087  23.045  0.00  0.00    +0.000 C 
ATOM     11  C   UNL     1      -0.720  10.505  23.055  0.00  0.00    +0.000 C 
ATOM     12  C   UNL     1      -0.497  11.049  21.653  0.00  0.00    +0.000 C 
ENDBRANCH   1   8
BRANCH   3  13
ATOM     13  O   UNL     1      -0.720  13.541  19.122  0.00  0.00    +0.000 OA
ATOM     14  H   UNL     1      -0.667  13.544  20.096  0.00  0.00    +0.000 HD
ENDBRANCH   3  13
BRANCH   1  15
ATOM     15  C   UNL     1       1.897   9.413  19.289  0.00  0.00    +0.000 C 
BRANCH  15  16
ATOM     16  C   UNL     1       2.220   8.609  18.021  0.00  0.00    +0.000 C 
BRANCH  16  20
ATOM     17  C   UNL     1       3.531   4.589  19.003  0.00  0.00    +0.000 A 
ATOM     18  C   UNL     1       3.954   5.200  17.819  0.00  0.00    +0.000 A 
ATOM     19  C   UNL     1       3.539   6.499  17.501  0.00  0.00    +0.000 A 
ATOM     20  C   UNL     1       2.684   7.206  18.356  0.00  0.00    +0.000 A 
ATOM     21  C   UNL     1       2.270   6.591  19.547  0.00  0.00    +0.000 A 
ATOM     22  C   UNL     1       2.677   5.286  19.874  0.00  0.00    +0.000 A 
ATOM     23  C   UNL     1       2.202   4.652  21.153  0.00  0.00    +0.000 C 
BRANCH  17  25
ATOM     24  C   UNL     1       3.431   2.272  18.485  0.00  0.00    +0.000 C 
ATOM     25  O   UNL     1       3.849   3.305  19.368  0.00  0.00    +0.000 OA
ENDBRANCH  17  25
ENDBRANCH  16  20
ENDBRANCH  15  16
ENDBRANCH   1  15
BRANCH   4  26
ATOM     26  C   UNL     1      -2.998  12.083  18.050  0.00  0.00    +0.000 C 
BRANCH  26  27
ATOM     27  C   UNL     1      -3.707  12.157  19.355  0.00  0.00    +0.000 A 
ATOM     28  N   UNL     1      -5.012  11.783  19.486  0.00  0.00    +0.000 NA
ATOM     29  C   UNL     1      -5.323  12.168  20.703  0.00  0.00    +0.000 A 
ATOM     30  N   UNL     1      -6.529  12.101  21.327  0.00  0.00    +0.000 NA
ATOM     31  C   UNL     1      -6.591  12.610  22.525  0.00  0.00    +0.000 A 
ATOM     32  C   UNL     1      -7.917  12.597  23.229  0.00  0.00    +0.000 C 
ATOM     33  C   UNL     1      -5.432  13.212  23.264  0.00  0.00    +0.000 A 
ATOM     34  C   UNL     1      -4.257  13.258  22.609  0.00  0.00    +0.000 A 
ATOM     35  C   UNL     1      -3.012  13.834  23.204  0.00  0.00    +0.000 C 
ATOM     36  N   UNL     1      -4.198  12.745  21.307  0.00  0.00    +0.000 N 
ATOM     37  N   UNL     1      -3.161  12.734  20.432  0.00  0.00    +0.000 NA
ENDBRANCH  26  27
ENDBRANCH   4  26
TORSDOF 8
ENDMDL
MODEL 5
REMARK VINA RESULT:      -8.8      0.847      1.070
REMARK  Name = 
REMARK  12 active torsions:
REMARK  status: ('A' for Active; 'I' for Inactive)
REMARK    1  A    between atoms: C_1  and  O_2
REMARK    2  A    between atoms: O_2  and  C_3
REMARK    3  A    between atoms: C_6  and  C_7
REMARK    4  A    between atoms: C_7  and  C_8
REMARK    5  A    between atoms: C_8  and  C_9
REMARK    6  A    between atoms: C_9  and  C_10
REMARK    7  A    between atoms: C_16  and  O_17
REMARK    8  A    between atoms: C_18  and  C_19
REMARK    9  A    between atoms: C_19  and  C_20
REMARK   10  A    between atoms: C_24  and  C_25
REMARK   11  A    between atoms: C_27  and  C_28
REMARK   12  A    between atoms: C_35  and  C_36
REMARK                            x       y       z     vdW  Elec       q    Type
REMARK                         _______ _______ _______ _____ _____    ______ ____
ROOT
ATOM      1  C   UNL     1       3.355   6.206  18.825  0.00  0.00    +0.000 C 
ATOM      2  C   UNL     1       3.831   7.213  17.751  0.00  0.00    +0.000 C 
ATOM      3  C   UNL     1       5.082   6.726  17.107  0.00  0.00    +0.000 C 
ATOM      4  C   UNL     1       5.972   5.988  17.795  0.00  0.00    +0.000 C 
ATOM      5  C   UNL     1       5.741   5.742  19.238  0.00  0.00    +0.000 C 
ATOM      6  O   UNL     1       6.636   5.332  19.968  0.00  0.00    +0.000 OA
ATOM      7  O   UNL     1       4.479   5.942  19.715  0.00  0.00    +0.000 OA
ENDROOT
BRANCH   1   8
ATOM      8  C   UNL     1       2.801   4.829  18.292  0.00  0.00    +0.000 C 
ATOM      9  C   UNL     1       3.505   3.581  18.828  0.00  0.00    +0.000 C 
ATOM     10  C   UNL     1       2.596   2.421  18.424  0.00  0.00    +0.000 C 
ATOM     11  C   UNL     1       1.183   2.982  18.372  0.00  0.00    +0.000 C 
ATOM     12  C   UNL     1       1.324   4.485  18.551  0.00  0.00    +0.000 C 
ENDBRANCH   1   8
BRANCH   3  13
ATOM     13  O   UNL     1       5.201   6.912  15.746  0.00  0.00    +0.000 OA
ATOM     14  H   UNL     1       5.335   7.861  15.568  0.00  0.00    +0.000 HD
ENDBRANCH   3  13
BRANCH   1  15
ATOM     15  C   UNL     1       2.279   6.969  19.667  0.00  0.00    +0.000 C 
BRANCH  15  16
ATOM     16  C   UNL     1       1.590   8.164  18.993  0.00  0.00    +0.000 C 
BRANCH  16  20
ATOM     17  C   UNL     1      -0.098  10.864  21.944  0.00  0.00    +0.000 A 
ATOM     18  C   UNL     1      -0.051  11.231  20.597  0.00  0.00    +0.000 A 
ATOM     19  C   UNL     1       0.487  10.362  19.640  0.00  0.00    +0.000 A 
ATOM     20  C   UNL     1       0.997   9.112  20.016  0.00  0.00    +0.000 A 
ATOM     21  C   UNL     1       0.939   8.745  21.368  0.00  0.00    +0.000 A 
ATOM     22  C   UNL     1       0.405   9.612  22.337  0.00  0.00    +0.000 A 
ATOM     23  C   UNL     1       0.371   9.190  23.782  0.00  0.00    +0.000 C 
BRANCH  17  25
ATOM     24  C   UNL     1      -0.803  13.031  22.615  0.00  0.00    +0.000 C 
ATOM     25  O   UNL     1      -0.562  11.671  22.952  0.00  0.00    +0.000 OA
ENDBRANCH  17  25
ENDBRANCH  16  20
ENDBRANCH  15  16
ENDBRANCH   1  15
BRANCH   4  26
ATOM     26  C   UNL     1       7.116   5.245  17.166  0.00  0.00    +0.000 C 
BRANCH  26  27
ATOM     27  C   UNL     1       6.905   4.900  15.734  0.00  0.00    +0.000 A 
ATOM     28  N   UNL     1       6.178   3.809  15.358  0.00  0.00    +0.000 NA
ATOM     29  C   UNL     1       6.382   3.735  14.062  0.00  0.00    +0.000 A 
ATOM     30  N   UNL     1       5.942   2.787  13.192  0.00  0.00    +0.000 NA
ATOM     31  C   UNL     1       6.335   2.909  11.956  0.00  0.00    +0.000 A 
ATOM     32  C   UNL     1       5.910   1.855  10.974  0.00  0.00    +0.000 C 
ATOM     33  C   UNL     1       7.185   4.028  11.430  0.00  0.00    +0.000 A 
ATOM     34  C   UNL     1       7.597   4.944  12.325  0.00  0.00    +0.000 A 
ATOM     35  C   UNL     1       8.455   6.114  11.961  0.00  0.00    +0.000 C 
ATOM     36  N   UNL     1       7.206   4.795  13.662  0.00  0.00    +0.000 N 
ATOM     37  N   UNL     1       7.540   5.541  14.746  0.00  0.00    +0.000 NA
ENDBRANCH  26  27
ENDBRANCH   4  26
TORSDOF 8
ENDMDL
MODEL 6
REMARK VINA RESULT:      -8.7      5.735     11.645
REMARK  Name = 
REMARK  12 active torsions:
REMARK  status: ('A' for Active; 'I' for Inactive)
REMARK    1  A    between atoms: C_1  and  O_2
REMARK    2  A    between atoms: O_2  and  C_3
REMARK    3  A    between atoms: C_6  and  C_7
REMARK    4  A    between atoms: C_7  and  C_8
REMARK    5  A    between atoms: C_8  and  C_9
REMARK    6  A    between atoms: C_9  and  C_10
REMARK    7  A    between atoms: C_16  and  O_17
REMARK    8  A    between atoms: C_18  and  C_19
REMARK    9  A    between atoms: C_19  and  C_20
REMARK   10  A    between atoms: C_24  and  C_25
REMARK   11  A    between atoms: C_27  and  C_28
REMARK   12  A    between atoms: C_35  and  C_36
REMARK                            x       y       z     vdW  Elec       q    Type
REMARK                         _______ _______ _______ _____ _____    ______ ____
ROOT
ATOM      1  C   UNL     1       0.105  10.468  19.112  0.00  0.00    +0.000 C 
ATOM      2  C   UNL     1       0.169  11.962  18.713  0.00  0.00    +0.000 C 
ATOM      3  C   UNL     1      -1.206  12.502  18.521  0.00  0.00    +0.000 C 
ATOM      4  C   UNL     1      -2.201  11.717  18.073  0.00  0.00    +0.000 C 
ATOM      5  C   UNL     1      -1.896  10.321  17.678  0.00  0.00    +0.000 C 
ATOM      6  O   UNL     1      -2.679   9.660  17.008  0.00  0.00    +0.000 OA
ATOM      7  O   UNL     1      -0.726   9.783  18.130  0.00  0.00    +0.000 OA
ENDROOT
BRANCH   1   8
ATOM      8  C   UNL     1      -0.453  10.154  20.553  0.00  0.00    +0.000 C 
ATOM      9  C   UNL     1       0.123   8.907  21.228  0.00  0.00    +0.000 C 
ATOM     10  C   UNL     1      -0.326   9.014  22.684  0.00  0.00    +0.000 C 
ATOM     11  C   UNL     1      -0.454  10.499  22.985  0.00  0.00    +0.000 C 
ATOM     12  C   UNL     1      -0.272  11.212  21.655  0.00  0.00    +0.000 C 
ENDBRANCH   1   8
BRANCH   3  13
ATOM     13  O   UNL     1      -1.449  13.778  18.985  0.00  0.00    +0.000 OA
ATOM     14  H   UNL     1      -2.032  14.237  18.354  0.00  0.00    +0.000 HD
ENDBRANCH   3  13
BRANCH   1  15
ATOM     15  C   UNL     1       1.562   9.925  18.931  0.00  0.00    +0.000 C 
BRANCH  15  16
ATOM     16  C   UNL     1       1.833   9.067  17.686  0.00  0.00    +0.000 C 
BRANCH  16  20
ATOM     17  C   UNL     1       4.125   5.518  18.686  0.00  0.00    +0.000 A 
ATOM     18  C   UNL     1       4.516   6.334  17.621  0.00  0.00    +0.000 A 
ATOM     19  C   UNL     1       3.784   7.484  17.298  0.00  0.00    +0.000 A 
ATOM     20  C   UNL     1       2.640   7.831  18.029  0.00  0.00    +0.000 A 
ATOM     21  C   UNL     1       2.257   7.013  19.101  0.00  0.00    +0.000 A 
ATOM     22  C   UNL     1       2.982   5.854  19.431  0.00  0.00    +0.000 A 
ATOM     23  C   UNL     1       2.534   4.992  20.580  0.00  0.00    +0.000 C 
BRANCH  17  25
ATOM     24  C   UNL     1       6.168   4.322  18.893  0.00  0.00    +0.000 C 
ATOM     25  O   UNL     1       4.753   4.351  19.039  0.00  0.00    +0.000 OA
ENDBRANCH  17  25
ENDBRANCH  16  20
ENDBRANCH  15  16
ENDBRANCH   1  15
BRANCH   4  26
ATOM     26  C   UNL     1      -3.653  12.100  18.096  0.00  0.00    +0.000 C 
BRANCH  26  27
ATOM     27  C   UNL     1      -4.169  12.455  19.446  0.00  0.00    +0.000 A 
ATOM     28  N   UNL     1      -3.406  12.308  20.568  0.00  0.00    +0.000 NA
ATOM     29  C   UNL     1      -4.252  12.532  21.547  0.00  0.00    +0.000 A 
ATOM     30  N   UNL     1      -4.033  12.448  22.887  0.00  0.00    +0.000 NA
ATOM     31  C   UNL     1      -5.063  12.661  23.656  0.00  0.00    +0.000 A 
ATOM     32  C   UNL     1      -4.873  12.531  25.140  0.00  0.00    +0.000 C 
ATOM     33  C   UNL     1      -6.435  13.031  23.174  0.00  0.00    +0.000 A 
ATOM     34  C   UNL     1      -6.606  13.103  21.842  0.00  0.00    +0.000 A 
ATOM     35  C   UNL     1      -7.914  13.450  21.204  0.00  0.00    +0.000 C 
ATOM     36  N   UNL     1      -5.510  12.837  21.012  0.00  0.00    +0.000 N 
ATOM     37  N   UNL     1      -5.448  12.785  19.657  0.00  0.00    +0.000 NA
ENDBRANCH  26  27
ENDBRANCH   4  26
TORSDOF 8
ENDMDL
MODEL 7
REMARK VINA RESULT:      -8.7      5.528     11.564
REMARK  Name = 
REMARK  12 active torsions:
REMARK  status: ('A' for Active; 'I' for Inactive)
REMARK    1  A    between atoms: C_1  and  O_2
REMARK    2  A    between atoms: O_2  and  C_3
REMARK    3  A    between atoms: C_6  and  C_7
REMARK    4  A    between atoms: C_7  and  C_8
REMARK    5  A    between atoms: C_8  and  C_9
REMARK    6  A    between atoms: C_9  and  C_10
REMARK    7  A    between atoms: C_16  and  O_17
REMARK    8  A    between atoms: C_18  and  C_19
REMARK    9  A    between atoms: C_19  and  C_20
REMARK   10  A    between atoms: C_24  and  C_25
REMARK   11  A    between atoms: C_27  and  C_28
REMARK   12  A    between atoms: C_35  and  C_36
REMARK                            x       y       z     vdW  Elec       q    Type
REMARK                         _______ _______ _______ _____ _____    ______ ____
ROOT
ATOM      1  C   UNL     1       0.333  10.031  19.336  0.00  0.00    +0.000 C 
ATOM      2  C   UNL     1       0.670  11.468  18.874  0.00  0.00    +0.000 C 
ATOM      3  C   UNL     1      -0.582  12.234  18.621  0.00  0.00    +0.000 C 
ATOM      4  C   UNL     1      -1.693  11.617  18.182  0.00  0.00    +0.000 C 
ATOM      5  C   UNL     1      -1.634  10.172  17.856  0.00  0.00    +0.000 C 
ATOM      6  O   UNL     1      -2.510   9.628  17.195  0.00  0.00    +0.000 OA
ATOM      7  O   UNL     1      -0.589   9.457  18.364  0.00  0.00    +0.000 OA
ENDROOT
BRANCH   1   8
ATOM      8  C   UNL     1      -0.299   9.891  20.774  0.00  0.00    +0.000 C 
ATOM      9  C   UNL     1       0.459   8.982  21.744  0.00  0.00    +0.000 C 
ATOM     10  C   UNL     1      -0.163   9.271  23.110  0.00  0.00    +0.000 C 
ATOM     11  C   UNL     1      -0.649  10.711  23.063  0.00  0.00    +0.000 C 
ATOM     12  C   UNL     1      -0.481  11.162  21.621  0.00  0.00    +0.000 C 
ENDBRANCH   1   8
BRANCH   3  13
ATOM     13  O   UNL     1      -0.602  13.554  19.022  0.00  0.00    +0.000 OA
ATOM     14  H   UNL     1      -0.806  14.114  18.250  0.00  0.00    +0.000 HD
ENDBRANCH   3  13
BRANCH   1  15
ATOM     15  C   UNL     1       1.672   9.229  19.219  0.00  0.00    +0.000 C 
BRANCH  15  16
ATOM     16  C   UNL     1       2.167   8.907  17.802  0.00  0.00    +0.000 C 
BRANCH  16  20
ATOM     17  C   UNL     1       3.824   4.902  17.555  0.00  0.00    +0.000 A 
ATOM     18  C   UNL     1       2.559   5.110  18.112  0.00  0.00    +0.000 A 
ATOM     19  C   UNL     1       2.018   6.399  18.188  0.00  0.00    +0.000 A 
ATOM     20  C   UNL     1       2.737   7.505  17.718  0.00  0.00    +0.000 A 
ATOM     21  C   UNL     1       4.002   7.290  17.153  0.00  0.00    +0.000 A 
ATOM     22  C   UNL     1       4.557   6.001  17.075  0.00  0.00    +0.000 A 
ATOM     23  C   UNL     1       5.923   5.809  16.474  0.00  0.00    +0.000 C 
BRANCH  17  25
ATOM     24  C   UNL     1       3.741   2.574  18.023  0.00  0.00    +0.000 C 
ATOM     25  O   UNL     1       4.449   3.683  17.485  0.00  0.00    +0.000 OA
ENDBRANCH  17  25
ENDBRANCH  16  20
ENDBRANCH  15  16
ENDBRANCH   1  15
BRANCH   4  26
ATOM     26  C   UNL     1      -3.054  12.253  18.148  0.00  0.00    +0.000 C 
BRANCH  26  27
ATOM     27  C   UNL     1      -3.751  12.270  19.462  0.00  0.00    +0.000 A 
ATOM     28  N   UNL     1      -5.067  11.934  19.581  0.00  0.00    +0.000 NA
ATOM     29  C   UNL     1      -5.356  12.253  20.822  0.00  0.00    +0.000 A 
ATOM     30  N   UNL     1      -6.559  12.188  21.452  0.00  0.00    +0.000 NA
ATOM     31  C   UNL     1      -6.595  12.624  22.679  0.00  0.00    +0.000 A 
ATOM     32  C   UNL     1      -7.916  12.613  23.393  0.00  0.00    +0.000 C 
ATOM     33  C   UNL     1      -5.411  13.139  23.443  0.00  0.00    +0.000 A 
ATOM     34  C   UNL     1      -4.240  13.186  22.782  0.00  0.00    +0.000 A 
ATOM     35  C   UNL     1      -2.972  13.682  23.400  0.00  0.00    +0.000 C 
ATOM     36  N   UNL     1      -4.208  12.753  21.451  0.00  0.00    +0.000 N 
ATOM     37  N   UNL     1      -3.177  12.761  20.567  0.00  0.00    +0.000 NA
ENDBRANCH  26  27
ENDBRANCH   4  26
TORSDOF 8
ENDMDL
MODEL 8
REMARK VINA RESULT:      -8.6      5.635     11.545
REMARK  Name = 
REMARK  12 active torsions:
REMARK  status: ('A' for Active; 'I' for Inactive)
REMARK    1  A    between atoms: C_1  and  O_2
REMARK    2  A    between atoms: O_2  and  C_3
REMARK    3  A    between atoms: C_6  and  C_7
REMARK    4  A    between atoms: C_7  and  C_8
REMARK    5  A    between atoms: C_8  and  C_9
REMARK    6  A    between atoms: C_9  and  C_10
REMARK    7  A    between atoms: C_16  and  O_17
REMARK    8  A    between atoms: C_18  and  C_19
REMARK    9  A    between atoms: C_19  and  C_20
REMARK   10  A    between atoms: C_24  and  C_25
REMARK   11  A    between atoms: C_27  and  C_28
REMARK   12  A    between atoms: C_35  and  C_36
REMARK                            x       y       z     vdW  Elec       q    Type
REMARK                         _______ _______ _______ _____ _____    ______ ____
ROOT
ATOM      1  C   UNL     1      -0.150  10.383  19.081  0.00  0.00    +0.000 C 
ATOM      2  C   UNL     1       0.149   9.730  20.451  0.00  0.00    +0.000 C 
ATOM      3  C   UNL     1      -0.183  10.673  21.555  0.00  0.00    +0.000 C 
ATOM      4  C   UNL     1      -0.060  12.002  21.390  0.00  0.00    +0.000 C 
ATOM      5  C   UNL     1       0.506  12.521  20.122  0.00  0.00    +0.000 C 
ATOM      6  O   UNL     1       0.902  13.676  20.023  0.00  0.00    +0.000 OA
ATOM      7  O   UNL     1       0.523  11.676  19.050  0.00  0.00    +0.000 OA
ENDROOT
BRANCH   1   8
ATOM      8  C   UNL     1      -1.672  10.599  18.729  0.00  0.00    +0.000 C 
ATOM      9  C   UNL     1      -2.003  11.900  17.996  0.00  0.00    +0.000 C 
ATOM     10  C   UNL     1      -3.438  11.713  17.506  0.00  0.00    +0.000 C 
ATOM     11  C   UNL     1      -3.624  10.220  17.287  0.00  0.00    +0.000 C 
ATOM     12  C   UNL     1      -2.372   9.557  17.839  0.00  0.00    +0.000 C 
ENDBRANCH   1   8
BRANCH   3  13
ATOM     13  O   UNL     1      -0.783  10.140  22.677  0.00  0.00    +0.000 OA
ATOM     14  H   UNL     1      -1.528  10.712  22.937  0.00  0.00    +0.000 HD
ENDBRANCH   3  13
BRANCH   1  15
ATOM     15  C   UNL     1       0.560   9.477  18.022  0.00  0.00    +0.000 C 
BRANCH  15  16
ATOM     16  C   UNL     1       2.095   9.511  17.996  0.00  0.00    +0.000 C 
BRANCH  16  20
ATOM     17  C   UNL     1       3.802   5.560  18.565  0.00  0.00    +0.000 A 
ATOM     18  C   UNL     1       2.883   6.071  19.486  0.00  0.00    +0.000 A 
ATOM     19  C   UNL     1       2.325   7.343  19.303  0.00  0.00    +0.000 A 
ATOM     20  C   UNL     1       2.684   8.130  18.202  0.00  0.00    +0.000 A 
ATOM     21  C   UNL     1       3.601   7.608  17.277  0.00  0.00    +0.000 A 
ATOM     22  C   UNL     1       4.170   6.335  17.453  0.00  0.00    +0.000 A 
ATOM     23  C   UNL     1       5.160   5.812  16.447  0.00  0.00    +0.000 C 
BRANCH  17  25
ATOM     24  C   UNL     1       3.661   3.284  19.236  0.00  0.00    +0.000 C 
ATOM     25  O   UNL     1       4.432   4.348  18.692  0.00  0.00    +0.000 OA
ENDBRANCH  17  25
ENDBRANCH  16  20
ENDBRANCH  15  16
ENDBRANCH   1  15
BRANCH   4  26
ATOM     26  C   UNL     1      -0.610  13.025  22.342  0.00  0.00    +0.000 C 
BRANCH  26  27
ATOM     27  C   UNL     1      -2.068  13.277  22.190  0.00  0.00    +0.000 A 
ATOM     28  N   UNL     1      -2.998  12.326  22.495  0.00  0.00    +0.000 NA
ATOM     29  C   UNL     1      -4.122  12.842  22.054  0.00  0.00    +0.000 A 
ATOM     30  N   UNL     1      -5.360  12.279  22.042  0.00  0.00    +0.000 NA
ATOM     31  C   UNL     1      -6.310  12.981  21.490  0.00  0.00    +0.000 A 
ATOM     32  C   UNL     1      -7.681  12.374  21.414  0.00  0.00    +0.000 C 
ATOM     33  C   UNL     1      -6.141  14.358  20.920  0.00  0.00    +0.000 A 
ATOM     34  C   UNL     1      -4.899  14.876  20.953  0.00  0.00    +0.000 A 
ATOM     35  C   UNL     1      -4.565  16.232  20.418  0.00  0.00    +0.000 C 
ATOM     36  N   UNL     1      -3.870  14.109  21.512  0.00  0.00    +0.000 N 
ATOM     37  N   UNL     1      -2.543  14.382  21.603  0.00  0.00    +0.000 NA
ENDBRANCH  26  27
ENDBRANCH   4  26
TORSDOF 8
ENDMDL
MODEL 9
REMARK VINA RESULT:      -8.6      5.955     11.944
REMARK  Name = 
REMARK  12 active torsions:
REMARK  status: ('A' for Active; 'I' for Inactive)
REMARK    1  A    between atoms: C_1  and  O_2
REMARK    2  A    between atoms: O_2  and  C_3
REMARK    3  A    between atoms: C_6  and  C_7
REMARK    4  A    between atoms: C_7  and  C_8
REMARK    5  A    between atoms: C_8  and  C_9
REMARK    6  A    between atoms: C_9  and  C_10
REMARK    7  A    between atoms: C_16  and  O_17
REMARK    8  A    between atoms: C_18  and  C_19
REMARK    9  A    between atoms: C_19  and  C_20
REMARK   10  A    between atoms: C_24  and  C_25
REMARK   11  A    between atoms: C_27  and  C_28
REMARK   12  A    between atoms: C_35  and  C_36
REMARK                            x       y       z     vdW  Elec       q    Type
REMARK                         _______ _______ _______ _____ _____    ______ ____
ROOT
ATOM      1  C   UNL     1      -0.269  10.506  19.316  0.00  0.00    +0.000 C 
ATOM      2  C   UNL     1      -0.328  12.013  18.971  0.00  0.00    +0.000 C 
ATOM      3  C   UNL     1      -1.744  12.469  18.902  0.00  0.00    +0.000 C 
ATOM      4  C   UNL     1      -2.721  11.637  18.500  0.00  0.00    +0.000 C 
ATOM      5  C   UNL     1      -2.361  10.278  18.030  0.00  0.00    +0.000 C 
ATOM      6  O   UNL     1      -3.151   9.589  17.396  0.00  0.00    +0.000 OA
ATOM      7  O   UNL     1      -1.129   9.801  18.374  0.00  0.00    +0.000 OA
ENDROOT
BRANCH   1   8
ATOM      8  C   UNL     1      -0.694  10.109  20.781  0.00  0.00    +0.000 C 
ATOM      9  C   UNL     1       0.051   8.917  21.386  0.00  0.00    +0.000 C 
ATOM     10  C   UNL     1      -0.308   8.950  22.871  0.00  0.00    +0.000 C 
ATOM     11  C   UNL     1      -0.569  10.408  23.217  0.00  0.00    +0.000 C 
ATOM     12  C   UNL     1      -0.550  11.160  21.896  0.00  0.00    +0.000 C 
ENDBRANCH   1   8
BRANCH   3  13
ATOM     13  O   UNL     1      -2.029  13.711  19.431  0.00  0.00    +0.000 OA
ATOM     14  H   UNL     1      -1.224  14.259  19.399  0.00  0.00    +0.000 HD
ENDBRANCH   3  13
BRANCH   1  15
ATOM     15  C   UNL     1       1.200  10.064  19.006  0.00  0.00    +0.000 C 
BRANCH  15  16
ATOM     16  C   UNL     1       1.416   9.198  17.756  0.00  0.00    +0.000 C 
BRANCH  16  20
ATOM     17  C   UNL     1       4.079   5.870  18.578  0.00  0.00    +0.000 A 
ATOM     18  C   UNL     1       4.396   6.798  17.581  0.00  0.00    +0.000 A 
ATOM     19  C   UNL     1       3.543   7.877  17.316  0.00  0.00    +0.000 A 
ATOM     20  C   UNL     1       2.353   8.041  18.037  0.00  0.00    +0.000 A 
ATOM     21  C   UNL     1       2.045   7.111  19.041  0.00  0.00    +0.000 A 
ATOM     22  C   UNL     1       2.892   6.022  19.312  0.00  0.00    +0.000 A 
ATOM     23  C   UNL     1       2.523   5.037  20.388  0.00  0.00    +0.000 C 
BRANCH  17  25
ATOM     24  C   UNL     1       6.198   4.984  19.188  0.00  0.00    +0.000 C 
ATOM     25  O   UNL     1       4.831   4.760  18.869  0.00  0.00    +0.000 OA
ENDBRANCH  17  25
ENDBRANCH  16  20
ENDBRANCH  15  16
ENDBRANCH   1  15
BRANCH   4  26
ATOM     26  C   UNL     1      -4.188  11.925  18.646  0.00  0.00    +0.000 C 
BRANCH  26  27
ATOM     27  C   UNL     1      -4.548  12.630  19.905  0.00  0.00    +0.000 A 
ATOM     28  N   UNL     1      -5.227  13.813  19.898  0.00  0.00    +0.000 NA
ATOM     29  C   UNL     1      -5.182  14.203  21.151  0.00  0.00    +0.000 A 
ATOM     30  N   UNL     1      -5.649  15.360  21.691  0.00  0.00    +0.000 NA
ATOM     31  C   UNL     1      -5.425  15.537  22.963  0.00  0.00    +0.000 A 
ATOM     32  C   UNL     1      -5.884  16.823  23.587  0.00  0.00    +0.000 C 
ATOM     33  C   UNL     1      -4.741  14.548  23.861  0.00  0.00    +0.000 A 
ATOM     34  C   UNL     1      -4.295  13.417  23.284  0.00  0.00    +0.000 A 
ATOM     35  C   UNL     1      -3.586  12.339  24.041  0.00  0.00    +0.000 C 
ATOM     36  N   UNL     1      -4.502  13.242  21.910  0.00  0.00    +0.000 N 
ATOM     37  N   UNL     1      -4.096  12.232  21.100  0.00  0.00    +0.000 NA
ENDBRANCH  26  27
ENDBRANCH   4  26
TORSDOF 8
ENDMDL
