MODEL 1
REMARK VINA RESULT:      -8.2      0.000      0.000
REMARK  Name = 
REMARK  3 active torsions:
REMARK  status: ('A' for Active; 'I' for Inactive)
REMARK    1  A    between atoms: C_1  and  C_2
REMARK    2  A    between atoms: C_4  and  C_5
REMARK    3  A    between atoms: N_17  and  C_18
REMARK                            x       y       z     vdW  Elec       q    Type
REMARK                         _______ _______ _______ _____ _____    ______ ____
ROOT
ATOM      1  C   UNL     1       2.164   8.018  18.623  0.00  0.00    +0.000 C 
ATOM      2  C   UNL     1       2.964   6.755  18.515  0.00  0.00    +0.000 A 
ATOM      3  N   UNL     1       3.900   6.748  17.551  0.00  0.00    +0.000 NA
ATOM      4  C   UNL     1       4.670   5.656  17.418  0.00  0.00    +0.000 A 
ATOM      5  N   UNL     1       4.551   4.559  18.190  0.00  0.00    +0.000 NA
ATOM      6  C   UNL     1       3.596   4.579  19.153  0.00  0.00    +0.000 A 
ATOM      7  C   UNL     1       2.767   5.672  19.357  0.00  0.00    +0.000 A 
ATOM      8  C   UNL     1       1.788   5.719  20.485  0.00  0.00    +0.000 C 
ATOM      9  C   UNL     1       1.376   4.339  20.935  0.00  0.00    +0.000 C 
ATOM     10  C   UNL     1       2.551   3.406  21.062  0.00  0.00    +0.000 C 
ATOM     11  O   UNL     1       2.578   2.575  21.970  0.00  0.00    +0.000 OA
ATOM     12  N   UNL     1       3.481   3.465  20.034  0.00  0.00    +0.000 N 
ATOM     13  C   UNL     1       4.382   2.343  19.846  0.00  0.00    +0.000 C 
ENDROOT
BRANCH   4  14
ATOM     14  C   UNL     1       5.774   5.790  16.398  0.00  0.00    +0.000 C 
ATOM     15  C   UNL     1       5.519   5.288  14.978  0.00  0.00    +0.000 C 
ATOM     16  C   UNL     1       6.603   4.251  14.731  0.00  0.00    +0.000 C 
ATOM     17  N   UNL     1       7.712   4.631  15.612  0.00  0.00    +0.000 NA
ATOM     18  C   UNL     1       7.042   5.063  16.849  0.00  0.00    +0.000 C 
ATOM     19  H   UNL     1       8.201   5.429  15.205  0.00  0.00    +0.000 HD
ENDBRANCH   4  14
TORSDOF 1
ENDMDL
MODEL 2
REMARK VINA RESULT:      -7.6      1.379      1.895
REMARK  Name = 
REMARK  3 active torsions:
REMARK  status: ('A' for Active; 'I' for Inactive)
REMARK    1  A    between atoms: C_1  and  C_2
REMARK    2  A    between atoms: C_4  and  C_5
REMARK    3  A    between atoms: N_17  and  C_18
REMARK                            x       y       z     vdW  Elec       q    Type
REMARK                         _______ _______ _______ _____ _____    ______ ____
ROOT
ATOM      1  C   UNL     1       2.113   7.413  18.434  0.00  0.00    +0.000 C 
ATOM      2  C   UNL     1       3.024   6.254  18.707  0.00  0.00    +0.000 A 
ATOM      3  N   UNL     1       4.242   6.337  18.145  0.00  0.00    +0.000 NA
ATOM      4  C   UNL     1       5.117   5.343  18.371  0.00  0.00    +0.000 A 
ATOM      5  N   UNL     1       4.840   4.260  19.123  0.00  0.00    +0.000 NA
ATOM      6  C   UNL     1       3.602   4.190  19.676  0.00  0.00    +0.000 A 
ATOM      7  C   UNL     1       2.648   5.178  19.494  0.00  0.00    +0.000 A 
ATOM      8  C   UNL     1       1.326   5.135  20.191  0.00  0.00    +0.000 C 
ATOM      9  C   UNL     1       0.925   3.728  20.557  0.00  0.00    +0.000 C 
ATOM     10  C   UNL     1       2.063   2.949  21.160  0.00  0.00    +0.000 C 
ATOM     11  O   UNL     1       1.844   2.152  22.073  0.00  0.00    +0.000 OA
ATOM     12  N   UNL     1       3.291   3.094  20.532  0.00  0.00    +0.000 N 
ATOM     13  C   UNL     1       4.311   2.085  20.756  0.00  0.00    +0.000 C 
ENDROOT
BRANCH   4  14
ATOM     14  C   UNL     1       6.495   5.583  17.808  0.00  0.00    +0.000 C 
ATOM     15  C   UNL     1       7.597   6.058  18.753  0.00  0.00    +0.000 C 
ATOM     16  C   UNL     1       8.076   7.375  18.161  0.00  0.00    +0.000 C 
ATOM     17  N   UNL     1       7.777   7.287  16.728  0.00  0.00    +0.000 NA
ATOM     18  C   UNL     1       6.466   6.620  16.685  0.00  0.00    +0.000 C 
ATOM     19  H   UNL     1       8.470   6.684  16.281  0.00  0.00    +0.000 HD
ENDBRANCH   4  14
TORSDOF 1
ENDMDL
MODEL 3
REMARK VINA RESULT:      -7.4      1.194      1.206
REMARK  Name = 
REMARK  3 active torsions:
REMARK  status: ('A' for Active; 'I' for Inactive)
REMARK    1  A    between atoms: C_1  and  C_2
REMARK    2  A    between atoms: C_4  and  C_5
REMARK    3  A    between atoms: N_17  and  C_18
REMARK                            x       y       z     vdW  Elec       q    Type
REMARK                         _______ _______ _______ _____ _____    ______ ____
ROOT
ATOM      1  C   UNL     1       2.144   7.847  19.653  0.00  0.00    +0.000 C 
ATOM      2  C   UNL     1       2.712   6.658  18.937  0.00  0.00    +0.000 A 
ATOM      3  N   UNL     1       3.598   6.941  17.967  0.00  0.00    +0.000 NA
ATOM      4  C   UNL     1       4.165   5.920  17.304  0.00  0.00    +0.000 A 
ATOM      5  N   UNL     1       3.888   4.625  17.547  0.00  0.00    +0.000 NA
ATOM      6  C   UNL     1       2.984   4.357  18.524  0.00  0.00    +0.000 A 
ATOM      7  C   UNL     1       2.363   5.356  19.257  0.00  0.00    +0.000 A 
ATOM      8  C   UNL     1       1.447   5.044  20.396  0.00  0.00    +0.000 C 
ATOM      9  C   UNL     1       0.822   3.678  20.262  0.00  0.00    +0.000 C 
ATOM     10  C   UNL     1       1.823   2.629  19.857  0.00  0.00    +0.000 C 
ATOM     11  O   UNL     1       1.740   1.491  20.320  0.00  0.00    +0.000 OA
ATOM     12  N   UNL     1       2.712   2.999  18.859  0.00  0.00    +0.000 N 
ATOM     13  C   UNL     1       3.401   1.957  18.119  0.00  0.00    +0.000 C 
ENDROOT
BRANCH   4  14
ATOM     14  C   UNL     1       5.237   6.328  16.325  0.00  0.00    +0.000 C 
ATOM     15  C   UNL     1       5.557   5.393  15.160  0.00  0.00    +0.000 C 
ATOM     16  C   UNL     1       7.037   5.075  15.311  0.00  0.00    +0.000 C 
ATOM     17  N   UNL     1       7.608   6.218  16.031  0.00  0.00    +0.000 NA
ATOM     18  C   UNL     1       6.578   6.553  17.027  0.00  0.00    +0.000 C 
ATOM     19  H   UNL     1       7.708   7.001  15.383  0.00  0.00    +0.000 HD
ENDBRANCH   4  14
TORSDOF 1
ENDMDL
MODEL 4
REMARK VINA RESULT:      -7.3      1.151      1.386
REMARK  Name = 
REMARK  3 active torsions:
REMARK  status: ('A' for Active; 'I' for Inactive)
REMARK    1  A    between atoms: C_1  and  C_2
REMARK    2  A    between atoms: C_4  and  C_5
REMARK    3  A    between atoms: N_17  and  C_18
REMARK                            x       y       z     vdW  Elec       q    Type
REMARK                         _______ _______ _______ _____ _____    ______ ____
ROOT
ATOM      1  C   UNL     1       3.261   7.698  17.573  0.00  0.00    +0.000 C 
ATOM      2  C   UNL     1       3.635   6.264  17.801  0.00  0.00    +0.000 A 
ATOM      3  N   UNL     1       4.474   5.738  16.892  0.00  0.00    +0.000 NA
ATOM      4  C   UNL     1       4.871   4.465  17.052  0.00  0.00    +0.000 A 
ATOM      5  N   UNL     1       4.467   3.678  18.068  0.00  0.00    +0.000 NA
ATOM      6  C   UNL     1       3.613   4.223  18.972  0.00  0.00    +0.000 A 
ATOM      7  C   UNL     1       3.165   5.531  18.879  0.00  0.00    +0.000 A 
ATOM      8  C   UNL     1       2.306   6.147  19.935  0.00  0.00    +0.000 C 
ATOM      9  C   UNL     1       1.521   5.112  20.701  0.00  0.00    +0.000 C 
ATOM     10  C   UNL     1       2.364   3.925  21.084  0.00  0.00    +0.000 C 
ATOM     11  O   UNL     1       2.186   3.372  22.170  0.00  0.00    +0.000 OA
ATOM     12  N   UNL     1       3.213   3.446  20.098  0.00  0.00    +0.000 N 
ATOM     13  C   UNL     1       3.722   2.092  20.215  0.00  0.00    +0.000 C 
ENDROOT
BRANCH   4  14
ATOM     14  C   UNL     1       5.908   4.003  16.059  0.00  0.00    +0.000 C 
ATOM     15  C   UNL     1       7.203   4.804  15.931  0.00  0.00    +0.000 C 
ATOM     16  C   UNL     1       7.256   5.227  14.471  0.00  0.00    +0.000 C 
ATOM     17  N   UNL     1       6.475   4.219  13.747  0.00  0.00    +0.000 NA
ATOM     18  C   UNL     1       5.338   3.949  14.641  0.00  0.00    +0.000 C 
ATOM     19  H   UNL     1       7.034   3.369  13.656  0.00  0.00    +0.000 HD
ENDBRANCH   4  14
TORSDOF 1
ENDMDL
MODEL 5
REMARK VINA RESULT:      -7.1      1.593      2.925
REMARK  Name = 
REMARK  3 active torsions:
REMARK  status: ('A' for Active; 'I' for Inactive)
REMARK    1  A    between atoms: C_1  and  C_2
REMARK    2  A    between atoms: C_4  and  C_5
REMARK    3  A    between atoms: N_17  and  C_18
REMARK                            x       y       z     vdW  Elec       q    Type
REMARK                         _______ _______ _______ _____ _____    ______ ____
ROOT
ATOM      1  C   UNL     1       3.728   1.570  18.112  0.00  0.00    +0.000 C 
ATOM      2  C   UNL     1       3.775   3.065  18.004  0.00  0.00    +0.000 A 
ATOM      3  N   UNL     1       4.518   3.545  16.993  0.00  0.00    +0.000 NA
ATOM      4  C   UNL     1       4.581   4.876  16.824  0.00  0.00    +0.000 A 
ATOM      5  N   UNL     1       3.949   5.761  17.618  0.00  0.00    +0.000 NA
ATOM      6  C   UNL     1       3.209   5.259  18.639  0.00  0.00    +0.000 A 
ATOM      7  C   UNL     1       3.090   3.898  18.874  0.00  0.00    +0.000 A 
ATOM      8  C   UNL     1       2.192   3.357  19.939  0.00  0.00    +0.000 C 
ATOM      9  C   UNL     1       1.959   4.358  21.044  0.00  0.00    +0.000 C 
ATOM     10  C   UNL     1       1.670   5.737  20.514  0.00  0.00    +0.000 C 
ATOM     11  O   UNL     1       0.851   6.455  21.089  0.00  0.00    +0.000 OA
ATOM     12  N   UNL     1       2.471   6.158  19.463  0.00  0.00    +0.000 N 
ATOM     13  C   UNL     1       2.562   7.579  19.184  0.00  0.00    +0.000 C 
ENDROOT
BRANCH   4  14
ATOM     14  C   UNL     1       5.331   5.315  15.591  0.00  0.00    +0.000 C 
ATOM     15  C   UNL     1       5.318   4.403  14.365  0.00  0.00    +0.000 C 
ATOM     16  C   UNL     1       6.783   4.102  14.088  0.00  0.00    +0.000 C 
ATOM     17  N   UNL     1       7.524   5.241  14.641  0.00  0.00    +0.000 NA
ATOM     18  C   UNL     1       6.813   5.546  15.892  0.00  0.00    +0.000 C 
ATOM     19  H   UNL     1       7.432   6.036  14.006  0.00  0.00    +0.000 HD
ENDBRANCH   4  14
TORSDOF 1
ENDMDL
MODEL 6
REMARK VINA RESULT:      -6.8      2.428      3.904
REMARK  Name = 
REMARK  3 active torsions:
REMARK  status: ('A' for Active; 'I' for Inactive)
REMARK    1  A    between atoms: C_1  and  C_2
REMARK    2  A    between atoms: C_4  and  C_5
REMARK    3  A    between atoms: N_17  and  C_18
REMARK                            x       y       z     vdW  Elec       q    Type
REMARK                         _______ _______ _______ _____ _____    ______ ____
ROOT
ATOM      1  C   UNL     1       2.812   4.254  20.489  0.00  0.00    +0.000 C 
ATOM      2  C   UNL     1       2.975   5.432  19.576  0.00  0.00    +0.000 A 
ATOM      3  N   UNL     1       3.820   5.249  18.547  0.00  0.00    +0.000 NA
ATOM      4  C   UNL     1       3.991   6.257  17.676  0.00  0.00    +0.000 A 
ATOM      5  N   UNL     1       3.370   7.448  17.779  0.00  0.00    +0.000 NA
ATOM      6  C   UNL     1       2.526   7.618  18.828  0.00  0.00    +0.000 A 
ATOM      7  C   UNL     1       2.293   6.623  19.765  0.00  0.00    +0.000 A 
ATOM      8  C   UNL     1       1.285   6.789  20.856  0.00  0.00    +0.000 C 
ATOM      9  C   UNL     1       1.048   8.240  21.191  0.00  0.00    +0.000 C 
ATOM     10  C   UNL     1       0.898   9.093  19.960  0.00  0.00    +0.000 C 
ATOM     11  O   UNL     1       0.095  10.027  19.956  0.00  0.00    +0.000 OA
ATOM     12  N   UNL     1       1.799   8.838  18.938  0.00  0.00    +0.000 N 
ATOM     13  C   UNL     1       2.013   9.859  17.928  0.00  0.00    +0.000 C 
ENDROOT
BRANCH   4  14
ATOM     14  C   UNL     1       4.856   5.917  16.488  0.00  0.00    +0.000 C 
ATOM     15  C   UNL     1       5.152   4.446  16.199  0.00  0.00    +0.000 C 
ATOM     16  C   UNL     1       6.670   4.340  16.232  0.00  0.00    +0.000 C 
ATOM     17  N   UNL     1       7.159   5.680  15.889  0.00  0.00    +0.000 NA
ATOM     18  C   UNL     1       6.230   6.581  16.590  0.00  0.00    +0.000 C 
ATOM     19  H   UNL     1       7.060   5.821  14.882  0.00  0.00    +0.000 HD
ENDBRANCH   4  14
TORSDOF 1
ENDMDL
MODEL 7
REMARK VINA RESULT:      -6.6      2.738      5.764
REMARK  Name = 
REMARK  3 active torsions:
REMARK  status: ('A' for Active; 'I' for Inactive)
REMARK    1  A    between atoms: C_1  and  C_2
REMARK    2  A    between atoms: C_4  and  C_5
REMARK    3  A    between atoms: N_17  and  C_18
REMARK                            x       y       z     vdW  Elec       q    Type
REMARK                         _______ _______ _______ _____ _____    ______ ____
ROOT
ATOM      1  C   UNL     1       1.407   3.611  21.055  0.00  0.00    +0.000 C 
ATOM      2  C   UNL     1       1.989   4.697  20.199  0.00  0.00    +0.000 A 
ATOM      3  N   UNL     1       1.646   5.949  20.549  0.00  0.00    +0.000 NA
ATOM      4  C   UNL     1       2.154   6.970  19.839  0.00  0.00    +0.000 A 
ATOM      5  N   UNL     1       2.981   6.812  18.789  0.00  0.00    +0.000 NA
ATOM      6  C   UNL     1       3.311   5.541  18.445  0.00  0.00    +0.000 A 
ATOM      7  C   UNL     1       2.833   4.436  19.132  0.00  0.00    +0.000 A 
ATOM      8  C   UNL     1       3.283   3.049  18.805  0.00  0.00    +0.000 C 
ATOM      9  C   UNL     1       3.756   2.930  17.378  0.00  0.00    +0.000 C 
ATOM     10  C   UNL     1       4.649   4.072  16.975  0.00  0.00    +0.000 C 
ATOM     11  O   UNL     1       5.606   3.868  16.227  0.00  0.00    +0.000 OA
ATOM     12  N   UNL     1       4.235   5.332  17.381  0.00  0.00    +0.000 N 
ATOM     13  C   UNL     1       4.769   6.495  16.695  0.00  0.00    +0.000 C 
ENDROOT
BRANCH   4  14
ATOM     14  C   UNL     1       1.817   8.337  20.382  0.00  0.00    +0.000 C 
ATOM     15  C   UNL     1       0.849   8.436  21.560  0.00  0.00    +0.000 C 
ATOM     16  C   UNL     1      -0.287   9.314  21.058  0.00  0.00    +0.000 C 
ATOM     17  N   UNL     1       0.304  10.150  20.008  0.00  0.00    +0.000 NA
ATOM     18  C   UNL     1       1.212   9.233  19.301  0.00  0.00    +0.000 C 
ATOM     19  H   UNL     1       0.856  10.890  20.445  0.00  0.00    +0.000 HD
ENDBRANCH   4  14
TORSDOF 1
ENDMDL
MODEL 8
REMARK VINA RESULT:      -6.6      2.598      5.545
REMARK  Name = 
REMARK  3 active torsions:
REMARK  status: ('A' for Active; 'I' for Inactive)
REMARK    1  A    between atoms: C_1  and  C_2
REMARK    2  A    between atoms: C_4  and  C_5
REMARK    3  A    between atoms: N_17  and  C_18
REMARK                            x       y       z     vdW  Elec       q    Type
REMARK                         _______ _______ _______ _____ _____    ______ ____
ROOT
ATOM      1  C   UNL     1       1.823   4.521  20.877  0.00  0.00    +0.000 C 
ATOM      2  C   UNL     1       2.349   5.413  19.792  0.00  0.00    +0.000 A 
ATOM      3  N   UNL     1       1.941   6.692  19.851  0.00  0.00    +0.000 NA
ATOM      4  C   UNL     1       2.398   7.550  18.924  0.00  0.00    +0.000 A 
ATOM      5  N   UNL     1       3.234   7.199  17.929  0.00  0.00    +0.000 NA
ATOM      6  C   UNL     1       3.629   5.902  17.879  0.00  0.00    +0.000 A 
ATOM      7  C   UNL     1       3.207   4.959  18.803  0.00  0.00    +0.000 A 
ATOM      8  C   UNL     1       3.729   3.559  18.795  0.00  0.00    +0.000 C 
ATOM      9  C   UNL     1       4.211   3.142  17.428  0.00  0.00    +0.000 C 
ATOM     10  C   UNL     1       5.044   4.207  16.767  0.00  0.00    +0.000 C 
ATOM     11  O   UNL     1       6.012   3.887  16.076  0.00  0.00    +0.000 OA
ATOM     12  N   UNL     1       4.566   5.504  16.881  0.00  0.00    +0.000 N 
ATOM     13  C   UNL     1       5.040   6.505  15.944  0.00  0.00    +0.000 C 
ENDROOT
BRANCH   4  14
ATOM     14  C   UNL     1       1.990   8.985  19.146  0.00  0.00    +0.000 C 
ATOM     15  C   UNL     1       0.879   9.280  20.152  0.00  0.00    +0.000 C 
ATOM     16  C   UNL     1      -0.187  10.014  19.352  0.00  0.00    +0.000 C 
ATOM     17  N   UNL     1       0.531  10.650  18.242  0.00  0.00    +0.000 NA
ATOM     18  C   UNL     1       1.525   9.640  17.845  0.00  0.00    +0.000 C 
ATOM     19  H   UNL     1       1.020  11.475  18.594  0.00  0.00    +0.000 HD
ENDBRANCH   4  14
TORSDOF 1
ENDMDL
MODEL 9
REMARK VINA RESULT:      -6.5      2.884      5.720
REMARK  Name = 
REMARK  3 active torsions:
REMARK  status: ('A' for Active; 'I' for Inactive)
REMARK    1  A    between atoms: C_1  and  C_2
REMARK    2  A    between atoms: C_4  and  C_5
REMARK    3  A    between atoms: N_17  and  C_18
REMARK                            x       y       z     vdW  Elec       q    Type
REMARK                         _______ _______ _______ _____ _____    ______ ____
ROOT
ATOM      1  C   UNL     1       3.185   8.004  17.484  0.00  0.00    +0.000 C 
ATOM      2  C   UNL     1       2.618   7.244  18.645  0.00  0.00    +0.000 A 
ATOM      3  N   UNL     1       1.943   7.983  19.542  0.00  0.00    +0.000 NA
ATOM      4  C   UNL     1       1.386   7.359  20.593  0.00  0.00    +0.000 A 
ATOM      5  N   UNL     1       1.476   6.032  20.807  0.00  0.00    +0.000 NA
ATOM      6  C   UNL     1       2.169   5.302  19.897  0.00  0.00    +0.000 A 
ATOM      7  C   UNL     1       2.765   5.873  18.783  0.00  0.00    +0.000 A 
ATOM      8  C   UNL     1       3.438   5.044  17.737  0.00  0.00    +0.000 C 
ATOM      9  C   UNL     1       3.923   3.726  18.287  0.00  0.00    +0.000 C 
ATOM     10  C   UNL     1       2.895   3.057  19.160  0.00  0.00    +0.000 C 
ATOM     11  O   UNL     1       2.775   1.832  19.137  0.00  0.00    +0.000 OA
ATOM     12  N   UNL     1       2.231   3.887  20.051  0.00  0.00    +0.000 N 
ATOM     13  C   UNL     1       1.566   3.289  21.194  0.00  0.00    +0.000 C 
ENDROOT
BRANCH   4  14
ATOM     14  C   UNL     1       0.543   8.247  21.473  0.00  0.00    +0.000 C 
ATOM     15  C   UNL     1      -0.388   9.260  20.809  0.00  0.00    +0.000 C 
ATOM     16  C   UNL     1       0.051  10.610  21.356  0.00  0.00    +0.000 C 
ATOM     17  N   UNL     1       0.662  10.320  22.658  0.00  0.00    +0.000 NA
ATOM     18  C   UNL     1       1.409   9.074  22.424  0.00  0.00    +0.000 C 
ATOM     19  H   UNL     1      -0.078  10.139  23.338  0.00  0.00    +0.000 HD
ENDBRANCH   4  14
TORSDOF 1
ENDMDL
