MODEL 1
REMARK VINA RESULT:      -6.8      0.000      0.000
REMARK  Name = 
REMARK  3 active torsions:
REMARK  status: ('A' for Active; 'I' for Inactive)
REMARK    1  A    between atoms: C_1  and  C_2
REMARK    2  A    between atoms: C_12  and  C_13
REMARK    3  A    between atoms: C_13  and  O_15
REMARK                            x       y       z     vdW  Elec       q    Type
REMARK                         _______ _______ _______ _____ _____    ______ ____
ROOT
ATOM      1  C   UNL     1       3.510   5.357  19.396  0.00  0.00    +0.000 C 
ATOM      2  C   UNL     1       4.481   4.175  19.314  0.00  0.00    +0.000 C 
ATOM      3  O   UNL     1       5.789   4.630  19.721  0.00  0.00    +0.000 OA
ATOM      4  C   UNL     1       6.509   5.267  18.737  0.00  0.00    +0.000 C 
ATOM      5  C   UNL     1       6.233   5.222  17.427  0.00  0.00    +0.000 C 
ATOM      6  C   UNL     1       7.092   5.997  16.511  0.00  0.00    +0.000 C 
ATOM      7  O   UNL     1       7.654   7.030  16.854  0.00  0.00    +0.000 OA
ATOM      8  O   UNL     1       7.277   5.448  15.287  0.00  0.00    +0.000 OA
ATOM      9  C   UNL     1       6.314   4.559  14.694  0.00  0.00    +0.000 C 
ATOM     10  C   UNL     1       5.672   3.606  15.682  0.00  0.00    +0.000 C 
ATOM     11  C   UNL     1       5.126   4.395  16.869  0.00  0.00    +0.000 C 
ATOM     12  C   UNL     1       4.552   3.460  17.953  0.00  0.00    +0.000 C 
ENDROOT
BRANCH  12  13
ATOM     13  C   UNL     1       3.193   2.925  17.564  0.00  0.00    +0.000 C 
ATOM     14  O   UNL     1       2.379   3.549  16.898  0.00  0.00    +0.000 OA
BRANCH  13  15
ATOM     15  O   UNL     1       2.943   1.681  18.016  0.00  0.00    +0.000 OA
ATOM     16  H   UNL     1       2.001   1.451  18.129  0.00  0.00    +0.000 HD
ENDBRANCH  13  15
ENDBRANCH  12  13
TORSDOF 2
ENDMDL
MODEL 2
REMARK VINA RESULT:      -6.3      2.162      4.679
REMARK  Name = 
REMARK  3 active torsions:
REMARK  status: ('A' for Active; 'I' for Inactive)
REMARK    1  A    between atoms: C_1  and  C_2
REMARK    2  A    between atoms: C_12  and  C_13
REMARK    3  A    between atoms: C_13  and  O_15
REMARK                            x       y       z     vdW  Elec       q    Type
REMARK                         _______ _______ _______ _____ _____    ______ ____
ROOT
ATOM      1  C   UNL     1       7.404   7.671  17.420  0.00  0.00    +0.000 C 
ATOM      2  C   UNL     1       6.868   6.418  16.720  0.00  0.00    +0.000 C 
ATOM      3  O   UNL     1       5.755   6.802  15.885  0.00  0.00    +0.000 OA
ATOM      4  C   UNL     1       4.555   6.925  16.547  0.00  0.00    +0.000 C 
ATOM      5  C   UNL     1       4.294   6.441  17.767  0.00  0.00    +0.000 C 
ATOM      6  C   UNL     1       2.959   6.696  18.343  0.00  0.00    +0.000 C 
ATOM      7  O   UNL     1       2.303   7.693  18.064  0.00  0.00    +0.000 OA
ATOM      8  O   UNL     1       2.475   5.715  19.142  0.00  0.00    +0.000 OA
ATOM      9  C   UNL     1       3.340   4.815  19.856  0.00  0.00    +0.000 C 
ATOM     10  C   UNL     1       4.566   4.392  19.072  0.00  0.00    +0.000 C 
ATOM     11  C   UNL     1       5.280   5.630  18.536  0.00  0.00    +0.000 C 
ATOM     12  C   UNL     1       6.479   5.250  17.644  0.00  0.00    +0.000 C 
ENDROOT
BRANCH  12  13
ATOM     13  C   UNL     1       7.666   4.805  18.466  0.00  0.00    +0.000 C 
ATOM     14  O   UNL     1       7.874   5.166  19.617  0.00  0.00    +0.000 OA
BRANCH  13  15
ATOM     15  O   UNL     1       8.496   3.963  17.822  0.00  0.00    +0.000 OA
ATOM     16  H   UNL     1       8.122   3.093  17.587  0.00  0.00    +0.000 HD
ENDBRANCH  13  15
ENDBRANCH  12  13
TORSDOF 2
ENDMDL
MODEL 3
REMARK VINA RESULT:      -6.3      1.812      2.456
REMARK  Name = 
REMARK  3 active torsions:
REMARK  status: ('A' for Active; 'I' for Inactive)
REMARK    1  A    between atoms: C_1  and  C_2
REMARK    2  A    between atoms: C_12  and  C_13
REMARK    3  A    between atoms: C_13  and  O_15
REMARK                            x       y       z     vdW  Elec       q    Type
REMARK                         _______ _______ _______ _____ _____    ______ ____
ROOT
ATOM      1  C   UNL     1       1.767   4.138  17.805  0.00  0.00    +0.000 C 
ATOM      2  C   UNL     1       2.638   4.848  18.845  0.00  0.00    +0.000 C 
ATOM      3  O   UNL     1       2.688   6.253  18.516  0.00  0.00    +0.000 OA
ATOM      4  C   UNL     1       3.606   6.585  17.546  0.00  0.00    +0.000 C 
ATOM      5  C   UNL     1       4.612   5.801  17.135  0.00  0.00    +0.000 C 
ATOM      6  C   UNL     1       5.484   6.303  16.055  0.00  0.00    +0.000 C 
ATOM      7  O   UNL     1       5.082   7.072  15.190  0.00  0.00    +0.000 OA
ATOM      8  O   UNL     1       6.779   5.914  16.129  0.00  0.00    +0.000 OA
ATOM      9  C   UNL     1       7.176   4.697  16.785  0.00  0.00    +0.000 C 
ATOM     10  C   UNL     1       6.393   4.400  18.049  0.00  0.00    +0.000 C 
ATOM     11  C   UNL     1       4.898   4.475  17.752  0.00  0.00    +0.000 C 
ATOM     12  C   UNL     1       4.057   4.282  19.030  0.00  0.00    +0.000 C 
ENDROOT
BRANCH  12  13
ATOM     13  C   UNL     1       3.998   2.828  19.442  0.00  0.00    +0.000 C 
ATOM     14  O   UNL     1       3.781   2.452  20.586  0.00  0.00    +0.000 OA
BRANCH  13  15
ATOM     15  O   UNL     1       4.207   1.962  18.433  0.00  0.00    +0.000 OA
ATOM     16  H   UNL     1       4.306   1.026  18.688  0.00  0.00    +0.000 HD
ENDBRANCH  13  15
ENDBRANCH  12  13
TORSDOF 2
ENDMDL
MODEL 4
REMARK VINA RESULT:      -6.2      1.643      4.246
REMARK  Name = 
REMARK  3 active torsions:
REMARK  status: ('A' for Active; 'I' for Inactive)
REMARK    1  A    between atoms: C_1  and  C_2
REMARK    2  A    between atoms: C_12  and  C_13
REMARK    3  A    between atoms: C_13  and  O_15
REMARK                            x       y       z     vdW  Elec       q    Type
REMARK                         _______ _______ _______ _____ _____    ______ ____
ROOT
ATOM      1  C   UNL     1       7.582   4.776  17.419  0.00  0.00    +0.000 C 
ATOM      2  C   UNL     1       6.350   5.626  17.746  0.00  0.00    +0.000 C 
ATOM      3  O   UNL     1       6.153   5.612  19.175  0.00  0.00    +0.000 OA
ATOM      4  C   UNL     1       5.493   4.504  19.655  0.00  0.00    +0.000 C 
ATOM      5  C   UNL     1       4.789   3.643  18.909  0.00  0.00    +0.000 C 
ATOM      6  C   UNL     1       4.174   2.483  19.585  0.00  0.00    +0.000 C 
ATOM      7  O   UNL     1       4.660   1.974  20.588  0.00  0.00    +0.000 OA
ATOM      8  O   UNL     1       2.995   2.067  19.064  0.00  0.00    +0.000 OA
ATOM      9  C   UNL     1       2.648   2.288  17.686  0.00  0.00    +0.000 C 
ATOM     10  C   UNL     1       3.093   3.634  17.150  0.00  0.00    +0.000 C 
ATOM     11  C   UNL     1       4.576   3.836  17.447  0.00  0.00    +0.000 C 
ATOM     12  C   UNL     1       5.055   5.236  17.013  0.00  0.00    +0.000 C 
ENDROOT
BRANCH  12  13
ATOM     13  C   UNL     1       5.246   5.319  15.516  0.00  0.00    +0.000 C 
ATOM     14  O   UNL     1       5.378   4.344  14.789  0.00  0.00    +0.000 OA
BRANCH  13  15
ATOM     15  O   UNL     1       5.261   6.576  15.033  0.00  0.00    +0.000 OA
ATOM     16  H   UNL     1       5.836   7.207  15.505  0.00  0.00    +0.000 HD
ENDBRANCH  13  15
ENDBRANCH  12  13
TORSDOF 2
ENDMDL
MODEL 5
REMARK VINA RESULT:      -6.2      2.486      3.526
REMARK  Name = 
REMARK  3 active torsions:
REMARK  status: ('A' for Active; 'I' for Inactive)
REMARK    1  A    between atoms: C_1  and  C_2
REMARK    2  A    between atoms: C_12  and  C_13
REMARK    3  A    between atoms: C_13  and  O_15
REMARK                            x       y       z     vdW  Elec       q    Type
REMARK                         _______ _______ _______ _____ _____    ______ ____
ROOT
ATOM      1  C   UNL     1       1.146   3.220  19.808  0.00  0.00    +0.000 C 
ATOM      2  C   UNL     1       2.405   3.735  20.511  0.00  0.00    +0.000 C 
ATOM      3  O   UNL     1       2.127   5.048  21.042  0.00  0.00    +0.000 OA
ATOM      4  C   UNL     1       2.238   6.073  20.131  0.00  0.00    +0.000 C 
ATOM      5  C   UNL     1       2.852   5.987  18.944  0.00  0.00    +0.000 C 
ATOM      6  C   UNL     1       2.846   7.178  18.073  0.00  0.00    +0.000 C 
ATOM      7  O   UNL     1       1.940   8.002  18.093  0.00  0.00    +0.000 OA
ATOM      8  O   UNL     1       3.949   7.338  17.303  0.00  0.00    +0.000 OA
ATOM      9  C   UNL     1       4.763   6.226  16.894  0.00  0.00    +0.000 C 
ATOM     10  C   UNL     1       4.934   5.166  17.963  0.00  0.00    +0.000 C 
ATOM     11  C   UNL     1       3.564   4.756  18.498  0.00  0.00    +0.000 C 
ATOM     12  C   UNL     1       3.688   3.752  19.662  0.00  0.00    +0.000 C 
ENDROOT
BRANCH  12  13
ATOM     13  C   UNL     1       4.014   2.362  19.165  0.00  0.00    +0.000 C 
ATOM     14  O   UNL     1       3.500   1.851  18.180  0.00  0.00    +0.000 OA
BRANCH  13  15
ATOM     15  O   UNL     1       4.933   1.716  19.907  0.00  0.00    +0.000 OA
ATOM     16  H   UNL     1       5.463   1.044  19.438  0.00  0.00    +0.000 HD
ENDBRANCH  13  15
ENDBRANCH  12  13
TORSDOF 2
ENDMDL
MODEL 6
REMARK VINA RESULT:      -6.1      2.278      3.450
REMARK  Name = 
REMARK  3 active torsions:
REMARK  status: ('A' for Active; 'I' for Inactive)
REMARK    1  A    between atoms: C_1  and  C_2
REMARK    2  A    between atoms: C_12  and  C_13
REMARK    3  A    between atoms: C_13  and  O_15
REMARK                            x       y       z     vdW  Elec       q    Type
REMARK                         _______ _______ _______ _____ _____    ______ ____
ROOT
ATOM      1  C   UNL     1       4.109   2.376  19.999  0.00  0.00    +0.000 C 
ATOM      2  C   UNL     1       3.034   2.550  18.922  0.00  0.00    +0.000 C 
ATOM      3  O   UNL     1       3.649   2.362  17.629  0.00  0.00    +0.000 OA
ATOM      4  C   UNL     1       4.298   3.470  17.135  0.00  0.00    +0.000 C 
ATOM      5  C   UNL     1       4.146   4.720  17.589  0.00  0.00    +0.000 C 
ATOM      6  C   UNL     1       4.952   5.788  16.963  0.00  0.00    +0.000 C 
ATOM      7  O   UNL     1       6.057   5.577  16.479  0.00  0.00    +0.000 OA
ATOM      8  O   UNL     1       4.353   7.000  16.894  0.00  0.00    +0.000 OA
ATOM      9  C   UNL     1       3.333   7.403  17.824  0.00  0.00    +0.000 C 
ATOM     10  C   UNL     1       2.378   6.290  18.206  0.00  0.00    +0.000 C 
ATOM     11  C   UNL     1       3.174   5.070  18.663  0.00  0.00    +0.000 C 
ATOM     12  C   UNL     1       2.250   3.873  18.965  0.00  0.00    +0.000 C 
ENDROOT
BRANCH  12  13
ATOM     13  C   UNL     1       1.551   4.032  20.296  0.00  0.00    +0.000 C 
ATOM     14  O   UNL     1       1.958   4.750  21.199  0.00  0.00    +0.000 OA
BRANCH  13  15
ATOM     15  O   UNL     1       0.423   3.307  20.414  0.00  0.00    +0.000 OA
ATOM     16  H   UNL     1      -0.413   3.810  20.374  0.00  0.00    +0.000 HD
ENDBRANCH  13  15
ENDBRANCH  12  13
TORSDOF 2
ENDMDL
MODEL 7
REMARK VINA RESULT:      -6.0      1.563      1.661
REMARK  Name = 
REMARK  3 active torsions:
REMARK  status: ('A' for Active; 'I' for Inactive)
REMARK    1  A    between atoms: C_1  and  C_2
REMARK    2  A    between atoms: C_12  and  C_13
REMARK    3  A    between atoms: C_13  and  O_15
REMARK                            x       y       z     vdW  Elec       q    Type
REMARK                         _______ _______ _______ _____ _____    ______ ____
ROOT
ATOM      1  C   UNL     1       1.957   4.737  18.355  0.00  0.00    +0.000 C 
ATOM      2  C   UNL     1       3.378   4.514  18.880  0.00  0.00    +0.000 C 
ATOM      3  O   UNL     1       4.038   5.794  18.970  0.00  0.00    +0.000 OA
ATOM      4  C   UNL     1       4.568   6.253  17.787  0.00  0.00    +0.000 C 
ATOM      5  C   UNL     1       4.779   5.507  16.695  0.00  0.00    +0.000 C 
ATOM      6  C   UNL     1       5.323   6.173  15.495  0.00  0.00    +0.000 C 
ATOM      7  O   UNL     1       5.107   7.353  15.244  0.00  0.00    +0.000 OA
ATOM      8  O   UNL     1       6.139   5.411  14.730  0.00  0.00    +0.000 OA
ATOM      9  C   UNL     1       6.040   3.976  14.700  0.00  0.00    +0.000 C 
ATOM     10  C   UNL     1       5.739   3.355  16.049  0.00  0.00    +0.000 C 
ATOM     11  C   UNL     1       4.522   4.039  16.665  0.00  0.00    +0.000 C 
ATOM     12  C   UNL     1       4.236   3.513  18.086  0.00  0.00    +0.000 C 
ENDROOT
BRANCH  12  13
ATOM     13  C   UNL     1       3.573   2.155  18.053  0.00  0.00    +0.000 C 
ATOM     14  O   UNL     1       2.555   1.907  17.422  0.00  0.00    +0.000 OA
BRANCH  13  15
ATOM     15  O   UNL     1       4.204   1.218  18.787  0.00  0.00    +0.000 OA
ATOM     16  H   UNL     1       4.310   0.345  18.365  0.00  0.00    +0.000 HD
ENDBRANCH  13  15
ENDBRANCH  12  13
TORSDOF 2
ENDMDL
MODEL 8
REMARK VINA RESULT:      -5.9      2.737      3.715
REMARK  Name = 
REMARK  3 active torsions:
REMARK  status: ('A' for Active; 'I' for Inactive)
REMARK    1  A    between atoms: C_1  and  C_2
REMARK    2  A    between atoms: C_12  and  C_13
REMARK    3  A    between atoms: C_13  and  O_15
REMARK                            x       y       z     vdW  Elec       q    Type
REMARK                         _______ _______ _______ _____ _____    ______ ____
ROOT
ATOM      1  C   UNL     1       0.683   2.921  19.765  0.00  0.00    +0.000 C 
ATOM      2  C   UNL     1       2.131   3.039  20.250  0.00  0.00    +0.000 C 
ATOM      3  O   UNL     1       2.201   4.103  21.223  0.00  0.00    +0.000 OA
ATOM      4  C   UNL     1       2.296   5.367  20.687  0.00  0.00    +0.000 C 
ATOM      5  C   UNL     1       2.625   5.645  19.419  0.00  0.00    +0.000 C 
ATOM      6  C   UNL     1       2.645   7.061  19.003  0.00  0.00    +0.000 C 
ATOM      7  O   UNL     1       1.920   7.906  19.513  0.00  0.00    +0.000 OA
ATOM      8  O   UNL     1       3.574   7.377  18.070  0.00  0.00    +0.000 OA
ATOM      9  C   UNL     1       4.080   6.408  17.136  0.00  0.00    +0.000 C 
ATOM     10  C   UNL     1       4.283   5.030  17.733  0.00  0.00    +0.000 C 
ATOM     11  C   UNL     1       3.005   4.588  18.440  0.00  0.00    +0.000 C 
ATOM     12  C   UNL     1       3.192   3.233  19.153  0.00  0.00    +0.000 C 
ENDROOT
BRANCH  12  13
ATOM     13  C   UNL     1       3.161   2.081  18.176  0.00  0.00    +0.000 C 
ATOM     14  O   UNL     1       2.427   2.033  17.199  0.00  0.00    +0.000 OA
BRANCH  13  15
ATOM     15  O   UNL     1       4.024   1.089  18.469  0.00  0.00    +0.000 OA
ATOM     16  H   UNL     1       4.783   0.991  17.864  0.00  0.00    +0.000 HD
ENDBRANCH  13  15
ENDBRANCH  12  13
TORSDOF 2
ENDMDL
MODEL 9
REMARK VINA RESULT:      -5.9      2.158      2.775
REMARK  Name = 
REMARK  3 active torsions:
REMARK  status: ('A' for Active; 'I' for Inactive)
REMARK    1  A    between atoms: C_1  and  C_2
REMARK    2  A    between atoms: C_12  and  C_13
REMARK    3  A    between atoms: C_13  and  O_15
REMARK                            x       y       z     vdW  Elec       q    Type
REMARK                         _______ _______ _______ _____ _____    ______ ____
ROOT
ATOM      1  C   UNL     1       1.043   3.657  19.462  0.00  0.00    +0.000 C 
ATOM      2  C   UNL     1       2.497   3.622  19.941  0.00  0.00    +0.000 C 
ATOM      3  O   UNL     1       2.807   4.891  20.555  0.00  0.00    +0.000 OA
ATOM      4  C   UNL     1       3.140   5.892  19.672  0.00  0.00    +0.000 C 
ATOM      5  C   UNL     1       3.483   5.708  18.391  0.00  0.00    +0.000 C 
ATOM      6  C   UNL     1       3.776   6.902  17.574  0.00  0.00    +0.000 C 
ATOM      7  O   UNL     1       3.250   7.988  17.785  0.00  0.00    +0.000 OA
ATOM      8  O   UNL     1       4.724   6.734  16.621  0.00  0.00    +0.000 OA
ATOM      9  C   UNL     1       4.999   5.450  16.035  0.00  0.00    +0.000 C 
ATOM     10  C   UNL     1       4.936   4.301  17.021  0.00  0.00    +0.000 C 
ATOM     11  C   UNL     1       3.615   4.354  17.783  0.00  0.00    +0.000 C 
ATOM     12  C   UNL     1       3.545   3.265  18.872  0.00  0.00    +0.000 C 
ENDROOT
BRANCH  12  13
ATOM     13  C   UNL     1       3.257   1.904  18.281  0.00  0.00    +0.000 C 
ATOM     14  O   UNL     1       3.827   0.877  18.621  0.00  0.00    +0.000 OA
BRANCH  13  15
ATOM     15  O   UNL     1       2.304   1.910  17.329  0.00  0.00    +0.000 OA
ATOM     16  H   UNL     1       2.003   2.789  17.032  0.00  0.00    +0.000 HD
ENDBRANCH  13  15
ENDBRANCH  12  13
TORSDOF 2
ENDMDL
