MODEL 1
REMARK VINA RESULT:      -7.0      0.000      0.000
REMARK  Name = 
REMARK  6 active torsions:
REMARK  status: ('A' for Active; 'I' for Inactive)
REMARK    1  A    between atoms: C_2  and  C_3
REMARK    2  A    between atoms: C_3  and  O_4
REMARK    3  A    between atoms: N_5  and  CA_6
REMARK    4  A    between atoms: CA_6  and  C_14
REMARK    5  A    between atoms: CB_7  and  CG_8
REMARK    6  A    between atoms: C_14  and  OXT_16
REMARK                            x       y       z     vdW  Elec       q    Type
REMARK                         _______ _______ _______ _____ _____    ______ ____
ROOT
ATOM      1  CA  PHE A   1       6.140   4.166  16.075  0.00  0.00    +0.000 C 
ATOM      2  CB  PHE A   1       4.796   4.182  16.037  0.00  0.00    +0.000 C 
ENDROOT
BRANCH   2   3
ATOM      3  CG  PHE A   1       3.839   4.164  17.148  0.00  0.00    +0.000 A 
ATOM      4  CD1 PHE A   1       3.416   5.373  17.713  0.00  0.00    +0.000 A 
ATOM      5  CE1 PHE A   1       2.345   5.393  18.610  0.00  0.00    +0.000 A 
ATOM      6  CZ  PHE A   1       1.701   4.206  18.954  0.00  0.00    +0.000 A 
ATOM      7  CE2 PHE A   1       2.142   2.995  18.422  0.00  0.00    +0.000 A 
ATOM      8  CD2 PHE A   1       3.209   2.973  17.520  0.00  0.00    +0.000 A 
ENDBRANCH   2   3
BRANCH   1  11
ATOM      9  O   UNK A   0       7.529   5.008  19.225  0.00  0.00    +0.000 OA
ATOM     10  C   UNK A   0       7.131   5.256  18.084  0.00  0.00    +0.000 C 
ATOM     11  N   PHE A   1       6.859   4.206  17.250  0.00  0.00    +0.000 N 
ATOM     12  H   PHE A   1       6.952   3.315  17.730  0.00  0.00    +0.000 HD
BRANCH  10  13
ATOM     13  C   UNK A   0       6.934   6.712  17.631  0.00  0.00    +0.000 C 
BRANCH  13  14
ATOM     14  O   UNK A   0       7.818   7.250  16.676  0.00  0.00    +0.000 OA
ATOM     15  H   UNK A   0       8.705   6.916  16.896  0.00  0.00    +0.000 HD
ENDBRANCH  13  14
ENDBRANCH  10  13
ENDBRANCH   1  11
BRANCH   1  16
ATOM     16  C   PHE A   1       6.810   4.422  14.749  0.00  0.00    +0.000 C 
ATOM     17  O   PHE A   1       7.645   5.292  14.565  0.00  0.00    +0.000 OA
BRANCH  16  18
ATOM     18  OXT PHE A   1       6.454   3.557  13.780  0.00  0.00    +0.000 OA
ATOM     19  HXT PHE A   1       5.902   2.823  14.098  0.00  0.00    +0.000 HD
ENDBRANCH  16  18
ENDBRANCH   1  16
TORSDOF 6
ENDMDL
MODEL 2
REMARK VINA RESULT:      -6.8      0.680      1.371
REMARK  Name = 
REMARK  6 active torsions:
REMARK  status: ('A' for Active; 'I' for Inactive)
REMARK    1  A    between atoms: C_2  and  C_3
REMARK    2  A    between atoms: C_3  and  O_4
REMARK    3  A    between atoms: N_5  and  CA_6
REMARK    4  A    between atoms: CA_6  and  C_14
REMARK    5  A    between atoms: CB_7  and  CG_8
REMARK    6  A    between atoms: C_14  and  OXT_16
REMARK                            x       y       z     vdW  Elec       q    Type
REMARK                         _______ _______ _______ _____ _____    ______ ____
ROOT
ATOM      1  CA  PHE A   1       6.246   4.215  16.121  0.00  0.00    +0.000 C 
ATOM      2  CB  PHE A   1       4.908   4.303  16.226  0.00  0.00    +0.000 C 
ENDROOT
BRANCH   2   3
ATOM      3  CG  PHE A   1       4.076   4.338  17.433  0.00  0.00    +0.000 A 
ATOM      4  CD1 PHE A   1       3.859   3.160  18.156  0.00  0.00    +0.000 A 
ATOM      5  CE1 PHE A   1       3.266   3.210  19.420  0.00  0.00    +0.000 A 
ATOM      6  CZ  PHE A   1       2.876   4.434  19.960  0.00  0.00    +0.000 A 
ATOM      7  CE2 PHE A   1       3.057   5.607  19.229  0.00  0.00    +0.000 A 
ATOM      8  CD2 PHE A   1       3.656   5.560  17.967  0.00  0.00    +0.000 A 
ENDBRANCH   2   3
BRANCH   1  11
ATOM      9  O   UNK A   0       7.955   4.947  19.137  0.00  0.00    +0.000 OA
ATOM     10  C   UNK A   0       7.431   5.236  18.059  0.00  0.00    +0.000 C 
ATOM     11  N   PHE A   1       7.088   4.218  17.212  0.00  0.00    +0.000 N 
ATOM     12  H   PHE A   1       7.247   3.309  17.638  0.00  0.00    +0.000 HD
BRANCH  10  13
ATOM     13  C   UNK A   0       7.162   6.706  17.697  0.00  0.00    +0.000 C 
BRANCH  13  14
ATOM     14  O   UNK A   0       7.867   7.280  16.622  0.00  0.00    +0.000 OA
ATOM     15  H   UNK A   0       8.478   6.598  16.292  0.00  0.00    +0.000 HD
ENDBRANCH  13  14
ENDBRANCH  10  13
ENDBRANCH   1  11
BRANCH   1  16
ATOM     16  C   PHE A   1       6.783   4.431  14.729  0.00  0.00    +0.000 C 
ATOM     17  O   PHE A   1       7.557   5.325  14.430  0.00  0.00    +0.000 OA
BRANCH  16  18
ATOM     18  OXT PHE A   1       6.382   3.504  13.838  0.00  0.00    +0.000 OA
ATOM     19  HXT PHE A   1       6.648   3.702  12.924  0.00  0.00    +0.000 HD
ENDBRANCH  16  18
ENDBRANCH   1  16
TORSDOF 6
ENDMDL
MODEL 3
REMARK VINA RESULT:      -6.5      1.424      3.120
REMARK  Name = 
REMARK  6 active torsions:
REMARK  status: ('A' for Active; 'I' for Inactive)
REMARK    1  A    between atoms: C_2  and  C_3
REMARK    2  A    between atoms: C_3  and  O_4
REMARK    3  A    between atoms: N_5  and  CA_6
REMARK    4  A    between atoms: CA_6  and  C_14
REMARK    5  A    between atoms: CB_7  and  CG_8
REMARK    6  A    between atoms: C_14  and  OXT_16
REMARK                            x       y       z     vdW  Elec       q    Type
REMARK                         _______ _______ _______ _____ _____    ______ ____
ROOT
ATOM      1  CA  PHE A   1       5.948   4.906  18.529  0.00  0.00    +0.000 C 
ATOM      2  CB  PHE A   1       4.858   4.953  19.314  0.00  0.00    +0.000 C 
ENDROOT
BRANCH   2   3
ATOM      3  CG  PHE A   1       3.580   4.250  19.165  0.00  0.00    +0.000 A 
ATOM      4  CD1 PHE A   1       2.600   4.775  18.315  0.00  0.00    +0.000 A 
ATOM      5  CE1 PHE A   1       1.476   4.015  17.983  0.00  0.00    +0.000 A 
ATOM      6  CZ  PHE A   1       1.321   2.733  18.509  0.00  0.00    +0.000 A 
ATOM      7  CE2 PHE A   1       2.276   2.220  19.385  0.00  0.00    +0.000 A 
ATOM      8  CD2 PHE A   1       3.404   2.977  19.713  0.00  0.00    +0.000 A 
ENDBRANCH   2   3
BRANCH   1  11
ATOM      9  O   UNK A   0       6.359   3.529  15.290  0.00  0.00    +0.000 OA
ATOM     10  C   UNK A   0       5.930   4.354  16.100  0.00  0.00    +0.000 C 
ATOM     11  N   PHE A   1       6.051   4.075  17.434  0.00  0.00    +0.000 N 
ATOM     12  H   PHE A   1       6.574   3.217  17.590  0.00  0.00    +0.000 HD
BRANCH  10  13
ATOM     13  C   UNK A   0       5.295   5.665  15.609  0.00  0.00    +0.000 C 
BRANCH  13  14
ATOM     14  O   UNK A   0       5.951   6.880  15.885  0.00  0.00    +0.000 OA
ATOM     15  H   UNK A   0       6.835   6.651  16.221  0.00  0.00    +0.000 HD
ENDBRANCH  13  14
ENDBRANCH  10  13
ENDBRANCH   1  11
BRANCH   1  16
ATOM     16  C   PHE A   1       7.168   5.582  19.104  0.00  0.00    +0.000 C 
ATOM     17  O   PHE A   1       7.600   5.367  20.224  0.00  0.00    +0.000 OA
BRANCH  16  18
ATOM     18  OXT PHE A   1       7.790   6.410  18.244  0.00  0.00    +0.000 OA
ATOM     19  HXT PHE A   1       7.348   7.270  18.143  0.00  0.00    +0.000 HD
ENDBRANCH  16  18
ENDBRANCH   1  16
TORSDOF 6
ENDMDL
MODEL 4
REMARK VINA RESULT:      -6.4      1.247      1.514
REMARK  Name = 
REMARK  6 active torsions:
REMARK  status: ('A' for Active; 'I' for Inactive)
REMARK    1  A    between atoms: C_2  and  C_3
REMARK    2  A    between atoms: C_3  and  O_4
REMARK    3  A    between atoms: N_5  and  CA_6
REMARK    4  A    between atoms: CA_6  and  C_14
REMARK    5  A    between atoms: CB_7  and  CG_8
REMARK    6  A    between atoms: C_14  and  OXT_16
REMARK                            x       y       z     vdW  Elec       q    Type
REMARK                         _______ _______ _______ _____ _____    ______ ____
ROOT
ATOM      1  CA  PHE A   1       5.124   4.017  17.181  0.00  0.00    +0.000 C 
ATOM      2  CB  PHE A   1       3.788   3.992  17.330  0.00  0.00    +0.000 C 
ENDROOT
BRANCH   2   3
ATOM      3  CG  PHE A   1       2.994   4.025  18.562  0.00  0.00    +0.000 A 
ATOM      4  CD1 PHE A   1       2.836   5.234  19.248  0.00  0.00    +0.000 A 
ATOM      5  CE1 PHE A   1       1.907   5.337  20.287  0.00  0.00    +0.000 A 
ATOM      6  CZ  PHE A   1       1.144   4.230  20.652  0.00  0.00    +0.000 A 
ATOM      7  CE2 PHE A   1       1.324   3.013  19.996  0.00  0.00    +0.000 A 
ATOM      8  CD2 PHE A   1       2.248   2.909  18.953  0.00  0.00    +0.000 A 
ENDBRANCH   2   3
BRANCH   1  11
ATOM      9  O   UNK A   0       7.119   5.227  19.848  0.00  0.00    +0.000 OA
ATOM     10  C   UNK A   0       6.629   5.274  18.717  0.00  0.00    +0.000 C 
ATOM     11  N   PHE A   1       5.996   4.159  18.238  0.00  0.00    +0.000 N 
ATOM     12  H   PHE A   1       5.943   3.429  18.943  0.00  0.00    +0.000 HD
BRANCH  10  13
ATOM     13  C   UNK A   0       6.720   6.564  17.886  0.00  0.00    +0.000 C 
BRANCH  13  14
ATOM     14  O   UNK A   0       7.613   6.608  16.798  0.00  0.00    +0.000 OA
ATOM     15  H   UNK A   0       8.258   7.309  16.993  0.00  0.00    +0.000 HD
ENDBRANCH  13  14
ENDBRANCH  10  13
ENDBRANCH   1  11
BRANCH   1  16
ATOM     16  C   PHE A   1       5.596   4.198  15.760  0.00  0.00    +0.000 C 
ATOM     17  O   PHE A   1       5.408   5.210  15.105  0.00  0.00    +0.000 OA
BRANCH  16  18
ATOM     18  OXT PHE A   1       6.308   3.159  15.284  0.00  0.00    +0.000 OA
ATOM     19  HXT PHE A   1       6.373   3.144  14.314  0.00  0.00    +0.000 HD
ENDBRANCH  16  18
ENDBRANCH   1  16
TORSDOF 6
ENDMDL
MODEL 5
REMARK VINA RESULT:      -6.3      0.791      1.621
REMARK  Name = 
REMARK  6 active torsions:
REMARK  status: ('A' for Active; 'I' for Inactive)
REMARK    1  A    between atoms: C_2  and  C_3
REMARK    2  A    between atoms: C_3  and  O_4
REMARK    3  A    between atoms: N_5  and  CA_6
REMARK    4  A    between atoms: CA_6  and  C_14
REMARK    5  A    between atoms: CB_7  and  CG_8
REMARK    6  A    between atoms: C_14  and  OXT_16
REMARK                            x       y       z     vdW  Elec       q    Type
REMARK                         _______ _______ _______ _____ _____    ______ ____
ROOT
ATOM      1  CA  PHE A   1       5.689   3.960  16.484  0.00  0.00    +0.000 C 
ATOM      2  CB  PHE A   1       4.373   3.757  16.297  0.00  0.00    +0.000 C 
ENDROOT
BRANCH   2   3
ATOM      3  CG  PHE A   1       3.303   3.652  17.294  0.00  0.00    +0.000 A 
ATOM      4  CD1 PHE A   1       2.981   2.401  17.831  0.00  0.00    +0.000 A 
ATOM      5  CE1 PHE A   1       2.132   2.307  18.936  0.00  0.00    +0.000 A 
ATOM      6  CZ  PHE A   1       1.590   3.461  19.499  0.00  0.00    +0.000 A 
ATOM      7  CE2 PHE A   1       1.879   4.707  18.946  0.00  0.00    +0.000 A 
ATOM      8  CD2 PHE A   1       2.733   4.804  17.844  0.00  0.00    +0.000 A 
ENDBRANCH   2   3
BRANCH   1  11
ATOM      9  O   UNK A   0       6.614   5.257  19.649  0.00  0.00    +0.000 OA
ATOM     10  C   UNK A   0       6.357   5.342  18.447  0.00  0.00    +0.000 C 
ATOM     11  N   PHE A   1       6.247   4.185  17.724  0.00  0.00    +0.000 N 
ATOM     12  H   PHE A   1       6.318   3.365  18.321  0.00  0.00    +0.000 HD
BRANCH  10  13
ATOM     13  C   UNK A   0       6.152   6.718  17.792  0.00  0.00    +0.000 C 
BRANCH  13  14
ATOM     14  O   UNK A   0       7.185   7.252  16.998  0.00  0.00    +0.000 OA
ATOM     15  H   UNK A   0       7.954   6.666  17.109  0.00  0.00    +0.000 HD
ENDBRANCH  13  14
ENDBRANCH  10  13
ENDBRANCH   1  11
BRANCH   1  16
ATOM     16  C   PHE A   1       6.468   4.241  15.224  0.00  0.00    +0.000 C 
ATOM     17  O   PHE A   1       6.036   4.047  14.100  0.00  0.00    +0.000 OA
BRANCH  16  18
ATOM     18  OXT PHE A   1       7.678   4.791  15.440  0.00  0.00    +0.000 OA
ATOM     19  HXT PHE A   1       7.805   5.107  16.351  0.00  0.00    +0.000 HD
ENDBRANCH  16  18
ENDBRANCH   1  16
TORSDOF 6
ENDMDL
MODEL 6
REMARK VINA RESULT:      -6.3      1.495      3.084
REMARK  Name = 
REMARK  6 active torsions:
REMARK  status: ('A' for Active; 'I' for Inactive)
REMARK    1  A    between atoms: C_2  and  C_3
REMARK    2  A    between atoms: C_3  and  O_4
REMARK    3  A    between atoms: N_5  and  CA_6
REMARK    4  A    between atoms: CA_6  and  C_14
REMARK    5  A    between atoms: CB_7  and  CG_8
REMARK    6  A    between atoms: C_14  and  OXT_16
REMARK                            x       y       z     vdW  Elec       q    Type
REMARK                         _______ _______ _______ _____ _____    ______ ____
ROOT
ATOM      1  CA  PHE A   1       6.183   5.167  18.256  0.00  0.00    +0.000 C 
ATOM      2  CB  PHE A   1       5.393   4.183  18.720  0.00  0.00    +0.000 C 
ENDROOT
BRANCH   2   3
ATOM      3  CG  PHE A   1       3.964   3.956  18.484  0.00  0.00    +0.000 A 
ATOM      4  CD1 PHE A   1       3.558   2.878  17.690  0.00  0.00    +0.000 A 
ATOM      5  CE1 PHE A   1       2.212   2.510  17.637  0.00  0.00    +0.000 A 
ATOM      6  CZ  PHE A   1       1.265   3.225  18.368  0.00  0.00    +0.000 A 
ATOM      7  CE2 PHE A   1       1.658   4.322  19.132  0.00  0.00    +0.000 A 
ATOM      8  CD2 PHE A   1       3.005   4.689  19.191  0.00  0.00    +0.000 A 
ENDBRANCH   2   3
BRANCH   1  11
ATOM      9  O   UNK A   0       4.939   6.947  15.457  0.00  0.00    +0.000 OA
ATOM     10  C   UNK A   0       5.635   6.092  16.009  0.00  0.00    +0.000 C 
ATOM     11  N   PHE A   1       5.746   6.130  17.373  0.00  0.00    +0.000 N 
ATOM     12  H   PHE A   1       5.148   6.847  17.776  0.00  0.00    +0.000 HD
BRANCH  10  13
ATOM     13  C   UNK A   0       6.338   5.008  15.177  0.00  0.00    +0.000 C 
BRANCH  13  14
ATOM     14  O   UNK A   0       7.696   5.183  14.846  0.00  0.00    +0.000 OA
ATOM     15  H   UNK A   0       8.018   4.324  14.521  0.00  0.00    +0.000 HD
ENDBRANCH  13  14
ENDBRANCH  10  13
ENDBRANCH   1  11
BRANCH   1  16
ATOM     16  C   PHE A   1       7.656   4.966  18.514  0.00  0.00    +0.000 C 
ATOM     17  O   PHE A   1       8.263   5.490  19.433  0.00  0.00    +0.000 OA
BRANCH  16  18
ATOM     18  OXT PHE A   1       8.245   4.096  17.671  0.00  0.00    +0.000 OA
ATOM     19  HXT PHE A   1       9.202   4.005  17.813  0.00  0.00    +0.000 HD
ENDBRANCH  16  18
ENDBRANCH   1  16
TORSDOF 6
ENDMDL
MODEL 7
REMARK VINA RESULT:      -6.3      1.186      1.715
REMARK  Name = 
REMARK  6 active torsions:
REMARK  status: ('A' for Active; 'I' for Inactive)
REMARK    1  A    between atoms: C_2  and  C_3
REMARK    2  A    between atoms: C_3  and  O_4
REMARK    3  A    between atoms: N_5  and  CA_6
REMARK    4  A    between atoms: CA_6  and  C_14
REMARK    5  A    between atoms: CB_7  and  CG_8
REMARK    6  A    between atoms: C_14  and  OXT_16
REMARK                            x       y       z     vdW  Elec       q    Type
REMARK                         _______ _______ _______ _____ _____    ______ ____
ROOT
ATOM      1  CA  PHE A   1       6.337   5.186  16.168  0.00  0.00    +0.000 C 
ATOM      2  CB  PHE A   1       5.268   4.469  16.557  0.00  0.00    +0.000 C 
ENDROOT
BRANCH   2   3
ATOM      3  CG  PHE A   1       4.374   4.687  17.698  0.00  0.00    +0.000 A 
ATOM      4  CD1 PHE A   1       3.393   5.683  17.625  0.00  0.00    +0.000 A 
ATOM      5  CE1 PHE A   1       2.393   5.758  18.597  0.00  0.00    +0.000 A 
ATOM      6  CZ  PHE A   1       2.376   4.847  19.652  0.00  0.00    +0.000 A 
ATOM      7  CE2 PHE A   1       3.371   3.876  19.750  0.00  0.00    +0.000 A 
ATOM      8  CD2 PHE A   1       4.370   3.796  18.775  0.00  0.00    +0.000 A 
ENDBRANCH   2   3
BRANCH   1  11
ATOM      9  O   UNK A   0       7.985   7.672  18.081  0.00  0.00    +0.000 OA
ATOM     10  C   UNK A   0       7.526   6.545  17.885  0.00  0.00    +0.000 C 
ATOM     11  N   PHE A   1       6.727   6.352  16.790  0.00  0.00    +0.000 N 
ATOM     12  H   PHE A   1       6.679   7.187  16.212  0.00  0.00    +0.000 HD
BRANCH  10  13
ATOM     13  C   UNK A   0       7.863   5.391  18.844  0.00  0.00    +0.000 C 
BRANCH  13  14
ATOM     14  O   UNK A   0       7.840   5.634  20.231  0.00  0.00    +0.000 OA
ATOM     15  H   UNK A   0       8.480   6.347  20.401  0.00  0.00    +0.000 HD
ENDBRANCH  13  14
ENDBRANCH  10  13
ENDBRANCH   1  11
BRANCH   1  16
ATOM     16  C   PHE A   1       6.891   4.807  14.818  0.00  0.00    +0.000 C 
ATOM     17  O   PHE A   1       7.714   5.472  14.209  0.00  0.00    +0.000 OA
BRANCH  16  18
ATOM     18  OXT PHE A   1       6.446   3.623  14.356  0.00  0.00    +0.000 OA
ATOM     19  HXT PHE A   1       6.028   3.679  13.481  0.00  0.00    +0.000 HD
ENDBRANCH  16  18
ENDBRANCH   1  16
TORSDOF 6
ENDMDL
MODEL 8
REMARK VINA RESULT:      -6.2      1.249      2.124
REMARK  Name = 
REMARK  6 active torsions:
REMARK  status: ('A' for Active; 'I' for Inactive)
REMARK    1  A    between atoms: C_2  and  C_3
REMARK    2  A    between atoms: C_3  and  O_4
REMARK    3  A    between atoms: N_5  and  CA_6
REMARK    4  A    between atoms: CA_6  and  C_14
REMARK    5  A    between atoms: CB_7  and  CG_8
REMARK    6  A    between atoms: C_14  and  OXT_16
REMARK                            x       y       z     vdW  Elec       q    Type
REMARK                         _______ _______ _______ _____ _____    ______ ____
ROOT
ATOM      1  CA  PHE A   1       6.256   5.274  16.052  0.00  0.00    +0.000 C 
ATOM      2  CB  PHE A   1       5.143   4.615  16.420  0.00  0.00    +0.000 C 
ENDROOT
BRANCH   2   3
ATOM      3  CG  PHE A   1       4.194   4.929  17.493  0.00  0.00    +0.000 A 
ATOM      4  CD1 PHE A   1       3.982   4.002  18.519  0.00  0.00    +0.000 A 
ATOM      5  CE1 PHE A   1       3.264   4.367  19.660  0.00  0.00    +0.000 A 
ATOM      6  CZ  PHE A   1       2.745   5.656  19.774  0.00  0.00    +0.000 A 
ATOM      7  CE2 PHE A   1       2.922   6.572  18.739  0.00  0.00    +0.000 A 
ATOM      8  CD2 PHE A   1       3.645   6.210  17.599  0.00  0.00    +0.000 A 
ENDBRANCH   2   3
BRANCH   1  11
ATOM      9  O   UNK A   0       7.909   7.826  17.871  0.00  0.00    +0.000 OA
ATOM     10  C   UNK A   0       7.442   6.695  17.719  0.00  0.00    +0.000 C 
ATOM     11  N   PHE A   1       6.651   6.462  16.628  0.00  0.00    +0.000 N 
ATOM     12  H   PHE A   1       6.614   7.272  16.014  0.00  0.00    +0.000 HD
BRANCH  10  13
ATOM     13  C   UNK A   0       7.764   5.581  18.729  0.00  0.00    +0.000 C 
BRANCH  13  14
ATOM     14  O   UNK A   0       6.934   5.427  19.856  0.00  0.00    +0.000 OA
ATOM     15  H   UNK A   0       6.944   4.481  20.083  0.00  0.00    +0.000 HD
ENDBRANCH  13  14
ENDBRANCH  10  13
ENDBRANCH   1  11
BRANCH   1  16
ATOM     16  C   PHE A   1       6.872   4.798  14.761  0.00  0.00    +0.000 C 
ATOM     17  O   PHE A   1       7.747   5.401  14.161  0.00  0.00    +0.000 OA
BRANCH  16  18
ATOM     18  OXT PHE A   1       6.415   3.601  14.346  0.00  0.00    +0.000 OA
ATOM     19  HXT PHE A   1       7.104   2.916  14.301  0.00  0.00    +0.000 HD
ENDBRANCH  16  18
ENDBRANCH   1  16
TORSDOF 6
ENDMDL
MODEL 9
REMARK VINA RESULT:      -6.2      1.597      3.279
REMARK  Name = 
REMARK  6 active torsions:
REMARK  status: ('A' for Active; 'I' for Inactive)
REMARK    1  A    between atoms: C_2  and  C_3
REMARK    2  A    between atoms: C_3  and  O_4
REMARK    3  A    between atoms: N_5  and  CA_6
REMARK    4  A    between atoms: CA_6  and  C_14
REMARK    5  A    between atoms: CB_7  and  CG_8
REMARK    6  A    between atoms: C_14  and  OXT_16
REMARK                            x       y       z     vdW  Elec       q    Type
REMARK                         _______ _______ _______ _____ _____    ______ ____
ROOT
ATOM      1  CA  PHE A   1       6.123   5.839  18.691  0.00  0.00    +0.000 C 
ATOM      2  CB  PHE A   1       5.449   4.829  19.268  0.00  0.00    +0.000 C 
ENDROOT
BRANCH   2   3
ATOM      3  CG  PHE A   1       4.148   4.259  18.905  0.00  0.00    +0.000 A 
ATOM      4  CD1 PHE A   1       2.979   4.810  19.442  0.00  0.00    +0.000 A 
ATOM      5  CE1 PHE A   1       1.730   4.437  18.940  0.00  0.00    +0.000 A 
ATOM      6  CZ  PHE A   1       1.643   3.502  17.910  0.00  0.00    +0.000 A 
ATOM      7  CE2 PHE A   1       2.802   2.923  17.396  0.00  0.00    +0.000 A 
ATOM      8  CD2 PHE A   1       4.053   3.299  17.893  0.00  0.00    +0.000 A 
ENDBRANCH   2   3
BRANCH   1  11
ATOM      9  O   UNK A   0       5.092   6.685  15.408  0.00  0.00    +0.000 OA
ATOM     10  C   UNK A   0       5.816   6.128  16.236  0.00  0.00    +0.000 C 
ATOM     11  N   PHE A   1       5.687   6.480  17.552  0.00  0.00    +0.000 N 
ATOM     12  H   PHE A   1       4.919   7.131  17.689  0.00  0.00    +0.000 HD
BRANCH  10  13
ATOM     13  C   UNK A   0       6.821   5.054  15.788  0.00  0.00    +0.000 C 
BRANCH  13  14
ATOM     14  O   UNK A   0       7.727   5.363  14.755  0.00  0.00    +0.000 OA
ATOM     15  H   UNK A   0       7.227   5.858  14.083  0.00  0.00    +0.000 HD
ENDBRANCH  13  14
ENDBRANCH  10  13
ENDBRANCH   1  11
BRANCH   1  16
ATOM     16  C   PHE A   1       7.537   6.015  19.184  0.00  0.00    +0.000 C 
ATOM     17  O   PHE A   1       8.352   6.758  18.662  0.00  0.00    +0.000 OA
BRANCH  16  18
ATOM     18  OXT PHE A   1       7.816   5.322  20.305  0.00  0.00    +0.000 OA
ATOM     19  HXT PHE A   1       8.337   4.517  20.145  0.00  0.00    +0.000 HD
ENDBRANCH  16  18
ENDBRANCH   1  16
TORSDOF 6
ENDMDL
