MODEL 1
REMARK VINA RESULT:      -7.2      0.000      0.000
REMARK  Name = 
REMARK  7 active torsions:
REMARK  status: ('A' for Active; 'I' for Inactive)
REMARK    1  A    between atoms: C_1  and  C_2
REMARK    2  A    between atoms: C_2  and  C_3
REMARK    3  A    between atoms: C_3  and  C_4
REMARK    4  A    between atoms: C_3  and  N_7
REMARK    5  A    between atoms: C_9  and  C_10
REMARK    6  A    between atoms: C_10  and  C_11
REMARK    7  A    between atoms: C_11  and  C_12
REMARK                            x       y       z     vdW  Elec       q    Type
REMARK                         _______ _______ _______ _____ _____    ______ ____
ROOT
ATOM      1  N   UNL     1       4.913   4.767  17.890  0.00  0.00    +0.000 N 
ATOM      2  C   UNL     1       4.636   3.921  19.024  0.00  0.00    +0.000 C 
ATOM      3  C   UNL     1       3.303   4.438  19.558  0.00  0.00    +0.000 C 
ATOM      4  C   UNL     1       3.376   5.938  19.211  0.00  0.00    +0.000 C 
ATOM      5  C   UNL     1       4.251   5.977  17.980  0.00  0.00    +0.000 C 
ATOM      6  O   UNL     1       4.393   6.936  17.240  0.00  0.00    +0.000 OA
ENDROOT
BRANCH   1   7
ATOM      7  C   UNL     1       5.824   4.335  16.815  0.00  0.00    +0.000 C 
BRANCH   7   8
ATOM      8  C   UNL     1       7.259   4.906  16.886  0.00  0.00    +0.000 C 
ATOM      9  N   UNL     1       7.449   6.189  16.462  0.00  0.00    +0.000 N 
ATOM     10  O   UNL     1       8.227   4.213  17.180  0.00  0.00    +0.000 OA
ATOM     11  H   UNL     1       6.733   6.670  15.930  0.00  0.00    +0.000 HD
ATOM     12  H   UNL     1       8.409   6.494  16.351  0.00  0.00    +0.000 HD
ENDBRANCH   7   8
BRANCH   7  14
ATOM     13  C   UNL     1       6.041   3.895  14.308  0.00  0.00    +0.000 C 
ATOM     14  C   UNL     1       5.240   4.575  15.413  0.00  0.00    +0.000 C 
ENDBRANCH   7  14
ENDBRANCH   1   7
BRANCH   3  15
ATOM     15  C   UNL     1       2.051   3.779  18.926  0.00  0.00    +0.000 C 
BRANCH  15  16
ATOM     16  C   UNL     1       1.005   3.321  19.942  0.00  0.00    +0.000 C 
ATOM     17  C   UNL     1       1.597   2.599  21.134  0.00  0.00    +0.000 C 
ATOM     18  F   UNL     1       0.301   4.380  20.409  0.00  0.00    +0.000 F 
ATOM     19  F   UNL     1       0.113   2.504  19.326  0.00  0.00    +0.000 F 
ENDBRANCH  15  16
ENDBRANCH   3  15
TORSDOF 5
ENDMDL
MODEL 2
REMARK VINA RESULT:      -7.0      1.139      1.257
REMARK  Name = 
REMARK  7 active torsions:
REMARK  status: ('A' for Active; 'I' for Inactive)
REMARK    1  A    between atoms: C_1  and  C_2
REMARK    2  A    between atoms: C_2  and  C_3
REMARK    3  A    between atoms: C_3  and  C_4
REMARK    4  A    between atoms: C_3  and  N_7
REMARK    5  A    between atoms: C_9  and  C_10
REMARK    6  A    between atoms: C_10  and  C_11
REMARK    7  A    between atoms: C_11  and  C_12
REMARK                            x       y       z     vdW  Elec       q    Type
REMARK                         _______ _______ _______ _____ _____    ______ ____
ROOT
ATOM      1  N   UNL     1       4.846   4.745  17.427  0.00  0.00    +0.000 N 
ATOM      2  C   UNL     1       4.523   3.892  18.543  0.00  0.00    +0.000 C 
ATOM      3  C   UNL     1       3.163   4.399  19.017  0.00  0.00    +0.000 C 
ATOM      4  C   UNL     1       3.244   5.901  18.681  0.00  0.00    +0.000 C 
ATOM      5  C   UNL     1       4.174   5.951  17.491  0.00  0.00    +0.000 C 
ATOM      6  O   UNL     1       4.345   6.914  16.763  0.00  0.00    +0.000 OA
ENDROOT
BRANCH   1   7
ATOM      7  C   UNL     1       5.808   4.323  16.393  0.00  0.00    +0.000 C 
BRANCH   7   8
ATOM      8  C   UNL     1       7.238   4.892  16.539  0.00  0.00    +0.000 C 
ATOM      9  N   UNL     1       8.070   4.285  17.435  0.00  0.00    +0.000 N 
ATOM     10  O   UNL     1       7.593   5.926  15.984  0.00  0.00    +0.000 OA
ATOM     11  H   UNL     1       7.706   3.636  18.122  0.00  0.00    +0.000 HD
ATOM     12  H   UNL     1       8.937   4.765  17.648  0.00  0.00    +0.000 HD
ENDBRANCH   7   8
BRANCH   7  14
ATOM     13  C   UNL     1       6.049   3.782  13.908  0.00  0.00    +0.000 C 
ATOM     14  C   UNL     1       5.293   4.577  14.966  0.00  0.00    +0.000 C 
ENDBRANCH   7  14
ENDBRANCH   1   7
BRANCH   3  15
ATOM     15  C   UNL     1       1.946   3.736  18.325  0.00  0.00    +0.000 C 
BRANCH  15  16
ATOM     16  C   UNL     1       1.274   2.642  19.154  0.00  0.00    +0.000 C 
ATOM     17  C   UNL     1       0.995   3.054  20.584  0.00  0.00    +0.000 C 
ATOM     18  F   UNL     1       0.096   2.277  18.593  0.00  0.00    +0.000 F 
ATOM     19  F   UNL     1       2.062   1.537  19.156  0.00  0.00    +0.000 F 
ENDBRANCH  15  16
ENDBRANCH   3  15
TORSDOF 5
ENDMDL
MODEL 3
REMARK VINA RESULT:      -6.9      1.656      2.276
REMARK  Name = 
REMARK  7 active torsions:
REMARK  status: ('A' for Active; 'I' for Inactive)
REMARK    1  A    between atoms: C_1  and  C_2
REMARK    2  A    between atoms: C_2  and  C_3
REMARK    3  A    between atoms: C_3  and  C_4
REMARK    4  A    between atoms: C_3  and  N_7
REMARK    5  A    between atoms: C_9  and  C_10
REMARK    6  A    between atoms: C_10  and  C_11
REMARK    7  A    between atoms: C_11  and  C_12
REMARK                            x       y       z     vdW  Elec       q    Type
REMARK                         _______ _______ _______ _____ _____    ______ ____
ROOT
ATOM      1  N   UNL     1       5.355   6.040  18.022  0.00  0.00    +0.000 N 
ATOM      2  C   UNL     1       5.082   5.357  19.262  0.00  0.00    +0.000 C 
ATOM      3  C   UNL     1       3.565   5.186  19.267  0.00  0.00    +0.000 C 
ATOM      4  C   UNL     1       3.098   6.435  18.495  0.00  0.00    +0.000 C 
ATOM      5  C   UNL     1       4.249   6.732  17.564  0.00  0.00    +0.000 C 
ATOM      6  O   UNL     1       4.218   7.501  16.618  0.00  0.00    +0.000 OA
ENDROOT
BRANCH   1   7
ATOM      7  C   UNL     1       6.685   5.981  17.391  0.00  0.00    +0.000 C 
BRANCH   7   8
ATOM      8  C   UNL     1       7.222   4.561  17.095  0.00  0.00    +0.000 C 
ATOM      9  N   UNL     1       6.445   3.739  16.331  0.00  0.00    +0.000 N 
ATOM     10  O   UNL     1       8.236   4.120  17.624  0.00  0.00    +0.000 OA
ATOM     11  H   UNL     1       5.476   3.968  16.146  0.00  0.00    +0.000 HD
ATOM     12  H   UNL     1       6.720   2.765  16.286  0.00  0.00    +0.000 HD
ENDBRANCH   7   8
BRANCH   7  14
ATOM     13  C   UNL     1       7.868   8.225  17.687  0.00  0.00    +0.000 C 
ATOM     14  C   UNL     1       7.744   6.783  18.166  0.00  0.00    +0.000 C 
ENDBRANCH   7  14
ENDBRANCH   1   7
BRANCH   3  15
ATOM     15  C   UNL     1       3.055   3.889  18.591  0.00  0.00    +0.000 C 
BRANCH  15  16
ATOM     16  C   UNL     1       1.538   3.709  18.645  0.00  0.00    +0.000 C 
ATOM     17  C   UNL     1       1.106   2.260  18.730  0.00  0.00    +0.000 C 
ATOM     18  F   UNL     1       1.020   4.358  19.715  0.00  0.00    +0.000 F 
ATOM     19  F   UNL     1       0.983   4.274  17.542  0.00  0.00    +0.000 F 
ENDBRANCH  15  16
ENDBRANCH   3  15
TORSDOF 5
ENDMDL
MODEL 4
REMARK VINA RESULT:      -6.9      1.447      2.078
REMARK  Name = 
REMARK  7 active torsions:
REMARK  status: ('A' for Active; 'I' for Inactive)
REMARK    1  A    between atoms: C_1  and  C_2
REMARK    2  A    between atoms: C_2  and  C_3
REMARK    3  A    between atoms: C_3  and  C_4
REMARK    4  A    between atoms: C_3  and  N_7
REMARK    5  A    between atoms: C_9  and  C_10
REMARK    6  A    between atoms: C_10  and  C_11
REMARK    7  A    between atoms: C_11  and  C_12
REMARK                            x       y       z     vdW  Elec       q    Type
REMARK                         _______ _______ _______ _____ _____    ______ ____
ROOT
ATOM      1  N   UNL     1       5.195   5.869  18.197  0.00  0.00    +0.000 N 
ATOM      2  C   UNL     1       5.126   5.113  19.423  0.00  0.00    +0.000 C 
ATOM      3  C   UNL     1       3.634   4.847  19.612  0.00  0.00    +0.000 C 
ATOM      4  C   UNL     1       3.000   6.099  18.975  0.00  0.00    +0.000 C 
ATOM      5  C   UNL     1       4.002   6.510  17.922  0.00  0.00    +0.000 C 
ATOM      6  O   UNL     1       3.805   7.319  17.031  0.00  0.00    +0.000 OA
ENDROOT
BRANCH   1   7
ATOM      7  C   UNL     1       6.434   5.923  17.399  0.00  0.00    +0.000 C 
BRANCH   7   8
ATOM      8  C   UNL     1       6.958   4.562  16.887  0.00  0.00    +0.000 C 
ATOM      9  N   UNL     1       6.061   3.724  16.291  0.00  0.00    +0.000 N 
ATOM     10  O   UNL     1       8.098   4.170  17.115  0.00  0.00    +0.000 OA
ATOM     11  H   UNL     1       5.065   3.890  16.371  0.00  0.00    +0.000 HD
ATOM     12  H   UNL     1       6.371   2.775  16.116  0.00  0.00    +0.000 HD
ENDBRANCH   7   8
BRANCH   7  14
ATOM     13  C   UNL     1       7.778   8.088  17.575  0.00  0.00    +0.000 C 
ATOM     14  C   UNL     1       7.566   6.678  18.116  0.00  0.00    +0.000 C 
ENDBRANCH   7  14
ENDBRANCH   1   7
BRANCH   3  15
ATOM     15  C   UNL     1       3.115   3.553  18.937  0.00  0.00    +0.000 C 
BRANCH  15  16
ATOM     16  C   UNL     1       1.982   2.862  19.695  0.00  0.00    +0.000 C 
ATOM     17  C   UNL     1       2.164   2.881  21.199  0.00  0.00    +0.000 C 
ATOM     18  F   UNL     1       0.795   3.452  19.417  0.00  0.00    +0.000 F 
ATOM     19  F   UNL     1       1.884   1.575  19.276  0.00  0.00    +0.000 F 
ENDBRANCH  15  16
ENDBRANCH   3  15
TORSDOF 5
ENDMDL
MODEL 5
REMARK VINA RESULT:      -6.8      3.585      5.688
REMARK  Name = 
REMARK  7 active torsions:
REMARK  status: ('A' for Active; 'I' for Inactive)
REMARK    1  A    between atoms: C_1  and  C_2
REMARK    2  A    between atoms: C_2  and  C_3
REMARK    3  A    between atoms: C_3  and  C_4
REMARK    4  A    between atoms: C_3  and  N_7
REMARK    5  A    between atoms: C_9  and  C_10
REMARK    6  A    between atoms: C_10  and  C_11
REMARK    7  A    between atoms: C_11  and  C_12
REMARK                            x       y       z     vdW  Elec       q    Type
REMARK                         _______ _______ _______ _____ _____    ______ ____
ROOT
ATOM      1  N   UNL     1       4.356   4.505  18.872  0.00  0.00    +0.000 N 
ATOM      2  C   UNL     1       3.606   4.824  17.683  0.00  0.00    +0.000 C 
ATOM      3  C   UNL     1       4.666   5.279  16.684  0.00  0.00    +0.000 C 
ATOM      4  C   UNL     1       5.722   5.921  17.605  0.00  0.00    +0.000 C 
ATOM      5  C   UNL     1       5.571   5.164  18.904  0.00  0.00    +0.000 C 
ATOM      6  O   UNL     1       6.355   5.191  19.838  0.00  0.00    +0.000 OA
ENDROOT
BRANCH   1   7
ATOM      7  C   UNL     1       3.817   3.594  19.898  0.00  0.00    +0.000 C 
BRANCH   7   8
ATOM      8  C   UNL     1       4.397   2.161  19.890  0.00  0.00    +0.000 C 
ATOM      9  N   UNL     1       4.030   1.337  18.867  0.00  0.00    +0.000 N 
ATOM     10  O   UNL     1       5.055   1.715  20.824  0.00  0.00    +0.000 OA
ATOM     11  H   UNL     1       3.253   1.577  18.263  0.00  0.00    +0.000 HD
ATOM     12  H   UNL     1       4.274   0.358  18.961  0.00  0.00    +0.000 HD
ENDBRANCH   7   8
BRANCH   7  14
ATOM     13  C   UNL     1       1.692   3.015  21.192  0.00  0.00    +0.000 C 
ATOM     14  C   UNL     1       2.280   3.531  19.883  0.00  0.00    +0.000 C 
ENDBRANCH   7  14
ENDBRANCH   1   7
BRANCH   3  15
ATOM     15  C   UNL     1       5.285   4.144  15.831  0.00  0.00    +0.000 C 
BRANCH  15  16
ATOM     16  C   UNL     1       6.148   4.633  14.669  0.00  0.00    +0.000 C 
ATOM     17  C   UNL     1       6.017   3.783  13.422  0.00  0.00    +0.000 C 
ATOM     18  F   UNL     1       5.822   5.905  14.336  0.00  0.00    +0.000 F 
ATOM     19  F   UNL     1       7.448   4.655  15.057  0.00  0.00    +0.000 F 
ENDBRANCH  15  16
ENDBRANCH   3  15
TORSDOF 5
ENDMDL
MODEL 6
REMARK VINA RESULT:      -6.8      3.865      6.025
REMARK  Name = 
REMARK  7 active torsions:
REMARK  status: ('A' for Active; 'I' for Inactive)
REMARK    1  A    between atoms: C_1  and  C_2
REMARK    2  A    between atoms: C_2  and  C_3
REMARK    3  A    between atoms: C_3  and  C_4
REMARK    4  A    between atoms: C_3  and  N_7
REMARK    5  A    between atoms: C_9  and  C_10
REMARK    6  A    between atoms: C_10  and  C_11
REMARK    7  A    between atoms: C_11  and  C_12
REMARK                            x       y       z     vdW  Elec       q    Type
REMARK                         _______ _______ _______ _____ _____    ______ ____
ROOT
ATOM      1  N   UNL     1       3.306   4.131  19.202  0.00  0.00    +0.000 N 
ATOM      2  C   UNL     1       4.731   3.913  19.196  0.00  0.00    +0.000 C 
ATOM      3  C   UNL     1       5.139   4.164  17.747  0.00  0.00    +0.000 C 
ATOM      4  C   UNL     1       3.886   3.709  16.975  0.00  0.00    +0.000 C 
ATOM      5  C   UNL     1       2.756   3.966  17.945  0.00  0.00    +0.000 C 
ATOM      6  O   UNL     1       1.568   3.958  17.670  0.00  0.00    +0.000 OA
ENDROOT
BRANCH   1   7
ATOM      7  C   UNL     1       2.587   4.463  20.446  0.00  0.00    +0.000 C 
BRANCH   7   8
ATOM      8  C   UNL     1       1.717   3.329  21.036  0.00  0.00    +0.000 C 
ATOM      9  N   UNL     1       0.514   3.081  20.441  0.00  0.00    +0.000 N 
ATOM     10  O   UNL     1       2.011   2.751  22.077  0.00  0.00    +0.000 OA
ATOM     11  H   UNL     1       0.116   3.742  19.785  0.00  0.00    +0.000 HD
ATOM     12  H   UNL     1      -0.118   2.461  20.933  0.00  0.00    +0.000 HD
ENDBRANCH   7   8
BRANCH   7  14
ATOM     13  C   UNL     1       2.500   6.884  19.636  0.00  0.00    +0.000 C 
ATOM     14  C   UNL     1       1.749   5.746  20.320  0.00  0.00    +0.000 C 
ENDBRANCH   7  14
ENDBRANCH   1   7
BRANCH   3  15
ATOM     15  C   UNL     1       5.495   5.636  17.418  0.00  0.00    +0.000 C 
BRANCH  15  16
ATOM     16  C   UNL     1       6.976   5.873  17.128  0.00  0.00    +0.000 C 
ATOM     17  C   UNL     1       7.455   7.254  17.525  0.00  0.00    +0.000 C 
ATOM     18  F   UNL     1       7.740   4.967  17.785  0.00  0.00    +0.000 F 
ATOM     19  F   UNL     1       7.207   5.687  15.803  0.00  0.00    +0.000 F 
ENDBRANCH  15  16
ENDBRANCH   3  15
TORSDOF 5
ENDMDL
MODEL 7
REMARK VINA RESULT:      -6.7      1.613      2.225
REMARK  Name = 
REMARK  7 active torsions:
REMARK  status: ('A' for Active; 'I' for Inactive)
REMARK    1  A    between atoms: C_1  and  C_2
REMARK    2  A    between atoms: C_2  and  C_3
REMARK    3  A    between atoms: C_3  and  C_4
REMARK    4  A    between atoms: C_3  and  N_7
REMARK    5  A    between atoms: C_9  and  C_10
REMARK    6  A    between atoms: C_10  and  C_11
REMARK    7  A    between atoms: C_11  and  C_12
REMARK                            x       y       z     vdW  Elec       q    Type
REMARK                         _______ _______ _______ _____ _____    ______ ____
ROOT
ATOM      1  N   UNL     1       5.135   4.276  17.470  0.00  0.00    +0.000 N 
ATOM      2  C   UNL     1       4.307   3.191  17.006  0.00  0.00    +0.000 C 
ATOM      3  C   UNL     1       3.536   2.754  18.249  0.00  0.00    +0.000 C 
ATOM      4  C   UNL     1       4.544   3.055  19.376  0.00  0.00    +0.000 C 
ATOM      5  C   UNL     1       5.352   4.209  18.833  0.00  0.00    +0.000 C 
ATOM      6  O   UNL     1       6.113   4.910  19.479  0.00  0.00    +0.000 OA
ENDROOT
BRANCH   1   7
ATOM      7  C   UNL     1       5.669   5.285  16.537  0.00  0.00    +0.000 C 
BRANCH   7   8
ATOM      8  C   UNL     1       7.128   5.061  16.075  0.00  0.00    +0.000 C 
ATOM      9  N   UNL     1       7.450   5.432  14.802  0.00  0.00    +0.000 N 
ATOM     10  O   UNL     1       7.946   4.455  16.758  0.00  0.00    +0.000 OA
ATOM     11  H   UNL     1       6.726   5.642  14.125  0.00  0.00    +0.000 HD
ATOM     12  H   UNL     1       8.351   5.126  14.454  0.00  0.00    +0.000 HD
ENDBRANCH   7   8
BRANCH   7  14
ATOM     13  C   UNL     1       4.058   7.089  17.358  0.00  0.00    +0.000 C 
ATOM     14  C   UNL     1       5.507   6.721  17.063  0.00  0.00    +0.000 C 
ENDBRANCH   7  14
ENDBRANCH   1   7
BRANCH   3  15
ATOM     15  C   UNL     1       2.200   3.502  18.481  0.00  0.00    +0.000 C 
BRANCH  15  16
ATOM     16  C   UNL     1       1.242   2.792  19.438  0.00  0.00    +0.000 C 
ATOM     17  C   UNL     1       1.045   3.526  20.748  0.00  0.00    +0.000 C 
ATOM     18  F   UNL     1       0.025   2.638  18.865  0.00  0.00    +0.000 F 
ATOM     19  F   UNL     1       1.712   1.544  19.694  0.00  0.00    +0.000 F 
ENDBRANCH  15  16
ENDBRANCH   3  15
TORSDOF 5
ENDMDL
MODEL 8
REMARK VINA RESULT:      -6.7      1.747      2.392
REMARK  Name = 
REMARK  7 active torsions:
REMARK  status: ('A' for Active; 'I' for Inactive)
REMARK    1  A    between atoms: C_1  and  C_2
REMARK    2  A    between atoms: C_2  and  C_3
REMARK    3  A    between atoms: C_3  and  C_4
REMARK    4  A    between atoms: C_3  and  N_7
REMARK    5  A    between atoms: C_9  and  C_10
REMARK    6  A    between atoms: C_10  and  C_11
REMARK    7  A    between atoms: C_11  and  C_12
REMARK                            x       y       z     vdW  Elec       q    Type
REMARK                         _______ _______ _______ _____ _____    ______ ____
ROOT
ATOM      1  N   UNL     1       4.787   4.284  17.250  0.00  0.00    +0.000 N 
ATOM      2  C   UNL     1       3.541   3.559  17.235  0.00  0.00    +0.000 C 
ATOM      3  C   UNL     1       3.186   3.399  18.711  0.00  0.00    +0.000 C 
ATOM      4  C   UNL     1       4.577   3.315  19.370  0.00  0.00    +0.000 C 
ATOM      5  C   UNL     1       5.458   4.126  18.448  0.00  0.00    +0.000 C 
ATOM      6  O   UNL     1       6.587   4.510  18.701  0.00  0.00    +0.000 OA
ENDROOT
BRANCH   1   7
ATOM      7  C   UNL     1       5.238   5.058  16.079  0.00  0.00    +0.000 C 
BRANCH   7   8
ATOM      8  C   UNL     1       6.491   4.510  15.359  0.00  0.00    +0.000 C 
ATOM      9  N   UNL     1       6.309   3.506  14.452  0.00  0.00    +0.000 N 
ATOM     10  O   UNL     1       7.627   4.852  15.667  0.00  0.00    +0.000 OA
ATOM     11  H   UNL     1       5.433   3.000  14.410  0.00  0.00    +0.000 HD
ATOM     12  H   UNL     1       7.144   3.040  14.116  0.00  0.00    +0.000 HD
ENDBRANCH   7   8
BRANCH   7  14
ATOM     13  C   UNL     1       4.288   7.143  17.210  0.00  0.00    +0.000 C 
ATOM     14  C   UNL     1       5.434   6.550  16.397  0.00  0.00    +0.000 C 
ENDBRANCH   7  14
ENDBRANCH   1   7
BRANCH   3  15
ATOM     15  C   UNL     1       2.354   4.560  19.309  0.00  0.00    +0.000 C 
BRANCH  15  16
ATOM     16  C   UNL     1       1.633   4.209  20.610  0.00  0.00    +0.000 C 
ATOM     17  C   UNL     1       1.259   2.745  20.716  0.00  0.00    +0.000 C 
ATOM     18  F   UNL     1       2.406   4.514  21.680  0.00  0.00    +0.000 F 
ATOM     19  F   UNL     1       0.510   4.963  20.716  0.00  0.00    +0.000 F 
ENDBRANCH  15  16
ENDBRANCH   3  15
TORSDOF 5
ENDMDL
MODEL 9
REMARK VINA RESULT:      -6.7      3.620      5.772
REMARK  Name = 
REMARK  7 active torsions:
REMARK  status: ('A' for Active; 'I' for Inactive)
REMARK    1  A    between atoms: C_1  and  C_2
REMARK    2  A    between atoms: C_2  and  C_3
REMARK    3  A    between atoms: C_3  and  C_4
REMARK    4  A    between atoms: C_3  and  N_7
REMARK    5  A    between atoms: C_9  and  C_10
REMARK    6  A    between atoms: C_10  and  C_11
REMARK    7  A    between atoms: C_11  and  C_12
REMARK                            x       y       z     vdW  Elec       q    Type
REMARK                         _______ _______ _______ _____ _____    ______ ____
ROOT
ATOM      1  N   UNL     1       5.547   5.316  18.847  0.00  0.00    +0.000 N 
ATOM      2  C   UNL     1       5.279   5.979  17.595  0.00  0.00    +0.000 C 
ATOM      3  C   UNL     1       6.651   6.099  16.937  0.00  0.00    +0.000 C 
ATOM      4  C   UNL     1       7.583   6.240  18.157  0.00  0.00    +0.000 C 
ATOM      5  C   UNL     1       6.858   5.487  19.248  0.00  0.00    +0.000 C 
ATOM      6  O   UNL     1       7.337   5.154  20.319  0.00  0.00    +0.000 OA
ENDROOT
BRANCH   1   7
ATOM      7  C   UNL     1       4.490   4.582  19.567  0.00  0.00    +0.000 C 
BRANCH   7   8
ATOM      8  C   UNL     1       4.366   3.080  19.222  0.00  0.00    +0.000 C 
ATOM      9  N   UNL     1       5.109   2.201  19.955  0.00  0.00    +0.000 N 
ATOM     10  O   UNL     1       3.737   2.681  18.248  0.00  0.00    +0.000 OA
ATOM     11  H   UNL     1       5.862   2.528  20.548  0.00  0.00    +0.000 HD
ATOM     12  H   UNL     1       5.154   1.248  19.613  0.00  0.00    +0.000 HD
ENDBRANCH   7   8
BRANCH   7  14
ATOM     13  C   UNL     1       2.230   5.035  20.668  0.00  0.00    +0.000 C 
ATOM     14  C   UNL     1       3.114   5.257  19.446  0.00  0.00    +0.000 C 
ENDBRANCH   7  14
ENDBRANCH   1   7
BRANCH   3  15
ATOM     15  C   UNL     1       7.059   4.890  16.059  0.00  0.00    +0.000 C 
BRANCH  15  16
ATOM     16  C   UNL     1       6.572   4.974  14.613  0.00  0.00    +0.000 C 
ATOM     17  C   UNL     1       6.038   3.660  14.080  0.00  0.00    +0.000 C 
ATOM     18  F   UNL     1       5.588   5.897  14.495  0.00  0.00    +0.000 F 
ATOM     19  F   UNL     1       7.593   5.391  13.822  0.00  0.00    +0.000 F 
ENDBRANCH  15  16
ENDBRANCH   3  15
TORSDOF 5
ENDMDL
