MODEL 1
REMARK VINA RESULT:      -8.1      0.000      0.000
REMARK  Name = 
REMARK  6 active torsions:
REMARK  status: ('A' for Active; 'I' for Inactive)
REMARK    1  A    between atoms: C_1  and  O_2
REMARK    2  A    between atoms: O_2  and  C_3
REMARK    3  A    between atoms: C_5  and  C_6
REMARK    4  A    between atoms: N_8  and  C_9
REMARK    5  A    between atoms: N_22  and  C_23
REMARK    6  A    between atoms: C_23  and  C_24
REMARK                            x       y       z     vdW  Elec       q    Type
REMARK                         _______ _______ _______ _____ _____    ______ ____
ROOT
ATOM      1  C   UNL     1       1.012   9.040  21.053  0.00  0.00    +0.000 A 
ATOM      2  C   UNL     1       1.822   8.106  20.390  0.00  0.00    +0.000 A 
ATOM      3  C   UNL     1       1.958   8.109  18.995  0.00  0.00    +0.000 A 
ATOM      4  C   UNL     1       1.339   9.137  18.276  0.00  0.00    +0.000 A 
ATOM      5  C   UNL     1       0.591  10.136  18.925  0.00  0.00    +0.000 A 
ATOM      6  C   UNL     1       0.388  10.050  20.313  0.00  0.00    +0.000 A 
ATOM      7  O   UNL     1      -0.432  10.965  20.917  0.00  0.00    +0.000 OA
ATOM      8  C   UNL     1       0.211  12.237  21.054  0.00  0.00    +0.000 C 
ATOM      9  C   UNL     1       0.027  13.098  19.796  0.00  0.00    +0.000 C 
ATOM     10  N   UNL     1       0.710  12.630  18.576  0.00  0.00    +0.000 NA
ATOM     11  C   UNL     1       0.128  11.339  18.131  0.00  0.00    +0.000 C 
ENDROOT
BRANCH   3  12
ATOM     12  C   UNL     1       2.732   7.076  18.309  0.00  0.00    +0.000 A 
ATOM     13  C   UNL     1       3.871   7.350  17.573  0.00  0.00    +0.000 A 
ATOM     14  N   UNL     1       4.339   6.178  17.040  0.00  0.00    +0.000 N 
ATOM     15  C   UNL     1       5.504   6.067  16.192  0.00  0.00    +0.000 C 
ATOM     16  C   UNL     1       3.535   5.126  17.419  0.00  0.00    +0.000 A 
ATOM     17  C   UNL     1       3.617   3.756  17.119  0.00  0.00    +0.000 A 
ATOM     18  C   UNL     1       2.642   2.905  17.645  0.00  0.00    +0.000 A 
ATOM     19  C   UNL     1       1.612   3.404  18.432  0.00  0.00    +0.000 A 
ATOM     20  C   UNL     1       1.531   4.772  18.712  0.00  0.00    +0.000 A 
ATOM     21  C   UNL     1       2.513   5.659  18.214  0.00  0.00    +0.000 A 
ENDBRANCH   3  12
BRANCH   1  23
ATOM     22  C   UNL     1      -0.190   9.224  23.100  0.00  0.00    +0.000 C 
ATOM     23  O   UNL     1       1.012   8.894  22.416  0.00  0.00    +0.000 OA
ENDBRANCH   1  23
BRANCH  10  24
ATOM     24  C   UNL     1       2.179  12.546  18.695  0.00  0.00    +0.000 C 
BRANCH  24  25
ATOM     25  C   UNL     1       2.892  13.865  18.855  0.00  0.00    +0.000 A 
ATOM     26  C   UNL     1       2.964  14.788  17.804  0.00  0.00    +0.000 A 
ATOM     27  C   UNL     1       3.565  16.027  18.009  0.00  0.00    +0.000 A 
ATOM     28  C   UNL     1       4.077  16.304  19.264  0.00  0.00    +0.000 A 
ATOM     29  N   UNL     1       4.038  15.437  20.300  0.00  0.00    +0.000 NA
ATOM     30  C   UNL     1       3.449  14.240  20.071  0.00  0.00    +0.000 A 
ENDBRANCH  24  25
ENDBRANCH  10  24
TORSDOF 4
ENDMDL
MODEL 2
REMARK VINA RESULT:      -8.1      0.966      1.025
REMARK  Name = 
REMARK  6 active torsions:
REMARK  status: ('A' for Active; 'I' for Inactive)
REMARK    1  A    between atoms: C_1  and  O_2
REMARK    2  A    between atoms: O_2  and  C_3
REMARK    3  A    between atoms: C_5  and  C_6
REMARK    4  A    between atoms: N_8  and  C_9
REMARK    5  A    between atoms: N_22  and  C_23
REMARK    6  A    between atoms: C_23  and  C_24
REMARK                            x       y       z     vdW  Elec       q    Type
REMARK                         _______ _______ _______ _____ _____    ______ ____
ROOT
ATOM      1  C   UNL     1       0.788   9.770  21.481  0.00  0.00    +0.000 A 
ATOM      2  C   UNL     1       1.541   8.697  20.979  0.00  0.00    +0.000 A 
ATOM      3  C   UNL     1       1.702   8.491  19.603  0.00  0.00    +0.000 A 
ATOM      4  C   UNL     1       1.171   9.444  18.728  0.00  0.00    +0.000 A 
ATOM      5  C   UNL     1       0.485  10.575  19.207  0.00  0.00    +0.000 A 
ATOM      6  C   UNL     1       0.251  10.703  20.587  0.00  0.00    +0.000 A 
ATOM      7  O   UNL     1      -0.513  11.749  21.032  0.00  0.00    +0.000 OA
ATOM      8  C   UNL     1       0.217  12.980  21.004  0.00  0.00    +0.000 C 
ATOM      9  C   UNL     1       0.117  13.663  19.633  0.00  0.00    +0.000 C 
ATOM     10  N   UNL     1       0.788  12.978  18.511  0.00  0.00    +0.000 NA
ATOM     11  C   UNL     1       0.123  11.680  18.238  0.00  0.00    +0.000 C 
ENDROOT
BRANCH   3  12
ATOM     12  C   UNL     1       2.414   7.320  19.092  0.00  0.00    +0.000 A 
ATOM     13  C   UNL     1       3.264   7.369  18.003  0.00  0.00    +0.000 A 
ATOM     14  N   UNL     1       3.745   6.108  17.767  0.00  0.00    +0.000 N 
ATOM     15  C   UNL     1       4.649   5.759  16.694  0.00  0.00    +0.000 C 
ATOM     16  C   UNL     1       3.234   5.222  18.689  0.00  0.00    +0.000 A 
ATOM     17  C   UNL     1       3.438   3.839  18.842  0.00  0.00    +0.000 A 
ATOM     18  C   UNL     1       2.773   3.185  19.882  0.00  0.00    +0.000 A 
ATOM     19  C   UNL     1       1.924   3.881  20.733  0.00  0.00    +0.000 A 
ATOM     20  C   UNL     1       1.718   5.254  20.563  0.00  0.00    +0.000 A 
ATOM     21  C   UNL     1       2.390   5.953  19.534  0.00  0.00    +0.000 A 
ENDBRANCH   3  12
BRANCH   1  23
ATOM     22  C   UNL     1      -0.483   9.503  23.476  0.00  0.00    +0.000 C 
ATOM     23  O   UNL     1       0.753   9.822  22.850  0.00  0.00    +0.000 OA
ENDBRANCH   1  23
BRANCH  10  24
ATOM     24  C   UNL     1       2.244  12.813  18.682  0.00  0.00    +0.000 C 
BRANCH  24  25
ATOM     25  C   UNL     1       3.035  14.093  18.781  0.00  0.00    +0.000 A 
ATOM     26  C   UNL     1       3.058  15.020  17.731  0.00  0.00    +0.000 A 
ATOM     27  C   UNL     1       3.736  16.226  17.885  0.00  0.00    +0.000 A 
ATOM     28  C   UNL     1       4.373  16.468  19.090  0.00  0.00    +0.000 A 
ATOM     29  N   UNL     1       4.384  15.596  20.122  0.00  0.00    +0.000 NA
ATOM     30  C   UNL     1       3.717  14.431  19.943  0.00  0.00    +0.000 A 
ENDBRANCH  24  25
ENDBRANCH  10  24
TORSDOF 4
ENDMDL
MODEL 3
REMARK VINA RESULT:      -7.9      1.530      1.711
REMARK  Name = 
REMARK  6 active torsions:
REMARK  status: ('A' for Active; 'I' for Inactive)
REMARK    1  A    between atoms: C_1  and  O_2
REMARK    2  A    between atoms: O_2  and  C_3
REMARK    3  A    between atoms: C_5  and  C_6
REMARK    4  A    between atoms: N_8  and  C_9
REMARK    5  A    between atoms: N_22  and  C_23
REMARK    6  A    between atoms: C_23  and  C_24
REMARK                            x       y       z     vdW  Elec       q    Type
REMARK                         _______ _______ _______ _____ _____    ______ ____
ROOT
ATOM      1  C   UNL     1      -0.342   9.913  21.276  0.00  0.00    +0.000 A 
ATOM      2  C   UNL     1       0.634   9.006  20.836  0.00  0.00    +0.000 A 
ATOM      3  C   UNL     1       1.094   9.005  19.513  0.00  0.00    +0.000 A 
ATOM      4  C   UNL     1       0.627  10.004  18.653  0.00  0.00    +0.000 A 
ATOM      5  C   UNL     1      -0.288  10.979  19.092  0.00  0.00    +0.000 A 
ATOM      6  C   UNL     1      -0.809  10.894  20.394  0.00  0.00    +0.000 A 
ATOM      7  O   UNL     1      -1.780  11.781  20.775  0.00  0.00    +0.000 OA
ATOM      8  C   UNL     1      -1.232  13.077  21.040  0.00  0.00    +0.000 C 
ATOM      9  C   UNL     1      -1.145  13.923  19.761  0.00  0.00    +0.000 C 
ATOM     10  N   UNL     1      -0.177  13.473  18.743  0.00  0.00    +0.000 NA
ATOM     11  C   UNL     1      -0.593  12.158  18.193  0.00  0.00    +0.000 C 
ENDROOT
BRANCH   3  12
ATOM     12  C   UNL     1       2.045   7.998  19.044  0.00  0.00    +0.000 A 
ATOM     13  C   UNL     1       2.879   8.195  17.959  0.00  0.00    +0.000 A 
ATOM     14  N   UNL     1       3.619   7.058  17.766  0.00  0.00    +0.000 N 
ATOM     15  C   UNL     1       4.591   6.878  16.710  0.00  0.00    +0.000 C 
ATOM     16  C   UNL     1       3.298   6.111  18.712  0.00  0.00    +0.000 A 
ATOM     17  C   UNL     1       3.789   4.809  18.910  0.00  0.00    +0.000 A 
ATOM     18  C   UNL     1       3.265   4.060  19.966  0.00  0.00    +0.000 A 
ATOM     19  C   UNL     1       2.277   4.584  20.790  0.00  0.00    +0.000 A 
ATOM     20  C   UNL     1       1.785   5.876  20.575  0.00  0.00    +0.000 A 
ATOM     21  C   UNL     1       2.307   6.671  19.529  0.00  0.00    +0.000 A 
ENDBRANCH   3  12
BRANCH   1  23
ATOM     22  C   UNL     1       0.370   9.309  23.466  0.00  0.00    +0.000 C 
ATOM     23  O   UNL     1      -0.658   9.776  22.603  0.00  0.00    +0.000 OA
ENDBRANCH   1  23
BRANCH  10  24
ATOM     24  C   UNL     1       1.224  13.445  19.206  0.00  0.00    +0.000 C 
BRANCH  24  25
ATOM     25  C   UNL     1       2.097  14.563  18.694  0.00  0.00    +0.000 A 
ATOM     26  C   UNL     1       3.386  14.317  18.204  0.00  0.00    +0.000 A 
ATOM     27  C   UNL     1       4.137  15.360  17.670  0.00  0.00    +0.000 A 
ATOM     28  C   UNL     1       3.571  16.623  17.643  0.00  0.00    +0.000 A 
ATOM     29  N   UNL     1       2.337  16.905  18.115  0.00  0.00    +0.000 NA
ATOM     30  C   UNL     1       1.631  15.870  18.630  0.00  0.00    +0.000 A 
ENDBRANCH  24  25
ENDBRANCH  10  24
TORSDOF 4
ENDMDL
MODEL 4
REMARK VINA RESULT:      -7.9      5.881      9.094
REMARK  Name = 
REMARK  6 active torsions:
REMARK  status: ('A' for Active; 'I' for Inactive)
REMARK    1  A    between atoms: C_1  and  O_2
REMARK    2  A    between atoms: O_2  and  C_3
REMARK    3  A    between atoms: C_5  and  C_6
REMARK    4  A    between atoms: N_8  and  C_9
REMARK    5  A    between atoms: N_22  and  C_23
REMARK    6  A    between atoms: C_23  and  C_24
REMARK                            x       y       z     vdW  Elec       q    Type
REMARK                         _______ _______ _______ _____ _____    ______ ____
ROOT
ATOM      1  C   UNL     1      -3.588  15.386  22.490  0.00  0.00    +0.000 A 
ATOM      2  C   UNL     1      -2.828  14.579  21.630  0.00  0.00    +0.000 A 
ATOM      3  C   UNL     1      -3.005  13.190  21.576  0.00  0.00    +0.000 A 
ATOM      4  C   UNL     1      -4.037  12.628  22.336  0.00  0.00    +0.000 A 
ATOM      5  C   UNL     1      -4.870  13.426  23.141  0.00  0.00    +0.000 A 
ATOM      6  C   UNL     1      -4.604  14.801  23.254  0.00  0.00    +0.000 A 
ATOM      7  O   UNL     1      -5.351  15.548  24.126  0.00  0.00    +0.000 OA
ATOM      8  C   UNL     1      -6.660  15.806  23.607  0.00  0.00    +0.000 C 
ATOM      9  C   UNL     1      -7.635  14.671  23.949  0.00  0.00    +0.000 C 
ATOM     10  N   UNL     1      -7.385  13.373  23.294  0.00  0.00    +0.000 NA
ATOM     11  C   UNL     1      -6.099  12.804  23.768  0.00  0.00    +0.000 C 
ENDROOT
BRANCH   3  12
ATOM     12  C   UNL     1      -2.146  12.350  20.742  0.00  0.00    +0.000 A 
ATOM     13  C   UNL     1      -0.857  12.000  21.100  0.00  0.00    +0.000 A 
ATOM     14  N   UNL     1      -0.318  11.237  20.098  0.00  0.00    +0.000 N 
ATOM     15  C   UNL     1       1.024  10.699  20.104  0.00  0.00    +0.000 C 
ATOM     16  C   UNL     1      -1.233  11.065  19.083  0.00  0.00    +0.000 A 
ATOM     17  C   UNL     1      -1.132  10.369  17.866  0.00  0.00    +0.000 A 
ATOM     18  C   UNL     1      -2.237  10.371  17.011  0.00  0.00    +0.000 A 
ATOM     19  C   UNL     1      -3.398  11.053  17.350  0.00  0.00    +0.000 A 
ATOM     20  C   UNL     1      -3.483  11.755  18.558  0.00  0.00    +0.000 A 
ATOM     21  C   UNL     1      -2.391  11.757  19.457  0.00  0.00    +0.000 A 
ENDBRANCH   3  12
BRANCH   1  23
ATOM     22  C   UNL     1      -2.227  17.201  23.210  0.00  0.00    +0.000 C 
ATOM     23  O   UNL     1      -3.288  16.720  22.396  0.00  0.00    +0.000 OA
ENDBRANCH   1  23
BRANCH  10  24
ATOM     24  C   UNL     1      -7.445  13.414  21.820  0.00  0.00    +0.000 C 
BRANCH  24  25
ATOM     25  C   UNL     1      -7.424  12.071  21.133  0.00  0.00    +0.000 A 
ATOM     26  C   UNL     1      -6.849  11.907  19.867  0.00  0.00    +0.000 A 
ATOM     27  C   UNL     1      -6.779  10.641  19.294  0.00  0.00    +0.000 A 
ATOM     28  C   UNL     1      -7.289   9.572  20.011  0.00  0.00    +0.000 A 
ATOM     29  N   UNL     1      -7.862   9.689  21.229  0.00  0.00    +0.000 NA
ATOM     30  C   UNL     1      -7.917  10.933  21.760  0.00  0.00    +0.000 A 
ENDBRANCH  24  25
ENDBRANCH  10  24
TORSDOF 4
ENDMDL
MODEL 5
REMARK VINA RESULT:      -7.8      4.508      9.032
REMARK  Name = 
REMARK  6 active torsions:
REMARK  status: ('A' for Active; 'I' for Inactive)
REMARK    1  A    between atoms: C_1  and  O_2
REMARK    2  A    between atoms: O_2  and  C_3
REMARK    3  A    between atoms: C_5  and  C_6
REMARK    4  A    between atoms: N_8  and  C_9
REMARK    5  A    between atoms: N_22  and  C_23
REMARK    6  A    between atoms: C_23  and  C_24
REMARK                            x       y       z     vdW  Elec       q    Type
REMARK                         _______ _______ _______ _____ _____    ______ ____
ROOT
ATOM      1  C   UNL     1      -0.678  11.372  22.571  0.00  0.00    +0.000 A 
ATOM      2  C   UNL     1      -1.939  11.941  22.810  0.00  0.00    +0.000 A 
ATOM      3  C   UNL     1      -2.561  12.773  21.870  0.00  0.00    +0.000 A 
ATOM      4  C   UNL     1      -1.936  12.949  20.630  0.00  0.00    +0.000 A 
ATOM      5  C   UNL     1      -0.713  12.321  20.333  0.00  0.00    +0.000 A 
ATOM      6  C   UNL     1      -0.063  11.575  21.330  0.00  0.00    +0.000 A 
ATOM      7  O   UNL     1       1.179  11.060  21.066  0.00  0.00    +0.000 OA
ATOM      8  C   UNL     1       1.100   9.915  20.209  0.00  0.00    +0.000 C 
ATOM      9  C   UNL     1       1.097  10.320  18.728  0.00  0.00    +0.000 C 
ATOM     10  N   UNL     1      -0.098  11.041  18.250  0.00  0.00    +0.000 NA
ATOM     11  C   UNL     1      -0.191  12.366  18.912  0.00  0.00    +0.000 C 
ENDROOT
BRANCH   3  12
ATOM     12  C   UNL     1      -3.832  13.431  22.167  0.00  0.00    +0.000 A 
ATOM     13  C   UNL     1      -3.947  14.480  23.061  0.00  0.00    +0.000 A 
ATOM     14  N   UNL     1      -5.265  14.849  23.133  0.00  0.00    +0.000 N 
ATOM     15  C   UNL     1      -5.780  15.902  23.980  0.00  0.00    +0.000 C 
ATOM     16  C   UNL     1      -6.027  14.068  22.294  0.00  0.00    +0.000 A 
ATOM     17  C   UNL     1      -7.409  14.076  22.036  0.00  0.00    +0.000 A 
ATOM     18  C   UNL     1      -7.916  13.147  21.125  0.00  0.00    +0.000 A 
ATOM     19  C   UNL     1      -7.078  12.232  20.500  0.00  0.00    +0.000 A 
ATOM     20  C   UNL     1      -5.706  12.224  20.773  0.00  0.00    +0.000 A 
ATOM     21  C   UNL     1      -5.155  13.163  21.675  0.00  0.00    +0.000 A 
ENDBRANCH   3  12
BRANCH   1  23
ATOM     22  C   UNL     1      -0.326   9.170  23.403  0.00  0.00    +0.000 C 
ATOM     23  O   UNL     1      -0.234  10.575  23.593  0.00  0.00    +0.000 OA
ENDBRANCH   1  23
BRANCH  10  24
ATOM     24  C   UNL     1      -1.358  10.285  18.379  0.00  0.00    +0.000 C 
BRANCH  24  25
ATOM     25  C   UNL     1      -2.419  10.615  17.358  0.00  0.00    +0.000 A 
ATOM     26  C   UNL     1      -2.359  10.109  16.054  0.00  0.00    +0.000 A 
ATOM     27  C   UNL     1      -3.393  10.372  15.160  0.00  0.00    +0.000 A 
ATOM     28  C   UNL     1      -4.460  11.136  15.602  0.00  0.00    +0.000 A 
ATOM     29  N   UNL     1      -4.550  11.651  16.847  0.00  0.00    +0.000 NA
ATOM     30  C   UNL     1      -3.529  11.380  17.694  0.00  0.00    +0.000 A 
ENDBRANCH  24  25
ENDBRANCH  10  24
TORSDOF 4
ENDMDL
MODEL 6
REMARK VINA RESULT:      -7.7      4.573      9.450
REMARK  Name = 
REMARK  6 active torsions:
REMARK  status: ('A' for Active; 'I' for Inactive)
REMARK    1  A    between atoms: C_1  and  O_2
REMARK    2  A    between atoms: O_2  and  C_3
REMARK    3  A    between atoms: C_5  and  C_6
REMARK    4  A    between atoms: N_8  and  C_9
REMARK    5  A    between atoms: N_22  and  C_23
REMARK    6  A    between atoms: C_23  and  C_24
REMARK                            x       y       z     vdW  Elec       q    Type
REMARK                         _______ _______ _______ _____ _____    ______ ____
ROOT
ATOM      1  C   UNL     1      -0.813  11.446  22.627  0.00  0.00    +0.000 A 
ATOM      2  C   UNL     1      -2.120  11.906  22.846  0.00  0.00    +0.000 A 
ATOM      3  C   UNL     1      -2.787  12.704  21.907  0.00  0.00    +0.000 A 
ATOM      4  C   UNL     1      -2.151  12.955  20.686  0.00  0.00    +0.000 A 
ATOM      5  C   UNL     1      -0.874  12.434  20.406  0.00  0.00    +0.000 A 
ATOM      6  C   UNL     1      -0.189  11.723  21.405  0.00  0.00    +0.000 A 
ATOM      7  O   UNL     1       1.096  11.316  21.161  0.00  0.00    +0.000 OA
ATOM      8  C   UNL     1       1.131  10.187  20.282  0.00  0.00    +0.000 C 
ATOM      9  C   UNL     1       1.127  10.620  18.809  0.00  0.00    +0.000 C 
ATOM     10  N   UNL     1      -0.111  11.251  18.315  0.00  0.00    +0.000 NA
ATOM     11  C   UNL     1      -0.326  12.550  19.000  0.00  0.00    +0.000 C 
ENDROOT
BRANCH   3  12
ATOM     12  C   UNL     1      -4.114  13.251  22.186  0.00  0.00    +0.000 A 
ATOM     13  C   UNL     1      -5.277  12.709  21.670  0.00  0.00    +0.000 A 
ATOM     14  N   UNL     1      -6.337  13.466  22.096  0.00  0.00    +0.000 N 
ATOM     15  C   UNL     1      -7.718  13.221  21.743  0.00  0.00    +0.000 C 
ATOM     16  C   UNL     1      -5.898  14.497  22.896  0.00  0.00    +0.000 A 
ATOM     17  C   UNL     1      -6.610  15.516  23.552  0.00  0.00    +0.000 A 
ATOM     18  C   UNL     1      -5.888  16.447  24.303  0.00  0.00    +0.000 A 
ATOM     19  C   UNL     1      -4.504  16.372  24.390  0.00  0.00    +0.000 A 
ATOM     20  C   UNL     1      -3.804  15.362  23.722  0.00  0.00    +0.000 A 
ATOM     21  C   UNL     1      -4.503  14.391  22.969  0.00  0.00    +0.000 A 
ENDBRANCH   3  12
BRANCH   1  23
ATOM     22  C   UNL     1      -0.278   9.265  23.417  0.00  0.00    +0.000 C 
ATOM     23  O   UNL     1      -0.328  10.668  23.645  0.00  0.00    +0.000 OA
ENDBRANCH   1  23
BRANCH  10  24
ATOM     24  C   UNL     1      -1.308  10.393  18.400  0.00  0.00    +0.000 C 
BRANCH  24  25
ATOM     25  C   UNL     1      -2.304  10.556  17.279  0.00  0.00    +0.000 A 
ATOM     26  C   UNL     1      -2.174   9.845  16.078  0.00  0.00    +0.000 A 
ATOM     27  C   UNL     1      -3.150   9.962  15.094  0.00  0.00    +0.000 A 
ATOM     28  C   UNL     1      -4.232  10.790  15.342  0.00  0.00    +0.000 A 
ATOM     29  N   UNL     1      -4.388  11.501  16.480  0.00  0.00    +0.000 NA
ATOM     30  C   UNL     1      -3.422  11.368  17.420  0.00  0.00    +0.000 A 
ENDBRANCH  24  25
ENDBRANCH  10  24
TORSDOF 4
ENDMDL
MODEL 7
REMARK VINA RESULT:      -7.6      5.276      8.450
REMARK  Name = 
REMARK  6 active torsions:
REMARK  status: ('A' for Active; 'I' for Inactive)
REMARK    1  A    between atoms: C_1  and  O_2
REMARK    2  A    between atoms: O_2  and  C_3
REMARK    3  A    between atoms: C_5  and  C_6
REMARK    4  A    between atoms: N_8  and  C_9
REMARK    5  A    between atoms: N_22  and  C_23
REMARK    6  A    between atoms: C_23  and  C_24
REMARK                            x       y       z     vdW  Elec       q    Type
REMARK                         _______ _______ _______ _____ _____    ______ ____
ROOT
ATOM      1  C   UNL     1      -2.311  14.903  23.546  0.00  0.00    +0.000 A 
ATOM      2  C   UNL     1      -1.561  13.944  22.848  0.00  0.00    +0.000 A 
ATOM      3  C   UNL     1      -2.034  12.641  22.650  0.00  0.00    +0.000 A 
ATOM      4  C   UNL     1      -3.329  12.337  23.083  0.00  0.00    +0.000 A 
ATOM      5  C   UNL     1      -4.136  13.305  23.710  0.00  0.00    +0.000 A 
ATOM      6  C   UNL     1      -3.598  14.573  23.986  0.00  0.00    +0.000 A 
ATOM      7  O   UNL     1      -4.353  15.470  24.695  0.00  0.00    +0.000 OA
ATOM      8  C   UNL     1      -5.384  16.043  23.885  0.00  0.00    +0.000 C 
ATOM      9  C   UNL     1      -6.650  15.175  23.888  0.00  0.00    +0.000 C 
ATOM     10  N   UNL     1      -6.545  13.862  23.222  0.00  0.00    +0.000 NA
ATOM     11  C   UNL     1      -5.596  12.993  23.961  0.00  0.00    +0.000 C 
ENDROOT
BRANCH   3  12
ATOM     12  C   UNL     1      -1.206  11.626  21.999  0.00  0.00    +0.000 A 
ATOM     13  C   UNL     1      -0.352  10.790  22.694  0.00  0.00    +0.000 A 
ATOM     14  N   UNL     1       0.294   9.982  21.796  0.00  0.00    +0.000 N 
ATOM     15  C   UNL     1       1.283   8.987  22.147  0.00  0.00    +0.000 C 
ATOM     16  C   UNL     1      -0.124  10.261  20.514  0.00  0.00    +0.000 A 
ATOM     17  C   UNL     1       0.254   9.697  19.284  0.00  0.00    +0.000 A 
ATOM     18  C   UNL     1      -0.342  10.192  18.121  0.00  0.00    +0.000 A 
ATOM     19  C   UNL     1      -1.274  11.220  18.180  0.00  0.00    +0.000 A 
ATOM     20  C   UNL     1      -1.633  11.783  19.409  0.00  0.00    +0.000 A 
ATOM     21  C   UNL     1      -1.065  11.294  20.608  0.00  0.00    +0.000 A 
ENDBRANCH   3  12
BRANCH   1  23
ATOM     22  C   UNL     1      -1.884  17.015  22.537  0.00  0.00    +0.000 C 
ATOM     23  O   UNL     1      -1.697  16.125  23.629  0.00  0.00    +0.000 OA
ENDBRANCH   1  23
BRANCH  10  24
ATOM     24  C   UNL     1      -6.207  13.932  21.788  0.00  0.00    +0.000 C 
BRANCH  24  25
ATOM     25  C   UNL     1      -6.438  12.663  21.006  0.00  0.00    +0.000 A 
ATOM     26  C   UNL     1      -7.477  11.782  21.334  0.00  0.00    +0.000 A 
ATOM     27  C   UNL     1      -7.709  10.659  20.545  0.00  0.00    +0.000 A 
ATOM     28  C   UNL     1      -6.891  10.452  19.448  0.00  0.00    +0.000 A 
ATOM     29  N   UNL     1      -5.873  11.270  19.104  0.00  0.00    +0.000 NA
ATOM     30  C   UNL     1      -5.670  12.354  19.890  0.00  0.00    +0.000 A 
ENDBRANCH  24  25
ENDBRANCH  10  24
TORSDOF 4
ENDMDL
MODEL 8
REMARK VINA RESULT:      -7.5      1.078      1.971
REMARK  Name = 
REMARK  6 active torsions:
REMARK  status: ('A' for Active; 'I' for Inactive)
REMARK    1  A    between atoms: C_1  and  O_2
REMARK    2  A    between atoms: O_2  and  C_3
REMARK    3  A    between atoms: C_5  and  C_6
REMARK    4  A    between atoms: N_8  and  C_9
REMARK    5  A    between atoms: N_22  and  C_23
REMARK    6  A    between atoms: C_23  and  C_24
REMARK                            x       y       z     vdW  Elec       q    Type
REMARK                         _______ _______ _______ _____ _____    ______ ____
ROOT
ATOM      1  C   UNL     1       0.736   9.567  21.608  0.00  0.00    +0.000 A 
ATOM      2  C   UNL     1       1.494   8.461  21.191  0.00  0.00    +0.000 A 
ATOM      3  C   UNL     1       1.672   8.162  19.834  0.00  0.00    +0.000 A 
ATOM      4  C   UNL     1       1.156   9.055  18.889  0.00  0.00    +0.000 A 
ATOM      5  C   UNL     1       0.466  10.217  19.281  0.00  0.00    +0.000 A 
ATOM      6  C   UNL     1       0.215  10.438  20.646  0.00  0.00    +0.000 A 
ATOM      7  O   UNL     1      -0.552  11.514  21.009  0.00  0.00    +0.000 OA
ATOM      8  C   UNL     1       0.181  12.739  20.908  0.00  0.00    +0.000 C 
ATOM      9  C   UNL     1       0.102  13.327  19.492  0.00  0.00    +0.000 C 
ATOM     10  N   UNL     1       0.786  12.567  18.428  0.00  0.00    +0.000 NA
ATOM     11  C   UNL     1       0.121  11.255  18.234  0.00  0.00    +0.000 C 
ENDROOT
BRANCH   3  12
ATOM     12  C   UNL     1       2.387   6.958  19.413  0.00  0.00    +0.000 A 
ATOM     13  C   UNL     1       2.295   5.752  20.084  0.00  0.00    +0.000 A 
ATOM     14  N   UNL     1       3.102   4.840  19.456  0.00  0.00    +0.000 N 
ATOM     15  C   UNL     1       3.282   3.470  19.882  0.00  0.00    +0.000 C 
ATOM     16  C   UNL     1       3.722   5.418  18.372  0.00  0.00    +0.000 A 
ATOM     17  C   UNL     1       4.628   4.881  17.441  0.00  0.00    +0.000 A 
ATOM     18  C   UNL     1       5.109   5.717  16.430  0.00  0.00    +0.000 A 
ATOM     19  C   UNL     1       4.710   7.046  16.355  0.00  0.00    +0.000 A 
ATOM     20  C   UNL     1       3.819   7.573  17.296  0.00  0.00    +0.000 A 
ATOM     21  C   UNL     1       3.297   6.751  18.320  0.00  0.00    +0.000 A 
ENDBRANCH   3  12
BRANCH   1  23
ATOM     22  C   UNL     1      -0.608   9.763  23.562  0.00  0.00    +0.000 C 
ATOM     23  O   UNL     1       0.683   9.711  22.970  0.00  0.00    +0.000 OA
ENDBRANCH   1  23
BRANCH  10  24
ATOM     24  C   UNL     1       2.239  12.411  18.630  0.00  0.00    +0.000 C 
BRANCH  24  25
ATOM     25  C   UNL     1       3.019  13.696  18.748  0.00  0.00    +0.000 A 
ATOM     26  C   UNL     1       3.176  14.558  17.655  0.00  0.00    +0.000 A 
ATOM     27  C   UNL     1       3.837  15.772  17.817  0.00  0.00    +0.000 A 
ATOM     28  C   UNL     1       4.323  16.087  19.075  0.00  0.00    +0.000 A 
ATOM     29  N   UNL     1       4.202  15.279  20.151  0.00  0.00    +0.000 NA
ATOM     30  C   UNL     1       3.555  14.105  19.963  0.00  0.00    +0.000 A 
ENDBRANCH  24  25
ENDBRANCH  10  24
TORSDOF 4
ENDMDL
MODEL 9
REMARK VINA RESULT:      -7.5      1.480      2.345
REMARK  Name = 
REMARK  6 active torsions:
REMARK  status: ('A' for Active; 'I' for Inactive)
REMARK    1  A    between atoms: C_1  and  O_2
REMARK    2  A    between atoms: O_2  and  C_3
REMARK    3  A    between atoms: C_5  and  C_6
REMARK    4  A    between atoms: N_8  and  C_9
REMARK    5  A    between atoms: N_22  and  C_23
REMARK    6  A    between atoms: C_23  and  C_24
REMARK                            x       y       z     vdW  Elec       q    Type
REMARK                         _______ _______ _______ _____ _____    ______ ____
ROOT
ATOM      1  C   UNL     1       0.032  10.525  21.713  0.00  0.00    +0.000 A 
ATOM      2  C   UNL     1       0.723   9.321  21.507  0.00  0.00    +0.000 A 
ATOM      3  C   UNL     1       1.072   8.883  20.223  0.00  0.00    +0.000 A 
ATOM      4  C   UNL     1       0.801   9.730  19.142  0.00  0.00    +0.000 A 
ATOM      5  C   UNL     1       0.186  10.981  19.330  0.00  0.00    +0.000 A 
ATOM      6  C   UNL     1      -0.244  11.349  20.616  0.00  0.00    +0.000 A 
ATOM      7  O   UNL     1      -0.939  12.519  20.770  0.00  0.00    +0.000 OA
ATOM      8  C   UNL     1      -0.074  13.657  20.694  0.00  0.00    +0.000 C 
ATOM      9  C   UNL     1       0.124  14.118  19.243  0.00  0.00    +0.000 C 
ATOM     10  N   UNL     1       0.876  13.204  18.363  0.00  0.00    +0.000 NA
ATOM     11  C   UNL     1       0.114  11.946  18.166  0.00  0.00    +0.000 C 
ENDROOT
BRANCH   3  12
ATOM     12  C   UNL     1       1.711   7.585  20.014  0.00  0.00    +0.000 A 
ATOM     13  C   UNL     1       1.506   6.501  20.848  0.00  0.00    +0.000 A 
ATOM     14  N   UNL     1       2.266   5.454  20.397  0.00  0.00    +0.000 N 
ATOM     15  C   UNL     1       2.331   4.153  21.024  0.00  0.00    +0.000 C 
ATOM     16  C   UNL     1       2.966   5.822  19.269  0.00  0.00    +0.000 A 
ATOM     17  C   UNL     1       3.863   5.094  18.468  0.00  0.00    +0.000 A 
ATOM     18  C   UNL     1       4.439   5.737  17.371  0.00  0.00    +0.000 A 
ATOM     19  C   UNL     1       4.142   7.064  17.086  0.00  0.00    +0.000 A 
ATOM     20  C   UNL     1       3.259   7.783  17.898  0.00  0.00    +0.000 A 
ATOM     21  C   UNL     1       2.641   7.158  19.006  0.00  0.00    +0.000 A 
ENDBRANCH   3  12
BRANCH   1  23
ATOM     22  C   UNL     1      -1.571  10.924  23.426  0.00  0.00    +0.000 C 
ATOM     23  O   UNL     1      -0.211  10.798  23.034  0.00  0.00    +0.000 OA
ENDBRANCH   1  23
BRANCH  10  24
ATOM     24  C   UNL     1       2.258  12.933  18.804  0.00  0.00    +0.000 C 
BRANCH  24  25
ATOM     25  C   UNL     1       3.147  14.145  18.928  0.00  0.00    +0.000 A 
ATOM     26  C   UNL     1       3.389  14.988  17.836  0.00  0.00    +0.000 A 
ATOM     27  C   UNL     1       4.153  16.139  18.004  0.00  0.00    +0.000 A 
ATOM     28  C   UNL     1       4.656  16.411  19.265  0.00  0.00    +0.000 A 
ATOM     29  N   UNL     1       4.456  15.618  20.341  0.00  0.00    +0.000 NA
ATOM     30  C   UNL     1       3.709  14.505  20.147  0.00  0.00    +0.000 A 
ENDBRANCH  24  25
ENDBRANCH  10  24
TORSDOF 4
ENDMDL
