MODEL 1
REMARK VINA RESULT:      -8.9      0.000      0.000
REMARK  Name = 
REMARK  4 active torsions:
REMARK  status: ('A' for Active; 'I' for Inactive)
REMARK    1  A    between atoms: C_2  and  C_21
REMARK    2  A    between atoms: N_3  and  C_4
REMARK    3  A    between atoms: C_7  and  O_8
REMARK    4  A    between atoms: O_8  and  C_9
REMARK                            x       y       z     vdW  Elec       q    Type
REMARK                         _______ _______ _______ _____ _____    ______ ____
ROOT
ATOM      1  C   UNL     1       6.693   7.348  17.217  0.00  0.00    +0.000 A 
ATOM      2  C   UNL     1       7.335   6.108  17.234  0.00  0.00    +0.000 A 
ATOM      3  C   UNL     1       6.601   4.922  17.129  0.00  0.00    +0.000 A 
ATOM      4  C   UNL     1       5.216   4.966  17.002  0.00  0.00    +0.000 A 
ATOM      5  C   UNL     1       4.570   6.205  16.952  0.00  0.00    +0.000 A 
ATOM      6  C   UNL     1       5.300   7.387  17.105  0.00  0.00    +0.000 A 
ENDROOT
BRANCH   1   9
ATOM      7  O   UNL     1       8.788   8.149  19.106  0.00  0.00    +0.000 OA
ATOM      8  C   UNL     1       8.352   8.896  18.236  0.00  0.00    +0.000 C 
ATOM      9  N   UNL     1       7.378   8.579  17.304  0.00  0.00    +0.000 N 
ATOM     10  H   UNL     1       7.161   9.255  16.586  0.00  0.00    +0.000 HD
BRANCH   8  11
ATOM     11  C   UNL     1       8.914  10.274  18.170  0.00  0.00    +0.000 A 
ATOM     12  C   UNL     1      10.184  10.610  18.657  0.00  0.00    +0.000 A 
ATOM     13  C   UNL     1      10.643  11.930  18.557  0.00  0.00    +0.000 A 
ATOM     14  C   UNL     1       9.829  12.908  17.983  0.00  0.00    +0.000 A 
ATOM     15 BR   UNL     1      10.457  14.686  17.840  0.00  0.00    +0.000 Br
ATOM     16  C   UNL     1       8.557  12.589  17.519  0.00  0.00    +0.000 A 
ATOM     17  C   UNL     1       8.100  11.275  17.618  0.00  0.00    +0.000 A 
ENDBRANCH   8  11
ENDBRANCH   1   9
BRANCH   4  18
ATOM     18  O   UNL     1       4.575   3.753  16.881  0.00  0.00    +0.000 OA
BRANCH  18  19
ATOM     19  C   UNL     1       3.527   3.465  17.715  0.00  0.00    +0.000 A 
ATOM     20  C   UNL     1       2.186   3.793  17.460  0.00  0.00    +0.000 A 
ATOM     21  C   UNL     1       1.157   3.411  18.347  0.00  0.00    +0.000 A 
ATOM     22  C   UNL     1       1.445   2.744  19.539  0.00  0.00    +0.000 A 
ATOM     23  C   UNL     1       2.772   2.497  19.804  0.00  0.00    +0.000 A 
ATOM     24  N   UNL     1       3.351   1.900  20.918  0.00  0.00    +0.000 N 
ATOM     25  C   UNL     1       4.742   1.884  20.749  0.00  0.00    +0.000 A 
ATOM     26  O   UNL     1       5.561   1.450  21.539  0.00  0.00    +0.000 OA
ATOM     27  N   UNL     1       5.002   2.466  19.501  0.00  0.00    +0.000 N 
ATOM     28  C   UNL     1       3.792   2.849  18.920  0.00  0.00    +0.000 A 
ATOM     29  H   UNL     1       2.881   1.548  21.737  0.00  0.00    +0.000 HD
ATOM     30  H   UNL     1       5.922   2.603  19.117  0.00  0.00    +0.000 HD
ENDBRANCH  18  19
ENDBRANCH   4  18
TORSDOF 4
ENDMDL
MODEL 2
REMARK VINA RESULT:      -8.8      7.177      8.511
REMARK  Name = 
REMARK  4 active torsions:
REMARK  status: ('A' for Active; 'I' for Inactive)
REMARK    1  A    between atoms: C_2  and  C_21
REMARK    2  A    between atoms: N_3  and  C_4
REMARK    3  A    between atoms: C_7  and  O_8
REMARK    4  A    between atoms: O_8  and  C_9
REMARK                            x       y       z     vdW  Elec       q    Type
REMARK                         _______ _______ _______ _____ _____    ______ ____
ROOT
ATOM      1  C   UNL     1       0.472   9.564  19.636  0.00  0.00    +0.000 A 
ATOM      2  C   UNL     1       0.905   9.780  18.326  0.00  0.00    +0.000 A 
ATOM      3  C   UNL     1       1.950   9.024  17.785  0.00  0.00    +0.000 A 
ATOM      4  C   UNL     1       2.570   8.041  18.550  0.00  0.00    +0.000 A 
ATOM      5  C   UNL     1       2.121   7.797  19.851  0.00  0.00    +0.000 A 
ATOM      6  C   UNL     1       1.108   8.586  20.406  0.00  0.00    +0.000 A 
ENDROOT
BRANCH   1   9
ATOM      7  O   UNL     1       0.614  11.801  21.527  0.00  0.00    +0.000 OA
ATOM      8  C   UNL     1      -0.446  11.324  21.135  0.00  0.00    +0.000 C 
ATOM      9  N   UNL     1      -0.586  10.283  20.233  0.00  0.00    +0.000 N 
ATOM     10  H   UNL     1      -1.515  10.034  19.926  0.00  0.00    +0.000 HD
BRANCH   8  11
ATOM     11  C   UNL     1      -1.704  11.913  21.673  0.00  0.00    +0.000 A 
ATOM     12  C   UNL     1      -2.610  12.639  20.889  0.00  0.00    +0.000 A 
ATOM     13  C   UNL     1      -3.773  13.161  21.469  0.00  0.00    +0.000 A 
ATOM     14  C   UNL     1      -4.021  12.965  22.828  0.00  0.00    +0.000 A 
ATOM     15 BR   UNL     1      -5.598  13.662  23.605  0.00  0.00    +0.000 Br
ATOM     16  C   UNL     1      -3.116  12.266  23.621  0.00  0.00    +0.000 A 
ATOM     17  C   UNL     1      -1.958  11.746  23.043  0.00  0.00    +0.000 A 
ENDBRANCH   8  11
ENDBRANCH   1   9
BRANCH   4  18
ATOM     18  O   UNL     1       3.574   7.329  17.932  0.00  0.00    +0.000 OA
BRANCH  18  19
ATOM     19  C   UNL     1       3.410   5.985  17.724  0.00  0.00    +0.000 A 
ATOM     20  C   UNL     1       2.213   5.281  17.936  0.00  0.00    +0.000 A 
ATOM     21  C   UNL     1       2.112   3.904  17.645  0.00  0.00    +0.000 A 
ATOM     22  C   UNL     1       3.216   3.181  17.191  0.00  0.00    +0.000 A 
ATOM     23  C   UNL     1       4.397   3.874  17.059  0.00  0.00    +0.000 A 
ATOM     24  N   UNL     1       5.651   3.412  16.677  0.00  0.00    +0.000 N 
ATOM     25  C   UNL     1       6.555   4.483  16.708  0.00  0.00    +0.000 A 
ATOM     26  O   UNL     1       7.744   4.433  16.447  0.00  0.00    +0.000 OA
ATOM     27  N   UNL     1       5.825   5.614  17.098  0.00  0.00    +0.000 N 
ATOM     28  C   UNL     1       4.498   5.241  17.321  0.00  0.00    +0.000 A 
ATOM     29  H   UNL     1       5.907   2.469  16.434  0.00  0.00    +0.000 HD
ATOM     30  H   UNL     1       6.219   6.532  17.222  0.00  0.00    +0.000 HD
ENDBRANCH  18  19
ENDBRANCH   4  18
TORSDOF 4
ENDMDL
MODEL 3
REMARK VINA RESULT:      -8.7      7.322      8.510
REMARK  Name = 
REMARK  4 active torsions:
REMARK  status: ('A' for Active; 'I' for Inactive)
REMARK    1  A    between atoms: C_2  and  C_21
REMARK    2  A    between atoms: N_3  and  C_4
REMARK    3  A    between atoms: C_7  and  O_8
REMARK    4  A    between atoms: O_8  and  C_9
REMARK                            x       y       z     vdW  Elec       q    Type
REMARK                         _______ _______ _______ _____ _____    ______ ____
ROOT
ATOM      1  C   UNL     1       0.278   9.722  19.707  0.00  0.00    +0.000 A 
ATOM      2  C   UNL     1       0.611   9.888  18.361  0.00  0.00    +0.000 A 
ATOM      3  C   UNL     1       1.632   9.130  17.779  0.00  0.00    +0.000 A 
ATOM      4  C   UNL     1       2.329   8.195  18.539  0.00  0.00    +0.000 A 
ATOM      5  C   UNL     1       1.979   8.001  19.878  0.00  0.00    +0.000 A 
ATOM      6  C   UNL     1       0.990   8.793  20.470  0.00  0.00    +0.000 A 
ENDROOT
BRANCH   1   9
ATOM      7  O   UNL     1       0.505  11.827  21.736  0.00  0.00    +0.000 OA
ATOM      8  C   UNL     1      -0.572  11.420  21.313  0.00  0.00    +0.000 C 
ATOM      9  N   UNL     1      -0.752  10.444  20.347  0.00  0.00    +0.000 N 
ATOM     10  H   UNL     1      -1.690  10.253  20.025  0.00  0.00    +0.000 HD
BRANCH   8  11
ATOM     11  C   UNL     1      -1.807  12.025  21.887  0.00  0.00    +0.000 A 
ATOM     12  C   UNL     1      -2.174  11.891  23.232  0.00  0.00    +0.000 A 
ATOM     13  C   UNL     1      -3.352  12.491  23.697  0.00  0.00    +0.000 A 
ATOM     14  C   UNL     1      -4.161  13.210  22.816  0.00  0.00    +0.000 A 
ATOM     15 BR   UNL     1      -5.744  14.027  23.450  0.00  0.00    +0.000 Br
ATOM     16  C   UNL     1      -3.818  13.327  21.473  0.00  0.00    +0.000 A 
ATOM     17  C   UNL     1      -2.645  12.731  21.010  0.00  0.00    +0.000 A 
ENDBRANCH   8  11
ENDBRANCH   1   9
BRANCH   4  18
ATOM     18  O   UNL     1       3.303   7.477  17.881  0.00  0.00    +0.000 OA
BRANCH  18  19
ATOM     19  C   UNL     1       3.286   6.109  17.949  0.00  0.00    +0.000 A 
ATOM     20  C   UNL     1       2.128   5.317  17.880  0.00  0.00    +0.000 A 
ATOM     21  C   UNL     1       2.202   3.909  17.903  0.00  0.00    +0.000 A 
ATOM     22  C   UNL     1       3.426   3.255  18.055  0.00  0.00    +0.000 A 
ATOM     23  C   UNL     1       4.539   4.050  18.194  0.00  0.00    +0.000 A 
ATOM     24  N   UNL     1       5.863   3.683  18.403  0.00  0.00    +0.000 N 
ATOM     25  C   UNL     1       6.643   4.843  18.502  0.00  0.00    +0.000 A 
ATOM     26  O   UNL     1       7.844   4.892  18.701  0.00  0.00    +0.000 OA
ATOM     27  N   UNL     1       5.773   5.928  18.330  0.00  0.00    +0.000 N 
ATOM     28  C   UNL     1       4.477   5.443  18.146  0.00  0.00    +0.000 A 
ATOM     29  H   UNL     1       6.232   2.750  18.496  0.00  0.00    +0.000 HD
ATOM     30  H   UNL     1       6.052   6.894  18.367  0.00  0.00    +0.000 HD
ENDBRANCH  18  19
ENDBRANCH   4  18
TORSDOF 4
ENDMDL
MODEL 4
REMARK VINA RESULT:      -8.7      6.970      7.849
REMARK  Name = 
REMARK  4 active torsions:
REMARK  status: ('A' for Active; 'I' for Inactive)
REMARK    1  A    between atoms: C_2  and  C_21
REMARK    2  A    between atoms: N_3  and  C_4
REMARK    3  A    between atoms: C_7  and  O_8
REMARK    4  A    between atoms: O_8  and  C_9
REMARK                            x       y       z     vdW  Elec       q    Type
REMARK                         _______ _______ _______ _____ _____    ______ ____
ROOT
ATOM      1  C   UNL     1       0.757   9.727  19.809  0.00  0.00    +0.000 A 
ATOM      2  C   UNL     1       0.963   9.902  18.439  0.00  0.00    +0.000 A 
ATOM      3  C   UNL     1       1.735   8.993  17.710  0.00  0.00    +0.000 A 
ATOM      4  C   UNL     1       2.308   7.895  18.346  0.00  0.00    +0.000 A 
ATOM      5  C   UNL     1       2.079   7.695  19.711  0.00  0.00    +0.000 A 
ATOM      6  C   UNL     1       1.347   8.632  20.447  0.00  0.00    +0.000 A 
ENDROOT
BRANCH   1   9
ATOM      7  O   UNL     1       1.583  12.170  21.205  0.00  0.00    +0.000 OA
ATOM      8  C   UNL     1       0.437  11.735  21.242  0.00  0.00    +0.000 C 
ATOM      9  N   UNL     1      -0.025  10.600  20.595  0.00  0.00    +0.000 N 
ATOM     10  H   UNL     1      -1.011  10.390  20.638  0.00  0.00    +0.000 HD
BRANCH   8  11
ATOM     11  C   UNL     1      -0.557  12.489  22.056  0.00  0.00    +0.000 A 
ATOM     12  C   UNL     1      -0.421  13.847  22.370  0.00  0.00    +0.000 A 
ATOM     13  C   UNL     1      -1.400  14.487  23.141  0.00  0.00    +0.000 A 
ATOM     14  C   UNL     1      -2.503  13.766  23.603  0.00  0.00    +0.000 A 
ATOM     15 BR   UNL     1      -3.828  14.635  24.633  0.00  0.00    +0.000 Br
ATOM     16  C   UNL     1      -2.635  12.410  23.316  0.00  0.00    +0.000 A 
ATOM     17  C   UNL     1      -1.660  11.774  22.549  0.00  0.00    +0.000 A 
ENDBRANCH   8  11
ENDBRANCH   1   9
BRANCH   4  18
ATOM     18  O   UNL     1       3.034   7.038  17.548  0.00  0.00    +0.000 OA
BRANCH  18  19
ATOM     19  C   UNL     1       3.082   5.707  17.869  0.00  0.00    +0.000 A 
ATOM     20  C   UNL     1       1.970   4.851  17.909  0.00  0.00    +0.000 A 
ATOM     21  C   UNL     1       2.113   3.477  18.196  0.00  0.00    +0.000 A 
ATOM     22  C   UNL     1       3.360   2.933  18.507  0.00  0.00    +0.000 A 
ATOM     23  C   UNL     1       4.425   3.803  18.533  0.00  0.00    +0.000 A 
ATOM     24  N   UNL     1       5.756   3.556  18.850  0.00  0.00    +0.000 N 
ATOM     25  C   UNL     1       6.472   4.757  18.759  0.00  0.00    +0.000 A 
ATOM     26  O   UNL     1       7.658   4.911  18.985  0.00  0.00    +0.000 OA
ATOM     27  N   UNL     1       5.556   5.741  18.360  0.00  0.00    +0.000 N 
ATOM     28  C   UNL     1       4.295   5.157  18.226  0.00  0.00    +0.000 A 
ATOM     29  H   UNL     1       6.166   2.679  19.127  0.00  0.00    +0.000 HD
ATOM     30  H   UNL     1       5.785   6.712  18.226  0.00  0.00    +0.000 HD
ENDBRANCH  18  19
ENDBRANCH   4  18
TORSDOF 4
ENDMDL
MODEL 5
REMARK VINA RESULT:      -8.7      7.245      8.501
REMARK  Name = 
REMARK  4 active torsions:
REMARK  status: ('A' for Active; 'I' for Inactive)
REMARK    1  A    between atoms: C_2  and  C_21
REMARK    2  A    between atoms: N_3  and  C_4
REMARK    3  A    between atoms: C_7  and  O_8
REMARK    4  A    between atoms: O_8  and  C_9
REMARK                            x       y       z     vdW  Elec       q    Type
REMARK                         _______ _______ _______ _____ _____    ______ ____
ROOT
ATOM      1  C   UNL     1       0.358   9.534  19.784  0.00  0.00    +0.000 A 
ATOM      2  C   UNL     1       1.113   8.585  20.476  0.00  0.00    +0.000 A 
ATOM      3  C   UNL     1       2.135   7.879  19.835  0.00  0.00    +0.000 A 
ATOM      4  C   UNL     1       2.414   8.119  18.492  0.00  0.00    +0.000 A 
ATOM      5  C   UNL     1       1.684   9.090  17.802  0.00  0.00    +0.000 A 
ATOM      6  C   UNL     1       0.631   9.760  18.432  0.00  0.00    +0.000 A 
ENDROOT
BRANCH   1   9
ATOM      7  O   UNL     1       0.562  11.635  21.819  0.00  0.00    +0.000 OA
ATOM      8  C   UNL     1      -0.508  11.261  21.351  0.00  0.00    +0.000 C 
ATOM      9  N   UNL     1      -0.676  10.289  20.379  0.00  0.00    +0.000 N 
ATOM     10  H   UNL     1      -1.604  10.127  20.016  0.00  0.00    +0.000 HD
BRANCH   8  11
ATOM     11  C   UNL     1      -1.747  11.905  21.871  0.00  0.00    +0.000 A 
ATOM     12  C   UNL     1      -2.137  11.848  23.215  0.00  0.00    +0.000 A 
ATOM     13  C   UNL     1      -3.317  12.480  23.627  0.00  0.00    +0.000 A 
ATOM     14  C   UNL     1      -4.106  13.156  22.695  0.00  0.00    +0.000 A 
ATOM     15 BR   UNL     1      -5.692  14.018  23.257  0.00  0.00    +0.000 Br
ATOM     16  C   UNL     1      -3.740  13.198  21.353  0.00  0.00    +0.000 A 
ATOM     17  C   UNL     1      -2.565  12.568  20.943  0.00  0.00    +0.000 A 
ENDBRANCH   8  11
ENDBRANCH   1   9
BRANCH   4  18
ATOM     18  O   UNL     1       3.452   7.396  17.946  0.00  0.00    +0.000 OA
BRANCH  18  19
ATOM     19  C   UNL     1       3.298   6.049  17.753  0.00  0.00    +0.000 A 
ATOM     20  C   UNL     1       2.099   5.343  17.941  0.00  0.00    +0.000 A 
ATOM     21  C   UNL     1       2.010   3.962  17.666  0.00  0.00    +0.000 A 
ATOM     22  C   UNL     1       3.130   3.238  17.253  0.00  0.00    +0.000 A 
ATOM     23  C   UNL     1       4.311   3.933  17.145  0.00  0.00    +0.000 A 
ATOM     24  N   UNL     1       5.577   3.471  16.805  0.00  0.00    +0.000 N 
ATOM     25  C   UNL     1       6.477   4.545  16.847  0.00  0.00    +0.000 A 
ATOM     26  O   UNL     1       7.672   4.496  16.621  0.00  0.00    +0.000 OA
ATOM     27  N   UNL     1       5.732   5.679  17.201  0.00  0.00    +0.000 N 
ATOM     28  C   UNL     1       4.401   5.304  17.391  0.00  0.00    +0.000 A 
ATOM     29  H   UNL     1       5.844   2.525  16.583  0.00  0.00    +0.000 HD
ATOM     30  H   UNL     1       6.119   6.600  17.323  0.00  0.00    +0.000 HD
ENDBRANCH  18  19
ENDBRANCH   4  18
TORSDOF 4
ENDMDL
MODEL 6
REMARK VINA RESULT:      -8.7      6.988      7.855
REMARK  Name = 
REMARK  4 active torsions:
REMARK  status: ('A' for Active; 'I' for Inactive)
REMARK    1  A    between atoms: C_2  and  C_21
REMARK    2  A    between atoms: N_3  and  C_4
REMARK    3  A    between atoms: C_7  and  O_8
REMARK    4  A    between atoms: O_8  and  C_9
REMARK                            x       y       z     vdW  Elec       q    Type
REMARK                         _______ _______ _______ _____ _____    ______ ____
ROOT
ATOM      1  C   UNL     1       0.718   9.590  19.971  0.00  0.00    +0.000 A 
ATOM      2  C   UNL     1       1.382   8.474  20.486  0.00  0.00    +0.000 A 
ATOM      3  C   UNL     1       2.163   7.663  19.657  0.00  0.00    +0.000 A 
ATOM      4  C   UNL     1       2.289   7.962  18.304  0.00  0.00    +0.000 A 
ATOM      5  C   UNL     1       1.653   9.095  17.788  0.00  0.00    +0.000 A 
ATOM      6  C   UNL     1       0.835   9.878  18.608  0.00  0.00    +0.000 A 
ENDROOT
BRANCH   1   9
ATOM      7  O   UNL     1       1.478  12.129  21.226  0.00  0.00    +0.000 OA
ATOM      8  C   UNL     1       0.359  11.638  21.336  0.00  0.00    +0.000 C 
ATOM      9  N   UNL     1      -0.072  10.456  20.758  0.00  0.00    +0.000 N 
ATOM     10  H   UNL     1      -1.043  10.198  20.856  0.00  0.00    +0.000 HD
BRANCH   8  11
ATOM     11  C   UNL     1      -0.635  12.376  22.165  0.00  0.00    +0.000 A 
ATOM     12  C   UNL     1      -1.793  11.782  22.684  0.00  0.00    +0.000 A 
ATOM     13  C   UNL     1      -2.680  12.543  23.457  0.00  0.00    +0.000 A 
ATOM     14  C   UNL     1      -2.413  13.891  23.699  0.00  0.00    +0.000 A 
ATOM     15 BR   UNL     1      -3.607  14.911  24.751  0.00  0.00    +0.000 Br
ATOM     16  C   UNL     1      -1.278  14.496  23.166  0.00  0.00    +0.000 A 
ATOM     17  C   UNL     1      -0.395  13.739  22.397  0.00  0.00    +0.000 A 
ENDBRANCH   8  11
ENDBRANCH   1   9
BRANCH   4  18
ATOM     18  O   UNL     1       3.095   7.123  17.566  0.00  0.00    +0.000 OA
BRANCH  18  19
ATOM     19  C   UNL     1       3.114   5.785  17.861  0.00  0.00    +0.000 A 
ATOM     20  C   UNL     1       1.979   4.960  17.917  0.00  0.00    +0.000 A 
ATOM     21  C   UNL     1       2.090   3.578  18.174  0.00  0.00    +0.000 A 
ATOM     22  C   UNL     1       3.329   2.993  18.440  0.00  0.00    +0.000 A 
ATOM     23  C   UNL     1       4.419   3.831  18.452  0.00  0.00    +0.000 A 
ATOM     24  N   UNL     1       5.750   3.541  18.727  0.00  0.00    +0.000 N 
ATOM     25  C   UNL     1       6.498   4.723  18.637  0.00  0.00    +0.000 A 
ATOM     26  O   UNL     1       7.694   4.838  18.832  0.00  0.00    +0.000 OA
ATOM     27  N   UNL     1       5.601   5.740  18.282  0.00  0.00    +0.000 N 
ATOM     28  C   UNL     1       4.320   5.194  18.173  0.00  0.00    +0.000 A 
ATOM     29  H   UNL     1       6.142   2.647  18.976  0.00  0.00    +0.000 HD
ATOM     30  H   UNL     1       5.854   6.706  18.160  0.00  0.00    +0.000 HD
ENDBRANCH  18  19
ENDBRANCH   4  18
TORSDOF 4
ENDMDL
MODEL 7
REMARK VINA RESULT:      -8.7      5.833      7.271
REMARK  Name = 
REMARK  4 active torsions:
REMARK  status: ('A' for Active; 'I' for Inactive)
REMARK    1  A    between atoms: C_2  and  C_21
REMARK    2  A    between atoms: N_3  and  C_4
REMARK    3  A    between atoms: C_7  and  O_8
REMARK    4  A    between atoms: O_8  and  C_9
REMARK                            x       y       z     vdW  Elec       q    Type
REMARK                         _______ _______ _______ _____ _____    ______ ____
ROOT
ATOM      1  C   UNL     1       1.771   7.766  20.031  0.00  0.00    +0.000 A 
ATOM      2  C   UNL     1       1.817   6.551  20.717  0.00  0.00    +0.000 A 
ATOM      3  C   UNL     1       2.336   5.405  20.106  0.00  0.00    +0.000 A 
ATOM      4  C   UNL     1       2.817   5.466  18.801  0.00  0.00    +0.000 A 
ATOM      5  C   UNL     1       2.803   6.686  18.120  0.00  0.00    +0.000 A 
ATOM      6  C   UNL     1       2.240   7.819  18.715  0.00  0.00    +0.000 A 
ENDROOT
BRANCH   1   9
ATOM      7  O   UNL     1      -0.669   8.169  21.608  0.00  0.00    +0.000 OA
ATOM      8  C   UNL     1       0.100   9.081  21.322  0.00  0.00    +0.000 C 
ATOM      9  N   UNL     1       1.274   8.960  20.598  0.00  0.00    +0.000 N 
ATOM     10  H   UNL     1       1.863   9.773  20.497  0.00  0.00    +0.000 HD
BRANCH   8  11
ATOM     11  C   UNL     1      -0.255  10.450  21.792  0.00  0.00    +0.000 A 
ATOM     12  C   UNL     1      -1.123  10.693  22.864  0.00  0.00    +0.000 A 
ATOM     13  C   UNL     1      -1.407  12.011  23.247  0.00  0.00    +0.000 A 
ATOM     14  C   UNL     1      -0.832  13.076  22.554  0.00  0.00    +0.000 A 
ATOM     15 BR   UNL     1      -1.208  14.852  23.081  0.00  0.00    +0.000 Br
ATOM     16  C   UNL     1       0.013  12.845  21.472  0.00  0.00    +0.000 A 
ATOM     17  C   UNL     1       0.296  11.534  21.091  0.00  0.00    +0.000 A 
ENDBRANCH   8  11
ENDBRANCH   1   9
BRANCH   4  18
ATOM     18  O   UNL     1       3.331   4.296  18.286  0.00  0.00    +0.000 OA
BRANCH  18  19
ATOM     19  C   UNL     1       4.467   4.345  17.521  0.00  0.00    +0.000 A 
ATOM     20  C   UNL     1       4.521   4.065  16.146  0.00  0.00    +0.000 A 
ATOM     21  C   UNL     1       5.723   4.192  15.419  0.00  0.00    +0.000 A 
ATOM     22  C   UNL     1       6.914   4.545  16.055  0.00  0.00    +0.000 A 
ATOM     23  C   UNL     1       6.854   4.744  17.415  0.00  0.00    +0.000 A 
ATOM     24  N   UNL     1       7.875   5.054  18.305  0.00  0.00    +0.000 N 
ATOM     25  C   UNL     1       7.337   5.140  19.597  0.00  0.00    +0.000 A 
ATOM     26  O   UNL     1       7.951   5.379  20.621  0.00  0.00    +0.000 OA
ATOM     27  N   UNL     1       5.963   4.894  19.476  0.00  0.00    +0.000 N 
ATOM     28  C   UNL     1       5.664   4.645  18.136  0.00  0.00    +0.000 A 
ATOM     29  H   UNL     1       8.852   5.180  18.095  0.00  0.00    +0.000 HD
ATOM     30  H   UNL     1       5.317   4.876  20.248  0.00  0.00    +0.000 HD
ENDBRANCH  18  19
ENDBRANCH   4  18
TORSDOF 4
ENDMDL
MODEL 8
REMARK VINA RESULT:      -8.7      6.227      7.800
REMARK  Name = 
REMARK  4 active torsions:
REMARK  status: ('A' for Active; 'I' for Inactive)
REMARK    1  A    between atoms: C_2  and  C_21
REMARK    2  A    between atoms: N_3  and  C_4
REMARK    3  A    between atoms: C_7  and  O_8
REMARK    4  A    between atoms: O_8  and  C_9
REMARK                            x       y       z     vdW  Elec       q    Type
REMARK                         _______ _______ _______ _____ _____    ______ ____
ROOT
ATOM      1  C   UNL     1       1.527   8.292  19.727  0.00  0.00    +0.000 A 
ATOM      2  C   UNL     1       2.187   8.363  18.499  0.00  0.00    +0.000 A 
ATOM      3  C   UNL     1       2.905   7.267  18.010  0.00  0.00    +0.000 A 
ATOM      4  C   UNL     1       2.965   6.086  18.745  0.00  0.00    +0.000 A 
ATOM      5  C   UNL     1       2.280   5.997  19.960  0.00  0.00    +0.000 A 
ATOM      6  C   UNL     1       1.603   7.110  20.470  0.00  0.00    +0.000 A 
ENDROOT
BRANCH   1   9
ATOM      7  O   UNL     1       1.624   9.416  22.434  0.00  0.00    +0.000 OA
ATOM      8  C   UNL     1       0.861   9.828  21.567  0.00  0.00    +0.000 C 
ATOM      9  N   UNL     1       0.774   9.357  20.267  0.00  0.00    +0.000 N 
ATOM     10  H   UNL     1       0.162   9.834  19.622  0.00  0.00    +0.000 HD
BRANCH   8  11
ATOM     11  C   UNL     1      -0.062  10.938  21.936  0.00  0.00    +0.000 A 
ATOM     12  C   UNL     1       0.011  12.218  21.369  0.00  0.00    +0.000 A 
ATOM     13  C   UNL     1      -0.895  13.210  21.768  0.00  0.00    +0.000 A 
ATOM     14  C   UNL     1      -1.859  12.923  22.736  0.00  0.00    +0.000 A 
ATOM     15 BR   UNL     1      -3.086  14.261  23.264  0.00  0.00    +0.000 Br
ATOM     16  C   UNL     1      -1.923  11.663  23.323  0.00  0.00    +0.000 A 
ATOM     17  C   UNL     1      -1.022  10.675  22.925  0.00  0.00    +0.000 A 
ENDBRANCH   8  11
ENDBRANCH   1   9
BRANCH   4  18
ATOM     18  O   UNL     1       3.675   5.050  18.177  0.00  0.00    +0.000 OA
BRANCH  18  19
ATOM     19  C   UNL     1       5.044   5.077  18.217  0.00  0.00    +0.000 A 
ATOM     20  C   UNL     1       5.807   5.437  19.340  0.00  0.00    +0.000 A 
ATOM     21  C   UNL     1       7.216   5.386  19.314  0.00  0.00    +0.000 A 
ATOM     22  C   UNL     1       7.902   5.032  18.152  0.00  0.00    +0.000 A 
ATOM     23  C   UNL     1       7.138   4.754  17.043  0.00  0.00    +0.000 A 
ATOM     24  N   UNL     1       7.543   4.423  15.755  0.00  0.00    +0.000 N 
ATOM     25  C   UNL     1       6.405   4.248  14.955  0.00  0.00    +0.000 A 
ATOM     26  O   UNL     1       6.391   3.969  13.770  0.00  0.00    +0.000 OA
ATOM     27  N   UNL     1       5.295   4.461  15.784  0.00  0.00    +0.000 N 
ATOM     28  C   UNL     1       5.743   4.778  17.067  0.00  0.00    +0.000 A 
ATOM     29  H   UNL     1       8.487   4.337  15.414  0.00  0.00    +0.000 HD
ATOM     30  H   UNL     1       4.338   4.416  15.477  0.00  0.00    +0.000 HD
ENDBRANCH  18  19
ENDBRANCH   4  18
TORSDOF 4
ENDMDL
MODEL 9
REMARK VINA RESULT:      -8.6      0.682      1.334
REMARK  Name = 
REMARK  4 active torsions:
REMARK  status: ('A' for Active; 'I' for Inactive)
REMARK    1  A    between atoms: C_2  and  C_21
REMARK    2  A    between atoms: N_3  and  C_4
REMARK    3  A    between atoms: C_7  and  O_8
REMARK    4  A    between atoms: O_8  and  C_9
REMARK                            x       y       z     vdW  Elec       q    Type
REMARK                         _______ _______ _______ _____ _____    ______ ____
ROOT
ATOM      1  C   UNL     1       6.672   7.397  17.303  0.00  0.00    +0.000 A 
ATOM      2  C   UNL     1       5.276   7.381  17.327  0.00  0.00    +0.000 A 
ATOM      3  C   UNL     1       4.571   6.196  17.095  0.00  0.00    +0.000 A 
ATOM      4  C   UNL     1       5.258   5.012  16.841  0.00  0.00    +0.000 A 
ATOM      5  C   UNL     1       6.656   5.015  16.847  0.00  0.00    +0.000 A 
ATOM      6  C   UNL     1       7.358   6.210  17.031  0.00  0.00    +0.000 A 
ENDROOT
BRANCH   1   9
ATOM      7  O   UNL     1       8.817   7.800  19.262  0.00  0.00    +0.000 OA
ATOM      8  C   UNL     1       8.433   8.682  18.502  0.00  0.00    +0.000 C 
ATOM      9  N   UNL     1       7.440   8.557  17.544  0.00  0.00    +0.000 N 
ATOM     10  H   UNL     1       7.269   9.335  16.923  0.00  0.00    +0.000 HD
BRANCH   8  11
ATOM     11  C   UNL     1       9.088  10.016  18.611  0.00  0.00    +0.000 A 
ATOM     12  C   UNL     1       9.495  10.766  17.500  0.00  0.00    +0.000 A 
ATOM     13  C   UNL     1      10.104  12.014  17.685  0.00  0.00    +0.000 A 
ATOM     14  C   UNL     1      10.313  12.502  18.976  0.00  0.00    +0.000 A 
ATOM     15 BR   UNL     1      11.125  14.191  19.222  0.00  0.00    +0.000 Br
ATOM     16  C   UNL     1       9.934  11.753  20.087  0.00  0.00    +0.000 A 
ATOM     17  C   UNL     1       9.327  10.511  19.902  0.00  0.00    +0.000 A 
ENDBRANCH   8  11
ENDBRANCH   1   9
BRANCH   4  18
ATOM     18  O   UNL     1       4.486   3.888  16.646  0.00  0.00    +0.000 OA
BRANCH  18  19
ATOM     19  C   UNL     1       3.442   3.639  17.498  0.00  0.00    +0.000 A 
ATOM     20  C   UNL     1       2.110   4.019  17.267  0.00  0.00    +0.000 A 
ATOM     21  C   UNL     1       1.083   3.676  18.171  0.00  0.00    +0.000 A 
ATOM     22  C   UNL     1       1.366   2.996  19.357  0.00  0.00    +0.000 A 
ATOM     23  C   UNL     1       2.687   2.698  19.598  0.00  0.00    +0.000 A 
ATOM     24  N   UNL     1       3.261   2.077  20.702  0.00  0.00    +0.000 N 
ATOM     25  C   UNL     1       4.648   2.007  20.509  0.00  0.00    +0.000 A 
ATOM     26  O   UNL     1       5.463   1.540  21.284  0.00  0.00    +0.000 OA
ATOM     27  N   UNL     1       4.909   2.581  19.257  0.00  0.00    +0.000 N 
ATOM     28  C   UNL     1       3.704   3.012  18.697  0.00  0.00    +0.000 A 
ATOM     29  H   UNL     1       2.793   1.742  21.528  0.00  0.00    +0.000 HD
ATOM     30  H   UNL     1       5.826   2.683  18.857  0.00  0.00    +0.000 HD
ENDBRANCH  18  19
ENDBRANCH   4  18
TORSDOF 4
ENDMDL
