MODEL 1
REMARK VINA RESULT:      -7.8      0.000      0.000
REMARK  Name = 
REMARK  6 active torsions:
REMARK  status: ('A' for Active; 'I' for Inactive)
REMARK    1  A    between atoms: C_1  and  C_2
REMARK    2  A    between atoms: C_9  and  C_11
REMARK    3  A    between atoms: C_11  and  C_12
REMARK    4  A    between atoms: C_12  and  N_13
REMARK    5  A    between atoms: C_12  and  C_14
REMARK    6  A    between atoms: C_14  and  C_15
REMARK                            x       y       z     vdW  Elec       q    Type
REMARK                         _______ _______ _______ _____ _____    ______ ____
ROOT
ATOM      1  C   UNL     1       7.088   7.692  17.090  0.00  0.00    +0.000 C 
ENDROOT
BRANCH   1  10
ATOM      2  C   UNL     1       1.740   2.794  21.513  0.00  0.00    +0.000 C 
ATOM      3  C   UNL     1       2.651   3.541  20.601  0.00  0.00    +0.000 A 
ATOM      4  N   UNL     1       2.532   4.824  20.316  0.00  0.00    +0.000 NA
ATOM      5  C   UNL     1       3.518   5.184  19.423  0.00  0.00    +0.000 A 
ATOM      6  C   UNL     1       4.379   4.176  19.042  0.00  0.00    +0.000 A 
ATOM      7  S   UNL     1       3.951   2.720  19.816  0.00  0.00    +0.000 S 
ATOM      8  C   UNL     1       5.495   4.310  18.054  0.00  0.00    +0.000 C 
ATOM      9  N   UNL     1       5.653   5.732  17.678  0.00  0.00    +0.000 N 
ATOM     10  C   UNL     1       6.938   6.231  17.501  0.00  0.00    +0.000 C 
ATOM     11  O   UNL     1       7.930   5.519  17.658  0.00  0.00    +0.000 OA
ATOM     12  C   UNL     1       4.394   6.502  17.535  0.00  0.00    +0.000 C 
ATOM     13  C   UNL     1       3.636   6.565  18.876  0.00  0.00    +0.000 C 
ENDBRANCH   1  10
BRANCH   1  14
ATOM     14  C   UNL     1       8.203   8.466  17.839  0.00  0.00    +0.000 C 
BRANCH  14  15
ATOM     15  N   UNL     1       8.559   7.662  19.032  0.00  0.00    +0.000 NA
ATOM     16  H   UNL     1       7.958   7.930  19.814  0.00  0.00    +0.000 HD
ATOM     17  H   UNL     1       9.501   7.917  19.335  0.00  0.00    +0.000 HD
ENDBRANCH  14  15
BRANCH  14  18
ATOM     18  C   UNL     1       7.803   9.907  18.255  0.00  0.00    +0.000 C 
BRANCH  18  19
ATOM     19  C   UNL     1       8.947  10.906  18.247  0.00  0.00    +0.000 A 
ATOM     20  C   UNL     1      10.146  10.632  18.921  0.00  0.00    +0.000 A 
ATOM     21  C   UNL     1      11.190  11.560  18.902  0.00  0.00    +0.000 A 
ATOM     22  F   UNL     1      12.333  11.278  19.541  0.00  0.00    +0.000 F 
ATOM     23  C   UNL     1      11.068  12.770  18.229  0.00  0.00    +0.000 A 
ATOM     24  C   UNL     1       9.884  13.055  17.554  0.00  0.00    +0.000 A 
ATOM     25  C   UNL     1       8.841  12.127  17.566  0.00  0.00    +0.000 A 
ATOM     26  F   UNL     1       7.712  12.425  16.907  0.00  0.00    +0.000 F 
ENDBRANCH  18  19
ENDBRANCH  14  18
ENDBRANCH   1  14
TORSDOF 5
ENDMDL
MODEL 2
REMARK VINA RESULT:      -7.7      5.219      7.495
REMARK  Name = 
REMARK  6 active torsions:
REMARK  status: ('A' for Active; 'I' for Inactive)
REMARK    1  A    between atoms: C_1  and  C_2
REMARK    2  A    between atoms: C_9  and  C_11
REMARK    3  A    between atoms: C_11  and  C_12
REMARK    4  A    between atoms: C_12  and  N_13
REMARK    5  A    between atoms: C_12  and  C_14
REMARK    6  A    between atoms: C_14  and  C_15
REMARK                            x       y       z     vdW  Elec       q    Type
REMARK                         _______ _______ _______ _____ _____    ______ ____
ROOT
ATOM      1  C   UNL     1       3.441   4.806  20.088  0.00  0.00    +0.000 C 
ENDROOT
BRANCH   1  10
ATOM      2  C   UNL     1       7.993   5.379  12.939  0.00  0.00    +0.000 C 
ATOM      3  C   UNL     1       7.219   5.102  14.181  0.00  0.00    +0.000 A 
ATOM      4  N   UNL     1       7.483   5.637  15.359  0.00  0.00    +0.000 NA
ATOM      5  C   UNL     1       6.594   5.145  16.290  0.00  0.00    +0.000 A 
ATOM      6  C   UNL     1       5.661   4.248  15.813  0.00  0.00    +0.000 A 
ATOM      7  S   UNL     1       5.893   3.997  14.145  0.00  0.00    +0.000 S 
ATOM      8  C   UNL     1       4.626   3.547  16.636  0.00  0.00    +0.000 C 
ATOM      9  N   UNL     1       4.635   4.094  18.010  0.00  0.00    +0.000 N 
ATOM     10  C   UNL     1       3.419   4.264  18.662  0.00  0.00    +0.000 C 
ATOM     11  O   UNL     1       2.353   3.977  18.118  0.00  0.00    +0.000 OA
ATOM     12  C   UNL     1       5.971   4.424  18.561  0.00  0.00    +0.000 C 
ATOM     13  C   UNL     1       6.649   5.530  17.728  0.00  0.00    +0.000 C 
ENDBRANCH   1  10
BRANCH   1  14
ATOM     14  C   UNL     1       2.303   5.802  20.421  0.00  0.00    +0.000 C 
BRANCH  14  15
ATOM     15  N   UNL     1       1.031   5.044  20.355  0.00  0.00    +0.000 NA
ATOM     16  H   UNL     1       0.423   5.461  19.648  0.00  0.00    +0.000 HD
ATOM     17  H   UNL     1       0.525   5.168  21.233  0.00  0.00    +0.000 HD
ENDBRANCH  14  15
BRANCH  14  18
ATOM     18  C   UNL     1       2.247   7.037  19.480  0.00  0.00    +0.000 C 
BRANCH  18  19
ATOM     19  C   UNL     1       1.575   8.259  20.083  0.00  0.00    +0.000 A 
ATOM     20  C   UNL     1       1.342   8.344  21.464  0.00  0.00    +0.000 A 
ATOM     21  C   UNL     1       0.726   9.475  22.003  0.00  0.00    +0.000 A 
ATOM     22  F   UNL     1       0.520   9.547  23.325  0.00  0.00    +0.000 F 
ATOM     23  C   UNL     1       0.324  10.533  21.195  0.00  0.00    +0.000 A 
ATOM     24  C   UNL     1       0.551  10.463  19.823  0.00  0.00    +0.000 A 
ATOM     25  C   UNL     1       1.172   9.336  19.281  0.00  0.00    +0.000 A 
ATOM     26  F   UNL     1       1.380   9.294  17.958  0.00  0.00    +0.000 F 
ENDBRANCH  18  19
ENDBRANCH  14  18
ENDBRANCH   1  14
TORSDOF 5
ENDMDL
MODEL 3
REMARK VINA RESULT:      -7.5      1.249      1.476
REMARK  Name = 
REMARK  6 active torsions:
REMARK  status: ('A' for Active; 'I' for Inactive)
REMARK    1  A    between atoms: C_1  and  C_2
REMARK    2  A    between atoms: C_9  and  C_11
REMARK    3  A    between atoms: C_11  and  C_12
REMARK    4  A    between atoms: C_12  and  N_13
REMARK    5  A    between atoms: C_12  and  C_14
REMARK    6  A    between atoms: C_14  and  C_15
REMARK                            x       y       z     vdW  Elec       q    Type
REMARK                         _______ _______ _______ _____ _____    ______ ____
ROOT
ATOM      1  C   UNL     1       7.130   7.929  17.225  0.00  0.00    +0.000 C 
ENDROOT
BRANCH   1  10
ATOM      2  C   UNL     1       1.465   2.845  20.994  0.00  0.00    +0.000 C 
ATOM      3  C   UNL     1       2.451   3.623  20.195  0.00  0.00    +0.000 A 
ATOM      4  N   UNL     1       2.323   4.901  19.893  0.00  0.00    +0.000 NA
ATOM      5  C   UNL     1       3.396   5.296  19.123  0.00  0.00    +0.000 A 
ATOM      6  C   UNL     1       4.331   4.319  18.852  0.00  0.00    +0.000 A 
ATOM      7  S   UNL     1       3.865   2.849  19.575  0.00  0.00    +0.000 S 
ATOM      8  C   UNL     1       5.552   4.493  18.005  0.00  0.00    +0.000 C 
ATOM      9  N   UNL     1       5.704   5.919  17.645  0.00  0.00    +0.000 N 
ATOM     10  C   UNL     1       6.983   6.463  17.621  0.00  0.00    +0.000 C 
ATOM     11  O   UNL     1       7.973   5.787  17.899  0.00  0.00    +0.000 OA
ATOM     12  C   UNL     1       4.445   6.644  17.348  0.00  0.00    +0.000 C 
ATOM     13  C   UNL     1       3.530   6.680  18.589  0.00  0.00    +0.000 C 
ENDBRANCH   1  10
BRANCH   1  14
ATOM     14  C   UNL     1       8.357   8.647  17.840  0.00  0.00    +0.000 C 
BRANCH  14  15
ATOM     15  N   UNL     1       8.655   7.970  19.124  0.00  0.00    +0.000 NA
ATOM     16  H   UNL     1       9.604   8.206  19.421  0.00  0.00    +0.000 HD
ATOM     17  H   UNL     1       8.679   6.960  18.969  0.00  0.00    +0.000 HD
ENDBRANCH  14  15
BRANCH  14  18
ATOM     18  C   UNL     1       8.153  10.170  18.066  0.00  0.00    +0.000 C 
BRANCH  18  19
ATOM     19  C   UNL     1       9.255  10.843  18.866  0.00  0.00    +0.000 A 
ATOM     20  C   UNL     1       9.059  11.189  20.211  0.00  0.00    +0.000 A 
ATOM     21  C   UNL     1      10.083  11.805  20.933  0.00  0.00    +0.000 A 
ATOM     22  F   UNL     1       9.885  12.119  22.220  0.00  0.00    +0.000 F 
ATOM     23  C   UNL     1      11.308  12.095  20.344  0.00  0.00    +0.000 A 
ATOM     24  C   UNL     1      11.518  11.755  19.010  0.00  0.00    +0.000 A 
ATOM     25  C   UNL     1      10.498  11.134  18.287  0.00  0.00    +0.000 A 
ATOM     26  F   UNL     1      10.726  10.817  17.004  0.00  0.00    +0.000 F 
ENDBRANCH  18  19
ENDBRANCH  14  18
ENDBRANCH   1  14
TORSDOF 5
ENDMDL
MODEL 4
REMARK VINA RESULT:      -7.5      6.143      8.305
REMARK  Name = 
REMARK  6 active torsions:
REMARK  status: ('A' for Active; 'I' for Inactive)
REMARK    1  A    between atoms: C_1  and  C_2
REMARK    2  A    between atoms: C_9  and  C_11
REMARK    3  A    between atoms: C_11  and  C_12
REMARK    4  A    between atoms: C_12  and  N_13
REMARK    5  A    between atoms: C_12  and  C_14
REMARK    6  A    between atoms: C_14  and  C_15
REMARK                            x       y       z     vdW  Elec       q    Type
REMARK                         _______ _______ _______ _____ _____    ______ ____
ROOT
ATOM      1  C   UNL     1       4.248   5.938  17.326  0.00  0.00    +0.000 C 
ENDROOT
BRANCH   1  10
ATOM      2  C   UNL     1      -0.163  11.926  21.429  0.00  0.00    +0.000 C 
ATOM      3  C   UNL     1       0.489  10.760  20.771  0.00  0.00    +0.000 A 
ATOM      4  N   UNL     1       0.750  10.684  19.480  0.00  0.00    +0.000 NA
ATOM      5  C   UNL     1       1.328   9.463  19.205  0.00  0.00    +0.000 A 
ATOM      6  C   UNL     1       1.507   8.627  20.287  0.00  0.00    +0.000 A 
ATOM      7  S   UNL     1       0.932   9.377  21.704  0.00  0.00    +0.000 S 
ATOM      8  C   UNL     1       2.069   7.241  20.234  0.00  0.00    +0.000 C 
ATOM      9  N   UNL     1       2.573   6.965  18.872  0.00  0.00    +0.000 N 
ATOM     10  C   UNL     1       3.750   6.238  18.737  0.00  0.00    +0.000 C 
ATOM     11  O   UNL     1       4.371   5.835  19.719  0.00  0.00    +0.000 OA
ATOM     12  C   UNL     1       1.757   7.514  17.762  0.00  0.00    +0.000 C 
ATOM     13  C   UNL     1       1.712   9.054  17.825  0.00  0.00    +0.000 C 
ENDBRANCH   1  10
BRANCH   1  14
ATOM     14  C   UNL     1       4.709   4.477  17.099  0.00  0.00    +0.000 C 
BRANCH  14  15
ATOM     15  N   UNL     1       5.472   4.457  15.828  0.00  0.00    +0.000 NA
ATOM     16  H   UNL     1       4.841   4.655  15.049  0.00  0.00    +0.000 HD
ATOM     17  H   UNL     1       5.802   3.506  15.654  0.00  0.00    +0.000 HD
ENDBRANCH  14  15
BRANCH  14  18
ATOM     18  C   UNL     1       3.548   3.447  17.049  0.00  0.00    +0.000 C 
BRANCH  18  19
ATOM     19  C   UNL     1       2.795   3.282  18.358  0.00  0.00    +0.000 A 
ATOM     20  C   UNL     1       3.421   2.722  19.482  0.00  0.00    +0.000 A 
ATOM     21  C   UNL     1       2.716   2.580  20.679  0.00  0.00    +0.000 A 
ATOM     22  F   UNL     1       3.331   2.054  21.747  0.00  0.00    +0.000 F 
ATOM     23  C   UNL     1       1.389   2.977  20.787  0.00  0.00    +0.000 A 
ATOM     24  C   UNL     1       0.755   3.535  19.680  0.00  0.00    +0.000 A 
ATOM     25  C   UNL     1       1.458   3.685  18.484  0.00  0.00    +0.000 A 
ATOM     26  F   UNL     1       0.826   4.226  17.433  0.00  0.00    +0.000 F 
ENDBRANCH  18  19
ENDBRANCH  14  18
ENDBRANCH   1  14
TORSDOF 5
ENDMDL
MODEL 5
REMARK VINA RESULT:      -7.4      6.850      9.924
REMARK  Name = 
REMARK  6 active torsions:
REMARK  status: ('A' for Active; 'I' for Inactive)
REMARK    1  A    between atoms: C_1  and  C_2
REMARK    2  A    between atoms: C_9  and  C_11
REMARK    3  A    between atoms: C_11  and  C_12
REMARK    4  A    between atoms: C_12  and  N_13
REMARK    5  A    between atoms: C_12  and  C_14
REMARK    6  A    between atoms: C_14  and  C_15
REMARK                            x       y       z     vdW  Elec       q    Type
REMARK                         _______ _______ _______ _____ _____    ______ ____
ROOT
ATOM      1  C   UNL     1      -0.175   9.113  21.375  0.00  0.00    +0.000 C 
ENDROOT
BRANCH   1  10
ATOM      2  C   UNL     1       3.388  16.015  17.936  0.00  0.00    +0.000 C 
ATOM      3  C   UNL     1       2.606  14.888  18.516  0.00  0.00    +0.000 A 
ATOM      4  N   UNL     1       2.661  13.642  18.083  0.00  0.00    +0.000 NA
ATOM      5  C   UNL     1       1.795  12.866  18.822  0.00  0.00    +0.000 A 
ATOM      6  C   UNL     1       1.095  13.524  19.811  0.00  0.00    +0.000 A 
ATOM      7  S   UNL     1       1.521  15.173  19.828  0.00  0.00    +0.000 S 
ATOM      8  C   UNL     1       0.068  12.908  20.709  0.00  0.00    +0.000 C 
ATOM      9  N   UNL     1       0.043  11.445  20.499  0.00  0.00    +0.000 N 
ATOM     10  C   UNL     1      -0.127  10.621  21.605  0.00  0.00    +0.000 C 
ATOM     11  O   UNL     1      -0.248  11.085  22.739  0.00  0.00    +0.000 OA
ATOM     12  C   UNL     1       0.217  10.994  19.098  0.00  0.00    +0.000 C 
ATOM     13  C   UNL     1       1.599  11.413  18.556  0.00  0.00    +0.000 C 
ENDBRANCH   1  10
BRANCH   1  14
ATOM     14  C   UNL     1       1.156   8.371  21.652  0.00  0.00    +0.000 C 
BRANCH  14  15
ATOM     15  N   UNL     1       1.931   9.211  22.596  0.00  0.00    +0.000 NA
ATOM     16  H   UNL     1       1.725  10.197  22.421  0.00  0.00    +0.000 HD
ATOM     17  H   UNL     1       2.926   9.116  22.384  0.00  0.00    +0.000 HD
ENDBRANCH  14  15
BRANCH  14  18
ATOM     18  C   UNL     1       1.993   8.074  20.378  0.00  0.00    +0.000 C 
BRANCH  18  19
ATOM     19  C   UNL     1       1.921   6.635  19.897  0.00  0.00    +0.000 A 
ATOM     20  C   UNL     1       1.501   5.610  20.757  0.00  0.00    +0.000 A 
ATOM     21  C   UNL     1       1.438   4.292  20.299  0.00  0.00    +0.000 A 
ATOM     22  F   UNL     1       1.024   3.325  21.128  0.00  0.00    +0.000 F 
ATOM     23  C   UNL     1       1.792   3.963  18.995  0.00  0.00    +0.000 A 
ATOM     24  C   UNL     1       2.209   4.971  18.130  0.00  0.00    +0.000 A 
ATOM     25  C   UNL     1       2.267   6.290  18.583  0.00  0.00    +0.000 A 
ATOM     26  F   UNL     1       2.671   7.242  17.729  0.00  0.00    +0.000 F 
ENDBRANCH  18  19
ENDBRANCH  14  18
ENDBRANCH   1  14
TORSDOF 5
ENDMDL
MODEL 6
REMARK VINA RESULT:      -7.3      5.779      8.860
REMARK  Name = 
REMARK  6 active torsions:
REMARK  status: ('A' for Active; 'I' for Inactive)
REMARK    1  A    between atoms: C_1  and  C_2
REMARK    2  A    between atoms: C_9  and  C_11
REMARK    3  A    between atoms: C_11  and  C_12
REMARK    4  A    between atoms: C_12  and  N_13
REMARK    5  A    between atoms: C_12  and  C_14
REMARK    6  A    between atoms: C_14  and  C_15
REMARK                            x       y       z     vdW  Elec       q    Type
REMARK                         _______ _______ _______ _____ _____    ______ ____
ROOT
ATOM      1  C   UNL     1       3.224   7.504  17.738  0.00  0.00    +0.000 C 
ENDROOT
BRANCH   1  10
ATOM      2  C   UNL     1      -0.311  13.811  22.197  0.00  0.00    +0.000 C 
ATOM      3  C   UNL     1       0.144  12.636  21.403  0.00  0.00    +0.000 A 
ATOM      4  N   UNL     1       0.809  12.717  20.266  0.00  0.00    +0.000 NA
ATOM      5  C   UNL     1       1.047  11.446  19.788  0.00  0.00    +0.000 A 
ATOM      6  C   UNL     1       0.568  10.413  20.566  0.00  0.00    +0.000 A 
ATOM      7  S   UNL     1      -0.213  11.036  21.945  0.00  0.00    +0.000 S 
ATOM      8  C   UNL     1       0.663   8.957  20.236  0.00  0.00    +0.000 C 
ATOM      9  N   UNL     1       1.507   8.778  19.035  0.00  0.00    +0.000 N 
ATOM     10  C   UNL     1       2.375   7.694  18.992  0.00  0.00    +0.000 C 
ATOM     11  O   UNL     1       2.455   6.898  19.928  0.00  0.00    +0.000 OA
ATOM     12  C   UNL     1       1.344   9.804  17.977  0.00  0.00    +0.000 C 
ATOM     13  C   UNL     1       1.750  11.197  18.499  0.00  0.00    +0.000 C 
ENDBRANCH   1  10
BRANCH   1  14
ATOM     14  C   UNL     1       4.326   6.422  17.858  0.00  0.00    +0.000 C 
BRANCH  14  15
ATOM     15  N   UNL     1       5.549   6.981  17.235  0.00  0.00    +0.000 NA
ATOM     16  H   UNL     1       5.638   6.626  16.281  0.00  0.00    +0.000 HD
ATOM     17  H   UNL     1       6.368   6.612  17.722  0.00  0.00    +0.000 HD
ENDBRANCH  14  15
BRANCH  14  18
ATOM     18  C   UNL     1       3.955   5.065  17.201  0.00  0.00    +0.000 C 
BRANCH  18  19
ATOM     19  C   UNL     1       3.285   4.074  18.137  0.00  0.00    +0.000 A 
ATOM     20  C   UNL     1       1.968   3.648  17.910  0.00  0.00    +0.000 A 
ATOM     21  C   UNL     1       1.366   2.735  18.779  0.00  0.00    +0.000 A 
ATOM     22  F   UNL     1       0.112   2.328  18.542  0.00  0.00    +0.000 F 
ATOM     23  C   UNL     1       2.045   2.234  19.883  0.00  0.00    +0.000 A 
ATOM     24  C   UNL     1       3.354   2.646  20.120  0.00  0.00    +0.000 A 
ATOM     25  C   UNL     1       3.960   3.555  19.250  0.00  0.00    +0.000 A 
ATOM     26  F   UNL     1       5.221   3.935  19.500  0.00  0.00    +0.000 F 
ENDBRANCH  18  19
ENDBRANCH  14  18
ENDBRANCH   1  14
TORSDOF 5
ENDMDL
MODEL 7
REMARK VINA RESULT:      -7.3      5.320      7.499
REMARK  Name = 
REMARK  6 active torsions:
REMARK  status: ('A' for Active; 'I' for Inactive)
REMARK    1  A    between atoms: C_1  and  C_2
REMARK    2  A    between atoms: C_9  and  C_11
REMARK    3  A    between atoms: C_11  and  C_12
REMARK    4  A    between atoms: C_12  and  N_13
REMARK    5  A    between atoms: C_12  and  C_14
REMARK    6  A    between atoms: C_14  and  C_15
REMARK                            x       y       z     vdW  Elec       q    Type
REMARK                         _______ _______ _______ _____ _____    ______ ____
ROOT
ATOM      1  C   UNL     1       2.854   7.281  19.342  0.00  0.00    +0.000 C 
ENDROOT
BRANCH   1  10
ATOM      2  C   UNL     1      -0.296  15.170  19.362  0.00  0.00    +0.000 C 
ATOM      3  C   UNL     1       0.093  13.734  19.309  0.00  0.00    +0.000 A 
ATOM      4  N   UNL     1       1.089  13.257  18.587  0.00  0.00    +0.000 NA
ATOM      5  C   UNL     1       1.154  11.890  18.748  0.00  0.00    +0.000 A 
ATOM      6  C   UNL     1       0.213  11.341  19.594  0.00  0.00    +0.000 A 
ATOM      7  S   UNL     1      -0.798  12.563  20.213  0.00  0.00    +0.000 S 
ATOM      8  C   UNL     1       0.054   9.883  19.891  0.00  0.00    +0.000 C 
ATOM      9  N   UNL     1       1.172   9.130  19.282  0.00  0.00    +0.000 N 
ATOM     10  C   UNL     1       1.717   8.066  19.990  0.00  0.00    +0.000 C 
ATOM     11  O   UNL     1       1.293   7.752  21.103  0.00  0.00    +0.000 OA
ATOM     12  C   UNL     1       1.616   9.606  17.950  0.00  0.00    +0.000 C 
ATOM     13  C   UNL     1       2.155  11.048  18.035  0.00  0.00    +0.000 C 
ENDBRANCH   1  10
BRANCH   1  14
ATOM     14  C   UNL     1       2.599   5.759  19.211  0.00  0.00    +0.000 C 
BRANCH  14  15
ATOM     15  N   UNL     1       2.716   5.182  20.572  0.00  0.00    +0.000 NA
ATOM     16  H   UNL     1       3.703   5.057  20.804  0.00  0.00    +0.000 HD
ATOM     17  H   UNL     1       2.333   4.236  20.565  0.00  0.00    +0.000 HD
ENDBRANCH  14  15
BRANCH  14  18
ATOM     18  C   UNL     1       3.564   5.037  18.232  0.00  0.00    +0.000 C 
BRANCH  18  19
ATOM     19  C   UNL     1       4.975   5.599  18.209  0.00  0.00    +0.000 A 
ATOM     20  C   UNL     1       5.913   5.226  19.182  0.00  0.00    +0.000 A 
ATOM     21  C   UNL     1       7.208   5.750  19.146  0.00  0.00    +0.000 A 
ATOM     22  F   UNL     1       8.096   5.375  20.076  0.00  0.00    +0.000 F 
ATOM     23  C   UNL     1       7.595   6.650  18.160  0.00  0.00    +0.000 A 
ATOM     24  C   UNL     1       6.674   7.027  17.186  0.00  0.00    +0.000 A 
ATOM     25  C   UNL     1       5.382   6.501  17.216  0.00  0.00    +0.000 A 
ATOM     26  F   UNL     1       4.515   6.880  16.266  0.00  0.00    +0.000 F 
ENDBRANCH  18  19
ENDBRANCH  14  18
ENDBRANCH   1  14
TORSDOF 5
ENDMDL
MODEL 8
REMARK VINA RESULT:      -7.3      6.430      9.369
REMARK  Name = 
REMARK  6 active torsions:
REMARK  status: ('A' for Active; 'I' for Inactive)
REMARK    1  A    between atoms: C_1  and  C_2
REMARK    2  A    between atoms: C_9  and  C_11
REMARK    3  A    between atoms: C_11  and  C_12
REMARK    4  A    between atoms: C_12  and  N_13
REMARK    5  A    between atoms: C_12  and  C_14
REMARK    6  A    between atoms: C_14  and  C_15
REMARK                            x       y       z     vdW  Elec       q    Type
REMARK                         _______ _______ _______ _____ _____    ______ ____
ROOT
ATOM      1  C   UNL     1       1.886   7.260  19.457  0.00  0.00    +0.000 C 
ENDROOT
BRANCH   1  10
ATOM      2  C   UNL     1      -2.794  13.066  23.524  0.00  0.00    +0.000 C 
ATOM      3  C   UNL     1      -1.843  12.170  22.810  0.00  0.00    +0.000 A 
ATOM      4  N   UNL     1      -1.495  10.968  23.228  0.00  0.00    +0.000 NA
ATOM      5  C   UNL     1      -0.581  10.428  22.348  0.00  0.00    +0.000 A 
ATOM      6  C   UNL     1      -0.248  11.219  21.269  0.00  0.00    +0.000 A 
ATOM      7  S   UNL     1      -1.095  12.695  21.345  0.00  0.00    +0.000 S 
ATOM      8  C   UNL     1       0.750  10.872  20.209  0.00  0.00    +0.000 C 
ATOM      9  N   UNL     1       1.196   9.474  20.390  0.00  0.00    +0.000 N 
ATOM     10  C   UNL     1       1.402   8.693  19.259  0.00  0.00    +0.000 C 
ATOM     11  O   UNL     1       1.214   9.140  18.128  0.00  0.00    +0.000 OA
ATOM     12  C   UNL     1       1.373   9.034  21.795  0.00  0.00    +0.000 C 
ATOM     13  C   UNL     1       0.034   9.087  22.558  0.00  0.00    +0.000 C 
ENDBRANCH   1  10
BRANCH   1  14
ATOM     14  C   UNL     1       3.380   7.027  19.118  0.00  0.00    +0.000 C 
BRANCH  14  15
ATOM     15  N   UNL     1       3.549   7.333  17.678  0.00  0.00    +0.000 NA
ATOM     16  H   UNL     1       2.631   7.429  17.241  0.00  0.00    +0.000 HD
ATOM     17  H   UNL     1       3.970   6.525  17.215  0.00  0.00    +0.000 HD
ENDBRANCH  14  15
BRANCH  14  18
ATOM     18  C   UNL     1       3.884   5.592  19.430  0.00  0.00    +0.000 C 
BRANCH  18  19
ATOM     19  C   UNL     1       2.788   4.543  19.515  0.00  0.00    +0.000 A 
ATOM     20  C   UNL     1       2.329   4.081  20.757  0.00  0.00    +0.000 A 
ATOM     21  C   UNL     1       1.319   3.119  20.819  0.00  0.00    +0.000 A 
ATOM     22  F   UNL     1       0.884   2.696  22.013  0.00  0.00    +0.000 F 
ATOM     23  C   UNL     1       0.752   2.593  19.664  0.00  0.00    +0.000 A 
ATOM     24  C   UNL     1       1.196   3.044  18.424  0.00  0.00    +0.000 A 
ATOM     25  C   UNL     1       2.201   4.010  18.359  0.00  0.00    +0.000 A 
ATOM     26  F   UNL     1       2.610   4.427  17.152  0.00  0.00    +0.000 F 
ENDBRANCH  18  19
ENDBRANCH  14  18
ENDBRANCH   1  14
TORSDOF 5
ENDMDL
MODEL 9
REMARK VINA RESULT:      -7.3      5.627      8.373
REMARK  Name = 
REMARK  6 active torsions:
REMARK  status: ('A' for Active; 'I' for Inactive)
REMARK    1  A    between atoms: C_1  and  C_2
REMARK    2  A    between atoms: C_9  and  C_11
REMARK    3  A    between atoms: C_11  and  C_12
REMARK    4  A    between atoms: C_12  and  N_13
REMARK    5  A    between atoms: C_12  and  C_14
REMARK    6  A    between atoms: C_14  and  C_15
REMARK                            x       y       z     vdW  Elec       q    Type
REMARK                         _______ _______ _______ _____ _____    ______ ____
ROOT
ATOM      1  C   UNL     1       3.950   6.961  17.364  0.00  0.00    +0.000 C 
ENDROOT
BRANCH   1  10
ATOM      2  C   UNL     1      -0.597  12.223  22.241  0.00  0.00    +0.000 C 
ATOM      3  C   UNL     1       0.066  11.184  21.405  0.00  0.00    +0.000 A 
ATOM      4  N   UNL     1       0.480  11.376  20.167  0.00  0.00    +0.000 NA
ATOM      5  C   UNL     1       1.019  10.205  19.682  0.00  0.00    +0.000 A 
ATOM      6  C   UNL     1       1.017   9.137  20.554  0.00  0.00    +0.000 A 
ATOM      7  S   UNL     1       0.314   9.596  22.036  0.00  0.00    +0.000 S 
ATOM      8  C   UNL     1       1.504   7.756  20.243  0.00  0.00    +0.000 C 
ATOM      9  N   UNL     1       2.156   7.751  18.916  0.00  0.00    +0.000 N 
ATOM     10  C   UNL     1       3.299   6.979  18.744  0.00  0.00    +0.000 C 
ATOM     11  O   UNL     1       3.772   6.318  19.668  0.00  0.00    +0.000 OA
ATOM     12  C   UNL     1       1.515   8.598  17.882  0.00  0.00    +0.000 C 
ATOM     13  C   UNL     1       1.547  10.083  18.294  0.00  0.00    +0.000 C 
ENDBRANCH   1  10
BRANCH   1  14
ATOM     14  C   UNL     1       4.966   5.813  17.141  0.00  0.00    +0.000 C 
BRANCH  14  15
ATOM     15  N   UNL     1       5.969   6.306  16.167  0.00  0.00    +0.000 NA
ATOM     16  H   UNL     1       6.808   6.608  16.666  0.00  0.00    +0.000 HD
ATOM     17  H   UNL     1       5.613   7.157  15.727  0.00  0.00    +0.000 HD
ENDBRANCH  14  15
BRANCH  14  18
ATOM     18  C   UNL     1       4.326   4.491  16.637  0.00  0.00    +0.000 C 
BRANCH  18  19
ATOM     19  C   UNL     1       3.597   3.696  17.707  0.00  0.00    +0.000 A 
ATOM     20  C   UNL     1       2.233   3.396  17.575  0.00  0.00    +0.000 A 
ATOM     21  C   UNL     1       1.577   2.662  18.566  0.00  0.00    +0.000 A 
ATOM     22  F   UNL     1       0.277   2.374  18.420  0.00  0.00    +0.000 F 
ATOM     23  C   UNL     1       2.248   2.220  19.700  0.00  0.00    +0.000 A 
ATOM     24  C   UNL     1       3.602   2.509  19.843  0.00  0.00    +0.000 A 
ATOM     25  C   UNL     1       4.263   3.237  18.852  0.00  0.00    +0.000 A 
ATOM     26  F   UNL     1       5.567   3.501  19.014  0.00  0.00    +0.000 F 
ENDBRANCH  18  19
ENDBRANCH  14  18
ENDBRANCH   1  14
TORSDOF 5
ENDMDL
