MODEL 1
REMARK VINA RESULT:      -7.6      0.000      0.000
REMARK  Name = 
REMARK  10 active torsions:
REMARK  status: ('A' for Active; 'I' for Inactive)
REMARK    1  A    between atoms: C_1  and  C_2
REMARK    2  A    between atoms: C_2  and  C_3
REMARK    3  A    between atoms: C_6  and  C_7
REMARK    4  A    between atoms: C_7  and  N_8
REMARK    5  A    between atoms: N_8  and  C_9
REMARK    6  A    between atoms: C_9  and  C_10
REMARK    7  A    between atoms: C_15  and  C_17
REMARK    8  A    between atoms: C_17  and  O_18
REMARK    9  A    between atoms: O_18  and  C_19
REMARK   10  A    between atoms: C_25  and  C_26
REMARK                            x       y       z     vdW  Elec       q    Type
REMARK                         _______ _______ _______ _____ _____    ______ ____
ROOT
ATOM      1  N   UNL     1       3.683   5.365  18.167  0.00  0.00    +0.000 N 
ATOM      2  C   UNL     1       3.482   6.719  17.937  0.00  0.00    +0.000 C 
ATOM      3  O   UNL     1       4.430   7.485  17.718  0.00  0.00    +0.000 OA
ENDROOT
BRANCH   1   4
ATOM      4  C   UNL     1       5.067   4.871  18.284  0.00  0.00    +0.000 C 
BRANCH   4   8
ATOM      5  C   UNL     1       6.736   4.590  14.323  0.00  0.00    +0.000 A 
ATOM      6  C   UNL     1       7.519   5.068  15.382  0.00  0.00    +0.000 A 
ATOM      7  C   UNL     1       7.008   5.100  16.681  0.00  0.00    +0.000 A 
ATOM      8  C   UNL     1       5.718   4.627  16.944  0.00  0.00    +0.000 A 
ATOM      9  C   UNL     1       4.999   4.011  15.909  0.00  0.00    +0.000 A 
ATOM     10  C   UNL     1       5.499   4.003  14.607  0.00  0.00    +0.000 A 
BRANCH   5  12
ATOM     11  C   UNL     1       6.804   3.651  11.969  0.00  0.00    +0.000 C 
ATOM     12  C   UNL     1       7.178   4.790  12.897  0.00  0.00    +0.000 C 
ENDBRANCH   5  12
ENDBRANCH   4   8
ENDBRANCH   1   4
BRANCH   1  13
ATOM     13  C   UNL     1       2.584   4.405  18.210  0.00  0.00    +0.000 C 
BRANCH  13  14
ATOM     14  C   UNL     1       2.288   3.963  19.598  0.00  0.00    +0.000 A 
ATOM     15  C   UNL     1       2.510   4.482  20.858  0.00  0.00    +0.000 A 
ATOM     16  C   UNL     1       1.985   3.542  21.779  0.00  0.00    +0.000 A 
ATOM     17  C   UNL     1       1.486   2.506  21.029  0.00  0.00    +0.000 A 
ATOM     18  O   UNL     1       1.666   2.751  19.707  0.00  0.00    +0.000 OA
ENDBRANCH  13  14
ENDBRANCH   1  13
BRANCH   2  19
ATOM     19  C   UNL     1       2.060   7.296  18.035  0.00  0.00    +0.000 C 
BRANCH  19  20
ATOM     20  O   UNL     1       2.045   8.684  18.321  0.00  0.00    +0.000 OA
BRANCH  20  21
ATOM     21  C   UNL     1       1.328   9.121  19.407  0.00  0.00    +0.000 A 
ATOM     22  C   UNL     1       1.615   8.390  20.572  0.00  0.00    +0.000 A 
ATOM     23  C   UNL     1       0.947   8.635  21.776  0.00  0.00    +0.000 A 
ATOM     24  C   UNL     1      -0.028   9.621  21.824  0.00  0.00    +0.000 A 
ATOM     25 CL   UNL     1      -0.886   9.921  23.285  0.00  0.00    +0.000 Cl
ATOM     26  C   UNL     1      -0.333  10.353  20.679  0.00  0.00    +0.000 A 
ATOM     27  C   UNL     1       0.324  10.109  19.453  0.00  0.00    +0.000 A 
ATOM     28  C   UNL     1      -0.148  10.922  18.281  0.00  0.00    +0.000 C 
ENDBRANCH  20  21
ENDBRANCH  19  20
ENDBRANCH   2  19
TORSDOF 8
ENDMDL
MODEL 2
REMARK VINA RESULT:      -7.5      3.510      7.587
REMARK  Name = 
REMARK  10 active torsions:
REMARK  status: ('A' for Active; 'I' for Inactive)
REMARK    1  A    between atoms: C_1  and  C_2
REMARK    2  A    between atoms: C_2  and  C_3
REMARK    3  A    between atoms: C_6  and  C_7
REMARK    4  A    between atoms: C_7  and  N_8
REMARK    5  A    between atoms: N_8  and  C_9
REMARK    6  A    between atoms: C_9  and  C_10
REMARK    7  A    between atoms: C_15  and  C_17
REMARK    8  A    between atoms: C_17  and  O_18
REMARK    9  A    between atoms: O_18  and  C_19
REMARK   10  A    between atoms: C_25  and  C_26
REMARK                            x       y       z     vdW  Elec       q    Type
REMARK                         _______ _______ _______ _____ _____    ______ ____
ROOT
ATOM      1  N   UNL     1       5.376   4.619  18.417  0.00  0.00    +0.000 N 
ATOM      2  C   UNL     1       6.613   5.183  18.137  0.00  0.00    +0.000 C 
ATOM      3  O   UNL     1       7.086   6.083  18.845  0.00  0.00    +0.000 OA
ENDROOT
BRANCH   1   4
ATOM      4  C   UNL     1       4.564   5.207  19.497  0.00  0.00    +0.000 C 
BRANCH   4   8
ATOM      5  C   UNL     1       2.057   8.494  18.290  0.00  0.00    +0.000 A 
ATOM      6  C   UNL     1       3.003   7.970  17.399  0.00  0.00    +0.000 A 
ATOM      7  C   UNL     1       3.774   6.862  17.758  0.00  0.00    +0.000 A 
ATOM      8  C   UNL     1       3.588   6.246  19.000  0.00  0.00    +0.000 A 
ATOM      9  C   UNL     1       2.537   6.680  19.821  0.00  0.00    +0.000 A 
ATOM     10  C   UNL     1       1.786   7.802  19.475  0.00  0.00    +0.000 A 
BRANCH   5  12
ATOM     11  C   UNL     1       1.022  10.592  19.269  0.00  0.00    +0.000 C 
ATOM     12  C   UNL     1       1.412   9.829  18.019  0.00  0.00    +0.000 C 
ENDBRANCH   5  12
ENDBRANCH   4   8
ENDBRANCH   1   4
BRANCH   1  13
ATOM     13  C   UNL     1       4.890   3.419  17.741  0.00  0.00    +0.000 C 
BRANCH  13  14
ATOM     14  C   UNL     1       3.492   3.093  18.126  0.00  0.00    +0.000 A 
ATOM     15  C   UNL     1       2.244   3.369  17.604  0.00  0.00    +0.000 A 
ATOM     16  C   UNL     1       1.301   2.767  18.474  0.00  0.00    +0.000 A 
ATOM     17  C   UNL     1       2.028   2.171  19.476  0.00  0.00    +0.000 A 
ATOM     18  O   UNL     1       3.356   2.364  19.275  0.00  0.00    +0.000 OA
ENDBRANCH  13  14
ENDBRANCH   1  13
BRANCH   2  19
ATOM     19  C   UNL     1       7.376   4.740  16.879  0.00  0.00    +0.000 C 
BRANCH  19  20
ATOM     20  O   UNL     1       7.124   5.570  15.758  0.00  0.00    +0.000 OA
BRANCH  20  21
ATOM     21  C   UNL     1       6.750   4.978  14.577  0.00  0.00    +0.000 A 
ATOM     22  C   UNL     1       5.563   4.235  14.698  0.00  0.00    +0.000 A 
ATOM     23  C   UNL     1       5.041   3.504  13.627  0.00  0.00    +0.000 A 
ATOM     24  C   UNL     1       5.711   3.506  12.412  0.00  0.00    +0.000 A 
ATOM     25 CL   UNL     1       5.106   2.591  11.087  0.00  0.00    +0.000 Cl
ATOM     26  C   UNL     1       6.893   4.231  12.271  0.00  0.00    +0.000 A 
ATOM     27  C   UNL     1       7.438   4.964  13.348  0.00  0.00    +0.000 A 
ATOM     28  C   UNL     1       8.751   5.645  13.080  0.00  0.00    +0.000 C 
ENDBRANCH  20  21
ENDBRANCH  19  20
ENDBRANCH   2  19
TORSDOF 8
ENDMDL
MODEL 3
REMARK VINA RESULT:      -7.5      2.790      5.696
REMARK  Name = 
REMARK  10 active torsions:
REMARK  status: ('A' for Active; 'I' for Inactive)
REMARK    1  A    between atoms: C_1  and  C_2
REMARK    2  A    between atoms: C_2  and  C_3
REMARK    3  A    between atoms: C_6  and  C_7
REMARK    4  A    between atoms: C_7  and  N_8
REMARK    5  A    between atoms: N_8  and  C_9
REMARK    6  A    between atoms: C_9  and  C_10
REMARK    7  A    between atoms: C_15  and  C_17
REMARK    8  A    between atoms: C_17  and  O_18
REMARK    9  A    between atoms: O_18  and  C_19
REMARK   10  A    between atoms: C_25  and  C_26
REMARK                            x       y       z     vdW  Elec       q    Type
REMARK                         _______ _______ _______ _____ _____    ______ ____
ROOT
ATOM      1  N   UNL     1       5.587   4.399  17.030  0.00  0.00    +0.000 N 
ATOM      2  C   UNL     1       4.880   3.792  18.059  0.00  0.00    +0.000 C 
ATOM      3  O   UNL     1       5.396   3.592  19.167  0.00  0.00    +0.000 OA
ENDROOT
BRANCH   1   4
ATOM      4  C   UNL     1       7.019   4.680  17.233  0.00  0.00    +0.000 C 
BRANCH   4   8
ATOM      5  C   UNL     1       8.156   8.715  18.222  0.00  0.00    +0.000 A 
ATOM      6  C   UNL     1       7.201   8.480  17.224  0.00  0.00    +0.000 A 
ATOM      7  C   UNL     1       6.777   7.180  16.943  0.00  0.00    +0.000 A 
ATOM      8  C   UNL     1       7.281   6.100  17.676  0.00  0.00    +0.000 A 
ATOM      9  C   UNL     1       8.119   6.357  18.771  0.00  0.00    +0.000 A 
ATOM     10  C   UNL     1       8.562   7.652  19.035  0.00  0.00    +0.000 A 
BRANCH   5  12
ATOM     11  C   UNL     1       9.375  10.349  19.730  0.00  0.00    +0.000 C 
ATOM     12  C   UNL     1       8.803  10.069  18.354  0.00  0.00    +0.000 C 
ENDBRANCH   5  12
ENDBRANCH   4   8
ENDBRANCH   1   4
BRANCH   1  13
ATOM     13  C   UNL     1       4.947   4.845  15.795  0.00  0.00    +0.000 C 
BRANCH  13  14
ATOM     14  C   UNL     1       5.770   4.528  14.599  0.00  0.00    +0.000 A 
ATOM     15  C   UNL     1       6.994   4.946  14.115  0.00  0.00    +0.000 A 
ATOM     16  C   UNL     1       7.202   4.256  12.895  0.00  0.00    +0.000 A 
ATOM     17  C   UNL     1       6.092   3.470  12.704  0.00  0.00    +0.000 A 
ATOM     18  O   UNL     1       5.219   3.628  13.730  0.00  0.00    +0.000 OA
ENDBRANCH  13  14
ENDBRANCH   1  13
BRANCH   2  19
ATOM     19  C   UNL     1       3.453   3.285  17.795  0.00  0.00    +0.000 C 
BRANCH  19  20
ATOM     20  O   UNL     1       2.534   4.331  17.530  0.00  0.00    +0.000 OA
BRANCH  20  21
ATOM     21  C   UNL     1       2.202   5.185  18.553  0.00  0.00    +0.000 A 
ATOM     22  C   UNL     1       2.532   6.521  18.269  0.00  0.00    +0.000 A 
ATOM     23  C   UNL     1       2.332   7.541  19.203  0.00  0.00    +0.000 A 
ATOM     24  C   UNL     1       1.800   7.231  20.445  0.00  0.00    +0.000 A 
ATOM     25 CL   UNL     1       1.573   8.463  21.624  0.00  0.00    +0.000 Cl
ATOM     26  C   UNL     1       1.471   5.912  20.751  0.00  0.00    +0.000 A 
ATOM     27  C   UNL     1       1.678   4.869  19.822  0.00  0.00    +0.000 A 
ATOM     28  C   UNL     1       1.344   3.485  20.303  0.00  0.00    +0.000 C 
ENDBRANCH  20  21
ENDBRANCH  19  20
ENDBRANCH   2  19
TORSDOF 8
ENDMDL
MODEL 4
REMARK VINA RESULT:      -7.5      1.179      1.883
REMARK  Name = 
REMARK  10 active torsions:
REMARK  status: ('A' for Active; 'I' for Inactive)
REMARK    1  A    between atoms: C_1  and  C_2
REMARK    2  A    between atoms: C_2  and  C_3
REMARK    3  A    between atoms: C_6  and  C_7
REMARK    4  A    between atoms: C_7  and  N_8
REMARK    5  A    between atoms: N_8  and  C_9
REMARK    6  A    between atoms: C_9  and  C_10
REMARK    7  A    between atoms: C_15  and  C_17
REMARK    8  A    between atoms: C_17  and  O_18
REMARK    9  A    between atoms: O_18  and  C_19
REMARK   10  A    between atoms: C_25  and  C_26
REMARK                            x       y       z     vdW  Elec       q    Type
REMARK                         _______ _______ _______ _____ _____    ______ ____
ROOT
ATOM      1  N   UNL     1       3.587   5.250  17.974  0.00  0.00    +0.000 N 
ATOM      2  C   UNL     1       3.659   6.631  17.860  0.00  0.00    +0.000 C 
ATOM      3  O   UNL     1       4.744   7.210  17.711  0.00  0.00    +0.000 OA
ENDROOT
BRANCH   1   4
ATOM      4  C   UNL     1       4.843   4.485  18.054  0.00  0.00    +0.000 C 
BRANCH   4   8
ATOM      5  C   UNL     1       6.709   4.628  14.175  0.00  0.00    +0.000 A 
ATOM      6  C   UNL     1       7.458   4.916  15.324  0.00  0.00    +0.000 A 
ATOM      7  C   UNL     1       6.879   4.807  16.590  0.00  0.00    +0.000 A 
ATOM      8  C   UNL     1       5.553   4.381  16.726  0.00  0.00    +0.000 A 
ATOM      9  C   UNL     1       4.860   3.950  15.585  0.00  0.00    +0.000 A 
ATOM     10  C   UNL     1       5.429   4.083  14.319  0.00  0.00    +0.000 A 
BRANCH   5  12
ATOM     11  C   UNL     1       8.528   5.784  12.839  0.00  0.00    +0.000 C 
ATOM     12  C   UNL     1       7.239   4.987  12.811  0.00  0.00    +0.000 C 
ENDBRANCH   5  12
ENDBRANCH   4   8
ENDBRANCH   1   4
BRANCH   1  13
ATOM     13  C   UNL     1       2.320   4.525  17.930  0.00  0.00    +0.000 C 
BRANCH  13  14
ATOM     14  C   UNL     1       1.981   3.919  19.244  0.00  0.00    +0.000 A 
ATOM     15  C   UNL     1       1.221   2.844  19.659  0.00  0.00    +0.000 A 
ATOM     16  C   UNL     1       1.300   2.816  21.073  0.00  0.00    +0.000 A 
ATOM     17  C   UNL     1       2.093   3.878  21.435  0.00  0.00    +0.000 A 
ATOM     18  O   UNL     1       2.509   4.553  20.335  0.00  0.00    +0.000 OA
ENDBRANCH  13  14
ENDBRANCH   1  13
BRANCH   2  19
ATOM     19  C   UNL     1       2.377   7.468  18.001  0.00  0.00    +0.000 C 
BRANCH  19  20
ATOM     20  O   UNL     1       2.317   8.187  19.220  0.00  0.00    +0.000 OA
BRANCH  20  21
ATOM     21  C   UNL     1       1.238   9.006  19.444  0.00  0.00    +0.000 A 
ATOM     22  C   UNL     1       0.689   9.513  18.254  0.00  0.00    +0.000 A 
ATOM     23  C   UNL     1      -0.378  10.415  18.263  0.00  0.00    +0.000 A 
ATOM     24  C   UNL     1      -0.910  10.827  19.477  0.00  0.00    +0.000 A 
ATOM     25 CL   UNL     1      -2.203  11.960  19.516  0.00  0.00    +0.000 Cl
ATOM     26  C   UNL     1      -0.377  10.343  20.669  0.00  0.00    +0.000 A 
ATOM     27  C   UNL     1       0.709   9.440  20.676  0.00  0.00    +0.000 A 
ATOM     28  C   UNL     1       1.229   9.049  22.030  0.00  0.00    +0.000 C 
ENDBRANCH  20  21
ENDBRANCH  19  20
ENDBRANCH   2  19
TORSDOF 8
ENDMDL
MODEL 5
REMARK VINA RESULT:      -7.5      1.264      1.751
REMARK  Name = 
REMARK  10 active torsions:
REMARK  status: ('A' for Active; 'I' for Inactive)
REMARK    1  A    between atoms: C_1  and  C_2
REMARK    2  A    between atoms: C_2  and  C_3
REMARK    3  A    between atoms: C_6  and  C_7
REMARK    4  A    between atoms: C_7  and  N_8
REMARK    5  A    between atoms: N_8  and  C_9
REMARK    6  A    between atoms: C_9  and  C_10
REMARK    7  A    between atoms: C_15  and  C_17
REMARK    8  A    between atoms: C_17  and  O_18
REMARK    9  A    between atoms: O_18  and  C_19
REMARK   10  A    between atoms: C_25  and  C_26
REMARK                            x       y       z     vdW  Elec       q    Type
REMARK                         _______ _______ _______ _____ _____    ______ ____
ROOT
ATOM      1  N   UNL     1       4.493   5.679  18.863  0.00  0.00    +0.000 N 
ATOM      2  C   UNL     1       3.743   6.755  18.410  0.00  0.00    +0.000 C 
ATOM      3  O   UNL     1       4.136   7.467  17.476  0.00  0.00    +0.000 OA
ENDROOT
BRANCH   1   4
ATOM      4  C   UNL     1       5.841   5.477  18.304  0.00  0.00    +0.000 C 
BRANCH   4   8
ATOM      5  C   UNL     1       6.068   4.173  14.205  0.00  0.00    +0.000 A 
ATOM      6  C   UNL     1       4.967   3.817  14.994  0.00  0.00    +0.000 A 
ATOM      7  C   UNL     1       4.852   4.291  16.303  0.00  0.00    +0.000 A 
ATOM      8  C   UNL     1       5.822   5.150  16.830  0.00  0.00    +0.000 A 
ATOM      9  C   UNL     1       6.838   5.622  15.987  0.00  0.00    +0.000 A 
ATOM     10  C   UNL     1       6.968   5.129  14.689  0.00  0.00    +0.000 A 
BRANCH   5  12
ATOM     11  C   UNL     1       5.110   3.347  12.008  0.00  0.00    +0.000 C 
ATOM     12  C   UNL     1       6.330   3.469  12.899  0.00  0.00    +0.000 C 
ENDBRANCH   5  12
ENDBRANCH   4   8
ENDBRANCH   1   4
BRANCH   1  13
ATOM     13  C   UNL     1       3.964   4.696  19.805  0.00  0.00    +0.000 C 
BRANCH  13  14
ATOM     14  C   UNL     1       3.319   3.552  19.108  0.00  0.00    +0.000 A 
ATOM     15  C   UNL     1       2.090   3.333  18.517  0.00  0.00    +0.000 A 
ATOM     16  C   UNL     1       2.105   1.999  18.040  0.00  0.00    +0.000 A 
ATOM     17  C   UNL     1       3.333   1.484  18.376  0.00  0.00    +0.000 A 
ATOM     18  O   UNL     1       4.075   2.416  19.025  0.00  0.00    +0.000 OA
ENDBRANCH  13  14
ENDBRANCH   1  13
BRANCH   2  19
ATOM     19  C   UNL     1       2.435   7.119  19.131  0.00  0.00    +0.000 C 
BRANCH  19  20
ATOM     20  O   UNL     1       1.996   8.436  18.848  0.00  0.00    +0.000 OA
BRANCH  20  21
ATOM     21  C   UNL     1       1.294   9.114  19.815  0.00  0.00    +0.000 A 
ATOM     22  C   UNL     1       0.984   8.306  20.922  0.00  0.00    +0.000 A 
ATOM     23  C   UNL     1       0.221   8.786  21.991  0.00  0.00    +0.000 A 
ATOM     24  C   UNL     1      -0.249  10.091  21.958  0.00  0.00    +0.000 A 
ATOM     25 CL   UNL     1      -1.216  10.696  23.246  0.00  0.00    +0.000 Cl
ATOM     26  C   UNL     1       0.040  10.907  20.867  0.00  0.00    +0.000 A 
ATOM     27  C   UNL     1       0.800  10.433  19.775  0.00  0.00    +0.000 A 
ATOM     28  C   UNL     1       0.981  11.394  18.635  0.00  0.00    +0.000 C 
ENDBRANCH  20  21
ENDBRANCH  19  20
ENDBRANCH   2  19
TORSDOF 8
ENDMDL
MODEL 6
REMARK VINA RESULT:      -7.5      1.480      1.713
REMARK  Name = 
REMARK  10 active torsions:
REMARK  status: ('A' for Active; 'I' for Inactive)
REMARK    1  A    between atoms: C_1  and  C_2
REMARK    2  A    between atoms: C_2  and  C_3
REMARK    3  A    between atoms: C_6  and  C_7
REMARK    4  A    between atoms: C_7  and  N_8
REMARK    5  A    between atoms: N_8  and  C_9
REMARK    6  A    between atoms: C_9  and  C_10
REMARK    7  A    between atoms: C_15  and  C_17
REMARK    8  A    between atoms: C_17  and  O_18
REMARK    9  A    between atoms: O_18  and  C_19
REMARK   10  A    between atoms: C_25  and  C_26
REMARK                            x       y       z     vdW  Elec       q    Type
REMARK                         _______ _______ _______ _____ _____    ______ ____
ROOT
ATOM      1  N   UNL     1       3.005   6.152  18.081  0.00  0.00    +0.000 N 
ATOM      2  C   UNL     1       2.726   7.508  17.981  0.00  0.00    +0.000 C 
ATOM      3  O   UNL     1       3.630   8.354  17.967  0.00  0.00    +0.000 OA
ENDROOT
BRANCH   1   4
ATOM      4  C   UNL     1       4.400   5.738  18.312  0.00  0.00    +0.000 C 
BRANCH   4   8
ATOM      5  C   UNL     1       5.912   4.246  14.564  0.00  0.00    +0.000 A 
ATOM      6  C   UNL     1       5.749   5.625  14.756  0.00  0.00    +0.000 A 
ATOM      7  C   UNL     1       5.324   6.122  15.990  0.00  0.00    +0.000 A 
ATOM      8  C   UNL     1       5.083   5.249  17.057  0.00  0.00    +0.000 A 
ATOM      9  C   UNL     1       5.394   3.890  16.904  0.00  0.00    +0.000 A 
ATOM     10  C   UNL     1       5.793   3.391  15.665  0.00  0.00    +0.000 A 
BRANCH   5  12
ATOM     11  C   UNL     1       4.840   3.542  12.377  0.00  0.00    +0.000 C 
ATOM     12  C   UNL     1       6.118   3.688  13.180  0.00  0.00    +0.000 C 
ENDBRANCH   5  12
ENDBRANCH   4   8
ENDBRANCH   1   4
BRANCH   1  13
ATOM     13  C   UNL     1       1.987   5.124  17.881  0.00  0.00    +0.000 C 
BRANCH  13  14
ATOM     14  C   UNL     1       1.786   4.298  19.100  0.00  0.00    +0.000 A 
ATOM     15  C   UNL     1       1.357   4.546  20.389  0.00  0.00    +0.000 A 
ATOM     16  C   UNL     1       1.408   3.307  21.076  0.00  0.00    +0.000 A 
ATOM     17  C   UNL     1       1.873   2.385  20.170  0.00  0.00    +0.000 A 
ATOM     18  O   UNL     1       2.105   2.976  18.971  0.00  0.00    +0.000 OA
ENDBRANCH  13  14
ENDBRANCH   1  13
BRANCH   2  19
ATOM     19  C   UNL     1       1.261   7.976  17.967  0.00  0.00    +0.000 C 
BRANCH  19  20
ATOM     20  O   UNL     1       1.125   9.355  17.672  0.00  0.00    +0.000 OA
BRANCH  20  21
ATOM     21  C   UNL     1       0.281  10.110  18.450  0.00  0.00    +0.000 A 
ATOM     22  C   UNL     1       0.887  10.536  19.644  0.00  0.00    +0.000 A 
ATOM     23  C   UNL     1       0.182  11.266  20.606  0.00  0.00    +0.000 A 
ATOM     24  C   UNL     1      -1.152  11.575  20.381  0.00  0.00    +0.000 A 
ATOM     25 CL   UNL     1      -2.051  12.446  21.562  0.00  0.00    +0.000 Cl
ATOM     26  C   UNL     1      -1.774  11.157  19.207  0.00  0.00    +0.000 A 
ATOM     27  C   UNL     1      -1.077  10.409  18.232  0.00  0.00    +0.000 A 
ATOM     28  C   UNL     1      -1.885   9.964  17.046  0.00  0.00    +0.000 C 
ENDBRANCH  20  21
ENDBRANCH  19  20
ENDBRANCH   2  19
TORSDOF 8
ENDMDL
MODEL 7
REMARK VINA RESULT:      -7.4      2.784      5.959
REMARK  Name = 
REMARK  10 active torsions:
REMARK  status: ('A' for Active; 'I' for Inactive)
REMARK    1  A    between atoms: C_1  and  C_2
REMARK    2  A    between atoms: C_2  and  C_3
REMARK    3  A    between atoms: C_6  and  C_7
REMARK    4  A    between atoms: C_7  and  N_8
REMARK    5  A    between atoms: N_8  and  C_9
REMARK    6  A    between atoms: C_9  and  C_10
REMARK    7  A    between atoms: C_15  and  C_17
REMARK    8  A    between atoms: C_17  and  O_18
REMARK    9  A    between atoms: O_18  and  C_19
REMARK   10  A    between atoms: C_25  and  C_26
REMARK                            x       y       z     vdW  Elec       q    Type
REMARK                         _______ _______ _______ _____ _____    ______ ____
ROOT
ATOM      1  N   UNL     1       5.788   4.604  16.734  0.00  0.00    +0.000 N 
ATOM      2  C   UNL     1       5.022   3.936  17.680  0.00  0.00    +0.000 C 
ATOM      3  O   UNL     1       5.487   3.630  18.787  0.00  0.00    +0.000 OA
ENDROOT
BRANCH   1   4
ATOM      4  C   UNL     1       7.217   4.825  17.016  0.00  0.00    +0.000 C 
BRANCH   4   8
ATOM      5  C   UNL     1       8.422   8.614  18.673  0.00  0.00    +0.000 A 
ATOM      6  C   UNL     1       7.667   8.572  17.493  0.00  0.00    +0.000 A 
ATOM      7  C   UNL     1       7.215   7.352  16.985  0.00  0.00    +0.000 A 
ATOM      8  C   UNL     1       7.487   6.161  17.666  0.00  0.00    +0.000 A 
ATOM      9  C   UNL     1       8.109   6.225  18.921  0.00  0.00    +0.000 A 
ATOM     10  C   UNL     1       8.583   7.439  19.415  0.00  0.00    +0.000 A 
BRANCH   5  12
ATOM     11  C   UNL     1       9.540  10.762  17.921  0.00  0.00    +0.000 C 
ATOM     12  C   UNL     1       9.125   9.881  19.083  0.00  0.00    +0.000 C 
ENDBRANCH   5  12
ENDBRANCH   4   8
ENDBRANCH   1   4
BRANCH   1  13
ATOM     13  C   UNL     1       5.212   5.168  15.517  0.00  0.00    +0.000 C 
BRANCH  13  14
ATOM     14  C   UNL     1       5.918   4.693  14.298  0.00  0.00    +0.000 A 
ATOM     15  C   UNL     1       5.718   3.676  13.386  0.00  0.00    +0.000 A 
ATOM     16  C   UNL     1       6.779   3.759  12.450  0.00  0.00    +0.000 A 
ATOM     17  C   UNL     1       7.564   4.813  12.852  0.00  0.00    +0.000 A 
ATOM     18  O   UNL     1       7.051   5.384  13.971  0.00  0.00    +0.000 OA
ENDBRANCH  13  14
ENDBRANCH   1  13
BRANCH   2  19
ATOM     19  C   UNL     1       3.595   3.494  17.319  0.00  0.00    +0.000 C 
BRANCH  19  20
ATOM     20  O   UNL     1       2.753   3.363  18.452  0.00  0.00    +0.000 OA
BRANCH  20  21
ATOM     21  C   UNL     1       2.361   4.503  19.111  0.00  0.00    +0.000 A 
ATOM     22  C   UNL     1       2.507   5.658  18.324  0.00  0.00    +0.000 A 
ATOM     23  C   UNL     1       2.221   6.930  18.828  0.00  0.00    +0.000 A 
ATOM     24  C   UNL     1       1.787   7.061  20.139  0.00  0.00    +0.000 A 
ATOM     25 CL   UNL     1       1.459   8.618  20.792  0.00  0.00    +0.000 Cl
ATOM     26  C   UNL     1       1.642   5.930  20.939  0.00  0.00    +0.000 A 
ATOM     27  C   UNL     1       1.938   4.639  20.447  0.00  0.00    +0.000 A 
ATOM     28  C   UNL     1       1.803   3.514  21.435  0.00  0.00    +0.000 C 
ENDBRANCH  20  21
ENDBRANCH  19  20
ENDBRANCH   2  19
TORSDOF 8
ENDMDL
MODEL 8
REMARK VINA RESULT:      -7.3      1.390      2.054
REMARK  Name = 
REMARK  10 active torsions:
REMARK  status: ('A' for Active; 'I' for Inactive)
REMARK    1  A    between atoms: C_1  and  C_2
REMARK    2  A    between atoms: C_2  and  C_3
REMARK    3  A    between atoms: C_6  and  C_7
REMARK    4  A    between atoms: C_7  and  N_8
REMARK    5  A    between atoms: N_8  and  C_9
REMARK    6  A    between atoms: C_9  and  C_10
REMARK    7  A    between atoms: C_15  and  C_17
REMARK    8  A    between atoms: C_17  and  O_18
REMARK    9  A    between atoms: O_18  and  C_19
REMARK   10  A    between atoms: C_25  and  C_26
REMARK                            x       y       z     vdW  Elec       q    Type
REMARK                         _______ _______ _______ _____ _____    ______ ____
ROOT
ATOM      1  N   UNL     1       3.986   5.894  18.977  0.00  0.00    +0.000 N 
ATOM      2  C   UNL     1       3.614   6.836  18.028  0.00  0.00    +0.000 C 
ATOM      3  O   UNL     1       4.372   7.151  17.099  0.00  0.00    +0.000 OA
ENDROOT
BRANCH   1   4
ATOM      4  C   UNL     1       5.362   5.369  18.943  0.00  0.00    +0.000 C 
BRANCH   4   8
ATOM      5  C   UNL     1       6.219   4.055  14.931  0.00  0.00    +0.000 A 
ATOM      6  C   UNL     1       7.213   4.687  15.690  0.00  0.00    +0.000 A 
ATOM      7  C   UNL     1       6.965   5.056  17.014  0.00  0.00    +0.000 A 
ATOM      8  C   UNL     1       5.730   4.772  17.606  0.00  0.00    +0.000 A 
ATOM      9  C   UNL     1       4.797   4.006  16.892  0.00  0.00    +0.000 A 
ATOM     10  C   UNL     1       5.034   3.661  15.562  0.00  0.00    +0.000 A 
BRANCH   5  12
ATOM     11  C   UNL     1       5.100   3.558  12.711  0.00  0.00    +0.000 C 
ATOM     12  C   UNL     1       6.385   3.889  13.443  0.00  0.00    +0.000 C 
ENDBRANCH   5  12
ENDBRANCH   4   8
ENDBRANCH   1   4
BRANCH   1  13
ATOM     13  C   UNL     1       3.043   5.344  19.947  0.00  0.00    +0.000 C 
BRANCH  13  14
ATOM     14  C   UNL     1       2.547   4.004  19.539  0.00  0.00    +0.000 A 
ATOM     15  C   UNL     1       2.939   2.702  19.777  0.00  0.00    +0.000 A 
ATOM     16  C   UNL     1       2.032   1.873  19.071  0.00  0.00    +0.000 A 
ATOM     17  C   UNL     1       1.150   2.717  18.441  0.00  0.00    +0.000 A 
ATOM     18  O   UNL     1       1.455   4.009  18.717  0.00  0.00    +0.000 OA
ENDBRANCH  13  14
ENDBRANCH   1  13
BRANCH   2  19
ATOM     19  C   UNL     1       2.268   7.564  18.175  0.00  0.00    +0.000 C 
BRANCH  19  20
ATOM     20  O   UNL     1       2.202   8.376  19.335  0.00  0.00    +0.000 OA
BRANCH  20  21
ATOM     21  C   UNL     1       1.098   9.173  19.513  0.00  0.00    +0.000 A 
ATOM     22  C   UNL     1       0.600   9.684  18.303  0.00  0.00    +0.000 A 
ATOM     23  C   UNL     1      -0.483  10.567  18.268  0.00  0.00    +0.000 A 
ATOM     24  C   UNL     1      -1.081  10.955  19.458  0.00  0.00    +0.000 A 
ATOM     25 CL   UNL     1      -2.397  12.064  19.445  0.00  0.00    +0.000 Cl
ATOM     26  C   UNL     1      -0.600  10.466  20.670  0.00  0.00    +0.000 A 
ATOM     27  C   UNL     1       0.501   9.583  20.721  0.00  0.00    +0.000 A 
ATOM     28  C   UNL     1       0.960   9.185  22.096  0.00  0.00    +0.000 C 
ENDBRANCH  20  21
ENDBRANCH  19  20
ENDBRANCH   2  19
TORSDOF 8
ENDMDL
MODEL 9
REMARK VINA RESULT:      -7.3      1.188      2.028
REMARK  Name = 
REMARK  10 active torsions:
REMARK  status: ('A' for Active; 'I' for Inactive)
REMARK    1  A    between atoms: C_1  and  C_2
REMARK    2  A    between atoms: C_2  and  C_3
REMARK    3  A    between atoms: C_6  and  C_7
REMARK    4  A    between atoms: C_7  and  N_8
REMARK    5  A    between atoms: N_8  and  C_9
REMARK    6  A    between atoms: C_9  and  C_10
REMARK    7  A    between atoms: C_15  and  C_17
REMARK    8  A    between atoms: C_17  and  O_18
REMARK    9  A    between atoms: O_18  and  C_19
REMARK   10  A    between atoms: C_25  and  C_26
REMARK                            x       y       z     vdW  Elec       q    Type
REMARK                         _______ _______ _______ _____ _____    ______ ____
ROOT
ATOM      1  N   UNL     1       3.843   4.851  17.854  0.00  0.00    +0.000 N 
ATOM      2  C   UNL     1       3.722   6.232  17.925  0.00  0.00    +0.000 C 
ATOM      3  O   UNL     1       4.673   6.978  17.655  0.00  0.00    +0.000 OA
ENDROOT
BRANCH   1   4
ATOM      4  C   UNL     1       5.172   4.276  17.583  0.00  0.00    +0.000 C 
BRANCH   4   8
ATOM      5  C   UNL     1       6.558   4.286  13.505  0.00  0.00    +0.000 A 
ATOM      6  C   UNL     1       5.217   3.995  13.789  0.00  0.00    +0.000 A 
ATOM      7  C   UNL     1       4.744   4.055  15.102  0.00  0.00    +0.000 A 
ATOM      8  C   UNL     1       5.597   4.435  16.143  0.00  0.00    +0.000 A 
ATOM      9  C   UNL     1       6.894   4.870  15.831  0.00  0.00    +0.000 A 
ATOM     10  C   UNL     1       7.374   4.785  14.525  0.00  0.00    +0.000 A 
BRANCH   5  12
ATOM     11  C   UNL     1       6.732   2.620  11.601  0.00  0.00    +0.000 C 
ATOM     12  C   UNL     1       7.134   3.976  12.148  0.00  0.00    +0.000 C 
ENDBRANCH   5  12
ENDBRANCH   4   8
ENDBRANCH   1   4
BRANCH   1  13
ATOM     13  C   UNL     1       2.692   3.957  17.952  0.00  0.00    +0.000 C 
BRANCH  13  14
ATOM     14  C   UNL     1       2.472   3.487  19.345  0.00  0.00    +0.000 A 
ATOM     15  C   UNL     1       3.279   2.987  20.348  0.00  0.00    +0.000 A 
ATOM     16  C   UNL     1       2.430   2.712  21.448  0.00  0.00    +0.000 A 
ATOM     17  C   UNL     1       1.160   3.050  21.048  0.00  0.00    +0.000 A 
ATOM     18  O   UNL     1       1.175   3.519  19.776  0.00  0.00    +0.000 OA
ENDBRANCH  13  14
ENDBRANCH   1  13
BRANCH   2  19
ATOM     19  C   UNL     1       2.405   6.848  18.426  0.00  0.00    +0.000 C 
BRANCH  19  20
ATOM     20  O   UNL     1       2.547   8.197  18.836  0.00  0.00    +0.000 OA
BRANCH  20  21
ATOM     21  C   UNL     1       1.412   8.919  19.114  0.00  0.00    +0.000 A 
ATOM     22  C   UNL     1       0.888   9.560  17.978  0.00  0.00    +0.000 A 
ATOM     23  C   UNL     1      -0.230  10.395  18.056  0.00  0.00    +0.000 A 
ATOM     24  C   UNL     1      -0.839  10.603  19.285  0.00  0.00    +0.000 A 
ATOM     25 CL   UNL     1      -2.198  11.650  19.413  0.00  0.00    +0.000 Cl
ATOM     26  C   UNL     1      -0.333   9.983  20.425  0.00  0.00    +0.000 A 
ATOM     27  C   UNL     1       0.804   9.146  20.364  0.00  0.00    +0.000 A 
ATOM     28  C   UNL     1       1.285   8.596  21.677  0.00  0.00    +0.000 C 
ENDBRANCH  20  21
ENDBRANCH  19  20
ENDBRANCH   2  19
TORSDOF 8
ENDMDL
