MODEL 1
REMARK VINA RESULT:      -7.5      0.000      0.000
REMARK  Name = 
REMARK  8 active torsions:
REMARK  status: ('A' for Active; 'I' for Inactive)
REMARK    1  A    between atoms: C_1  and  C_2
REMARK    2  A    between atoms: C_2  and  O_3
REMARK    3  A    between atoms: O_3  and  C_4
REMARK    4  A    between atoms: C_10  and  C_12
REMARK    5  A    between atoms: C_12  and  N_13
REMARK    6  A    between atoms: N_13  and  C_14
REMARK    7  A    between atoms: N_13  and  S_15
REMARK    8  A    between atoms: S_15  and  C_18
REMARK                            x       y       z     vdW  Elec       q    Type
REMARK                         _______ _______ _______ _____ _____    ______ ____
ROOT
ATOM      1  C   UNL     1       7.096   4.736  13.946  0.00  0.00    +0.000 C 
ATOM      2  O   UNL     1       7.926   5.589  13.663  0.00  0.00    +0.000 OA
ATOM      3  N   UNL     1       6.823   4.328  15.233  0.00  0.00    +0.000 N 
ATOM      4  C   UNL     1       7.465   5.021  16.351  0.00  0.00    +0.000 C 
ATOM      5  C   UNL     1       6.411   5.638  17.281  0.00  0.00    +0.000 C 
ATOM      6  N   UNL     1       5.429   4.629  17.700  0.00  0.00    +0.000 N 
ATOM      7  C   UNL     1       5.282   4.347  19.047  0.00  0.00    +0.000 C 
ATOM      8  O   UNL     1       5.961   4.911  19.908  0.00  0.00    +0.000 OA
ATOM      9  C   UNL     1       4.764   3.941  16.581  0.00  0.00    +0.000 C 
ATOM     10  C   UNL     1       5.795   3.345  15.599  0.00  0.00    +0.000 C 
ENDROOT
BRANCH   1  11
ATOM     11  O   UNL     1       6.277   4.148  13.032  0.00  0.00    +0.000 OA
BRANCH  11  13
ATOM     12  C   UNL     1       6.714   2.312  11.572  0.00  0.00    +0.000 C 
ATOM     13  C   UNL     1       6.910   3.803  11.793  0.00  0.00    +0.000 C 
ENDBRANCH  11  13
ENDBRANCH   1  11
BRANCH   7  14
ATOM     14  C   UNL     1       4.228   3.331  19.479  0.00  0.00    +0.000 C 
BRANCH  14  15
ATOM     15  N   UNL     1       2.825   3.693  19.114  0.00  0.00    +0.000 NA
ATOM     16  C   UNL     1       2.051   2.482  18.712  0.00  0.00    +0.000 C 
BRANCH  15  17
ATOM     17  S   UNL     1       2.007   4.586  20.327  0.00  0.00    +0.000 S 
ATOM     18  O   UNL     1       0.607   4.217  20.276  0.00  0.00    +0.000 OA
ATOM     19  O   UNL     1       2.765   4.465  21.551  0.00  0.00    +0.000 OA
BRANCH  17  20
ATOM     20  C   UNL     1       2.106   6.294  19.797  0.00  0.00    +0.000 A 
ATOM     21  C   UNL     1       2.575   6.592  18.510  0.00  0.00    +0.000 A 
ATOM     22  C   UNL     1       2.478   7.900  18.024  0.00  0.00    +0.000 A 
ATOM     23  C   UNL     1       1.923   8.894  18.823  0.00  0.00    +0.000 A 
ATOM     24  F   UNL     1       1.805  10.140  18.344  0.00  0.00    +0.000 F 
ATOM     25  C   UNL     1       1.463   8.608  20.106  0.00  0.00    +0.000 A 
ATOM     26  C   UNL     1       1.541   7.300  20.592  0.00  0.00    +0.000 A 
ENDBRANCH  17  20
ENDBRANCH  15  17
ENDBRANCH  14  15
ENDBRANCH   7  14
TORSDOF 6
ENDMDL
MODEL 2
REMARK VINA RESULT:      -6.9      3.501      7.548
REMARK  Name = 
REMARK  8 active torsions:
REMARK  status: ('A' for Active; 'I' for Inactive)
REMARK    1  A    between atoms: C_1  and  C_2
REMARK    2  A    between atoms: C_2  and  O_3
REMARK    3  A    between atoms: O_3  and  C_4
REMARK    4  A    between atoms: C_10  and  C_12
REMARK    5  A    between atoms: C_12  and  N_13
REMARK    6  A    between atoms: N_13  and  C_14
REMARK    7  A    between atoms: N_13  and  S_15
REMARK    8  A    between atoms: S_15  and  C_18
REMARK                            x       y       z     vdW  Elec       q    Type
REMARK                         _______ _______ _______ _____ _____    ______ ____
ROOT
ATOM      1  C   UNL     1       0.997  10.997  20.252  0.00  0.00    +0.000 C 
ATOM      2  O   UNL     1       1.286  11.953  19.544  0.00  0.00    +0.000 OA
ATOM      3  N   UNL     1       0.950   9.696  19.801  0.00  0.00    +0.000 N 
ATOM      4  C   UNL     1       1.378   9.400  18.433  0.00  0.00    +0.000 C 
ATOM      5  C   UNL     1       2.551   8.409  18.437  0.00  0.00    +0.000 C 
ATOM      6  N   UNL     1       2.221   7.212  19.223  0.00  0.00    +0.000 N 
ATOM      7  C   UNL     1       2.229   5.974  18.603  0.00  0.00    +0.000 C 
ATOM      8  O   UNL     1       2.493   5.847  17.406  0.00  0.00    +0.000 OA
ATOM      9  C   UNL     1       1.809   7.500  20.606  0.00  0.00    +0.000 C 
ATOM     10  C   UNL     1       0.659   8.529  20.644  0.00  0.00    +0.000 C 
ENDROOT
BRANCH   1  11
ATOM     11  O   UNL     1       0.774  11.089  21.590  0.00  0.00    +0.000 OA
BRANCH  11  13
ATOM     12  C   UNL     1      -1.188  11.038  22.948  0.00  0.00    +0.000 C 
ATOM     13  C   UNL     1      -0.381  11.858  21.955  0.00  0.00    +0.000 C 
ENDBRANCH  11  13
ENDBRANCH   1  11
BRANCH   7  14
ATOM     14  C   UNL     1       1.930   4.730  19.435  0.00  0.00    +0.000 C 
BRANCH  14  15
ATOM     15  N   UNL     1       3.103   4.180  20.179  0.00  0.00    +0.000 NA
ATOM     16  C   UNL     1       2.672   3.547  21.460  0.00  0.00    +0.000 C 
BRANCH  15  17
ATOM     17  S   UNL     1       4.070   3.113  19.247  0.00  0.00    +0.000 S 
ATOM     18  O   UNL     1       4.753   2.225  20.165  0.00  0.00    +0.000 OA
ATOM     19  O   UNL     1       3.248   2.592  18.179  0.00  0.00    +0.000 OA
BRANCH  17  20
ATOM     20  C   UNL     1       5.327   4.150  18.504  0.00  0.00    +0.000 A 
ATOM     21  C   UNL     1       5.494   4.143  17.113  0.00  0.00    +0.000 A 
ATOM     22  C   UNL     1       6.339   5.083  16.512  0.00  0.00    +0.000 A 
ATOM     23  C   UNL     1       7.008   6.012  17.302  0.00  0.00    +0.000 A 
ATOM     24  F   UNL     1       7.794   6.930  16.722  0.00  0.00    +0.000 F 
ATOM     25  C   UNL     1       6.853   6.020  18.686  0.00  0.00    +0.000 A 
ATOM     26  C   UNL     1       5.999   5.095  19.291  0.00  0.00    +0.000 A 
ENDBRANCH  17  20
ENDBRANCH  15  17
ENDBRANCH  14  15
ENDBRANCH   7  14
TORSDOF 6
ENDMDL
MODEL 3
REMARK VINA RESULT:      -6.7      1.194      1.622
REMARK  Name = 
REMARK  8 active torsions:
REMARK  status: ('A' for Active; 'I' for Inactive)
REMARK    1  A    between atoms: C_1  and  C_2
REMARK    2  A    between atoms: C_2  and  O_3
REMARK    3  A    between atoms: O_3  and  C_4
REMARK    4  A    between atoms: C_10  and  C_12
REMARK    5  A    between atoms: C_12  and  N_13
REMARK    6  A    between atoms: N_13  and  C_14
REMARK    7  A    between atoms: N_13  and  S_15
REMARK    8  A    between atoms: S_15  and  C_18
REMARK                            x       y       z     vdW  Elec       q    Type
REMARK                         _______ _______ _______ _____ _____    ______ ____
ROOT
ATOM      1  C   UNL     1       6.669   4.583  13.811  0.00  0.00    +0.000 C 
ATOM      2  O   UNL     1       7.634   5.134  13.297  0.00  0.00    +0.000 OA
ATOM      3  N   UNL     1       6.555   4.337  15.161  0.00  0.00    +0.000 N 
ATOM      4  C   UNL     1       7.578   4.858  16.069  0.00  0.00    +0.000 C 
ATOM      5  C   UNL     1       6.952   5.806  17.102  0.00  0.00    +0.000 C 
ATOM      6  N   UNL     1       5.827   5.159  17.791  0.00  0.00    +0.000 N 
ATOM      7  C   UNL     1       5.880   4.998  19.165  0.00  0.00    +0.000 C 
ATOM      8  O   UNL     1       6.849   5.373  19.828  0.00  0.00    +0.000 OA
ATOM      9  C   UNL     1       4.784   4.650  16.886  0.00  0.00    +0.000 C 
ATOM     10  C   UNL     1       5.384   3.726  15.804  0.00  0.00    +0.000 C 
ENDROOT
BRANCH   1  11
ATOM     11  O   UNL     1       5.551   4.225  13.123  0.00  0.00    +0.000 OA
BRANCH  11  13
ATOM     12  C   UNL     1       4.473   3.080  11.329  0.00  0.00    +0.000 C 
ATOM     13  C   UNL     1       5.753   3.201  12.140  0.00  0.00    +0.000 C 
ENDBRANCH  11  13
ENDBRANCH   1  11
BRANCH   7  14
ATOM     14  C   UNL     1       4.689   4.367  19.881  0.00  0.00    +0.000 C 
BRANCH  14  15
ATOM     15  N   UNL     1       3.949   3.345  19.079  0.00  0.00    +0.000 NA
ATOM     16  C   UNL     1       4.380   1.965  19.450  0.00  0.00    +0.000 C 
BRANCH  15  17
ATOM     17  S   UNL     1       2.244   3.512  19.157  0.00  0.00    +0.000 S 
ATOM     18  O   UNL     1       1.704   3.091  17.880  0.00  0.00    +0.000 OA
ATOM     19  O   UNL     1       1.797   2.908  20.391  0.00  0.00    +0.000 OA
BRANCH  17  20
ATOM     20  C   UNL     1       1.953   5.275  19.282  0.00  0.00    +0.000 A 
ATOM     21  C   UNL     1       1.644   5.837  20.528  0.00  0.00    +0.000 A 
ATOM     22  C   UNL     1       1.601   7.229  20.668  0.00  0.00    +0.000 A 
ATOM     23  C   UNL     1       1.861   8.041  19.569  0.00  0.00    +0.000 A 
ATOM     24  F   UNL     1       1.849   9.373  19.713  0.00  0.00    +0.000 F 
ATOM     25  C   UNL     1       2.162   7.490  18.327  0.00  0.00    +0.000 A 
ATOM     26  C   UNL     1       2.222   6.101  18.183  0.00  0.00    +0.000 A 
ENDBRANCH  17  20
ENDBRANCH  15  17
ENDBRANCH  14  15
ENDBRANCH   7  14
TORSDOF 6
ENDMDL
MODEL 4
REMARK VINA RESULT:      -6.7      3.540      7.581
REMARK  Name = 
REMARK  8 active torsions:
REMARK  status: ('A' for Active; 'I' for Inactive)
REMARK    1  A    between atoms: C_1  and  C_2
REMARK    2  A    between atoms: C_2  and  O_3
REMARK    3  A    between atoms: O_3  and  C_4
REMARK    4  A    between atoms: C_10  and  C_12
REMARK    5  A    between atoms: C_12  and  N_13
REMARK    6  A    between atoms: N_13  and  C_14
REMARK    7  A    between atoms: N_13  and  S_15
REMARK    8  A    between atoms: S_15  and  C_18
REMARK                            x       y       z     vdW  Elec       q    Type
REMARK                         _______ _______ _______ _____ _____    ______ ____
ROOT
ATOM      1  C   UNL     1       1.186  11.070  20.043  0.00  0.00    +0.000 C 
ATOM      2  O   UNL     1       1.495  11.944  19.244  0.00  0.00    +0.000 OA
ATOM      3  N   UNL     1       1.033   9.743  19.707  0.00  0.00    +0.000 N 
ATOM      4  C   UNL     1       1.366   9.309  18.349  0.00  0.00    +0.000 C 
ATOM      5  C   UNL     1       2.473   8.245  18.378  0.00  0.00    +0.000 C 
ATOM      6  N   UNL     1       2.112   7.141  19.278  0.00  0.00    +0.000 N 
ATOM      7  C   UNL     1       2.009   5.859  18.765  0.00  0.00    +0.000 C 
ATOM      8  O   UNL     1       2.199   5.618  17.571  0.00  0.00    +0.000 OA
ATOM      9  C   UNL     1       1.796   7.567  20.651  0.00  0.00    +0.000 C 
ATOM     10  C   UNL     1       0.716   8.670  20.659  0.00  0.00    +0.000 C 
ENDROOT
BRANCH   1  11
ATOM     11  O   UNL     1       1.043  11.286  21.378  0.00  0.00    +0.000 OA
BRANCH  11  13
ATOM     12  C   UNL     1      -1.076  11.421  22.466  0.00  0.00    +0.000 C 
ATOM     13  C   UNL     1      -0.001  12.203  21.730  0.00  0.00    +0.000 C 
ENDBRANCH  11  13
ENDBRANCH   1  11
BRANCH   7  14
ATOM     14  C   UNL     1       1.678   4.709  19.713  0.00  0.00    +0.000 C 
BRANCH  14  15
ATOM     15  N   UNL     1       2.860   4.115  20.410  0.00  0.00    +0.000 NA
ATOM     16  C   UNL     1       2.477   3.592  21.754  0.00  0.00    +0.000 C 
BRANCH  15  17
ATOM     17  S   UNL     1       3.678   2.927  19.484  0.00  0.00    +0.000 S 
ATOM     18  O   UNL     1       4.561   2.205  20.378  0.00  0.00    +0.000 OA
ATOM     19  O   UNL     1       2.693   2.231  18.688  0.00  0.00    +0.000 OA
BRANCH  17  20
ATOM     20  C   UNL     1       4.726   3.848  18.361  0.00  0.00    +0.000 A 
ATOM     21  C   UNL     1       5.669   4.748  18.877  0.00  0.00    +0.000 A 
ATOM     22  C   UNL     1       6.613   5.327  18.023  0.00  0.00    +0.000 A 
ATOM     23  C   UNL     1       6.605   5.009  16.669  0.00  0.00    +0.000 A 
ATOM     24  F   UNL     1       7.529   5.542  15.858  0.00  0.00    +0.000 F 
ATOM     25  C   UNL     1       5.667   4.122  16.147  0.00  0.00    +0.000 A 
ATOM     26  C   UNL     1       4.731   3.527  16.997  0.00  0.00    +0.000 A 
ENDBRANCH  17  20
ENDBRANCH  15  17
ENDBRANCH  14  15
ENDBRANCH   7  14
TORSDOF 6
ENDMDL
MODEL 5
REMARK VINA RESULT:      -6.3      5.365      8.071
REMARK  Name = 
REMARK  8 active torsions:
REMARK  status: ('A' for Active; 'I' for Inactive)
REMARK    1  A    between atoms: C_1  and  C_2
REMARK    2  A    between atoms: C_2  and  O_3
REMARK    3  A    between atoms: O_3  and  C_4
REMARK    4  A    between atoms: C_10  and  C_12
REMARK    5  A    between atoms: C_12  and  N_13
REMARK    6  A    between atoms: N_13  and  C_14
REMARK    7  A    between atoms: N_13  and  S_15
REMARK    8  A    between atoms: S_15  and  C_18
REMARK                            x       y       z     vdW  Elec       q    Type
REMARK                         _______ _______ _______ _____ _____    ______ ____
ROOT
ATOM      1  C   UNL     1       2.156   5.550  19.723  0.00  0.00    +0.000 C 
ATOM      2  O   UNL     1       2.628   4.940  18.773  0.00  0.00    +0.000 OA
ATOM      3  N   UNL     1       2.200   6.920  19.854  0.00  0.00    +0.000 N 
ATOM      4  C   UNL     1       2.734   7.724  18.752  0.00  0.00    +0.000 C 
ATOM      5  C   UNL     1       1.672   8.707  18.237  0.00  0.00    +0.000 C 
ATOM      6  N   UNL     1       1.125   9.508  19.340  0.00  0.00    +0.000 N 
ATOM      7  C   UNL     1       1.256  10.886  19.303  0.00  0.00    +0.000 C 
ATOM      8  O   UNL     1       1.831  11.461  18.376  0.00  0.00    +0.000 OA
ATOM      9  C   UNL     1       0.568   8.708  20.442  0.00  0.00    +0.000 C 
ATOM     10  C   UNL     1       1.593   7.676  20.958  0.00  0.00    +0.000 C 
ENDROOT
BRANCH   1  11
ATOM     11  O   UNL     1       1.450   4.957  20.724  0.00  0.00    +0.000 OA
BRANCH  11  13
ATOM     12  C   UNL     1       2.114   2.858  21.642  0.00  0.00    +0.000 C 
ATOM     13  C   UNL     1       1.273   3.542  20.578  0.00  0.00    +0.000 C 
ENDBRANCH  11  13
ENDBRANCH   1  11
BRANCH   7  14
ATOM     14  C   UNL     1       0.645  11.717  20.428  0.00  0.00    +0.000 C 
BRANCH  14  15
ATOM     15  N   UNL     1      -0.817  11.494  20.646  0.00  0.00    +0.000 NA
ATOM     16  C   UNL     1      -1.142  11.481  22.103  0.00  0.00    +0.000 C 
BRANCH  15  17
ATOM     17  S   UNL     1      -1.815  12.594  19.791  0.00  0.00    +0.000 S 
ATOM     18  O   UNL     1      -2.903  12.975  20.670  0.00  0.00    +0.000 OA
ATOM     19  O   UNL     1      -0.960  13.592  19.190  0.00  0.00    +0.000 OA
BRANCH  17  20
ATOM     20  C   UNL     1      -2.540  11.634  18.464  0.00  0.00    +0.000 A 
ATOM     21  C   UNL     1      -3.888  11.827  18.128  0.00  0.00    +0.000 A 
ATOM     22  C   UNL     1      -4.408  11.222  16.979  0.00  0.00    +0.000 A 
ATOM     23  C   UNL     1      -3.585  10.433  16.182  0.00  0.00    +0.000 A 
ATOM     24  F   UNL     1      -4.078   9.879  15.066  0.00  0.00    +0.000 F 
ATOM     25  C   UNL     1      -2.248  10.231  16.513  0.00  0.00    +0.000 A 
ATOM     26  C   UNL     1      -1.717  10.844  17.651  0.00  0.00    +0.000 A 
ENDBRANCH  17  20
ENDBRANCH  15  17
ENDBRANCH  14  15
ENDBRANCH   7  14
TORSDOF 6
ENDMDL
MODEL 6
REMARK VINA RESULT:      -6.1      3.747      8.096
REMARK  Name = 
REMARK  8 active torsions:
REMARK  status: ('A' for Active; 'I' for Inactive)
REMARK    1  A    between atoms: C_1  and  C_2
REMARK    2  A    between atoms: C_2  and  O_3
REMARK    3  A    between atoms: O_3  and  C_4
REMARK    4  A    between atoms: C_10  and  C_12
REMARK    5  A    between atoms: C_12  and  N_13
REMARK    6  A    between atoms: N_13  and  C_14
REMARK    7  A    between atoms: N_13  and  S_15
REMARK    8  A    between atoms: S_15  and  C_18
REMARK                            x       y       z     vdW  Elec       q    Type
REMARK                         _______ _______ _______ _____ _____    ______ ____
ROOT
ATOM      1  C   UNL     1      -0.591  10.951  20.669  0.00  0.00    +0.000 C 
ATOM      2  O   UNL     1      -0.682  11.958  19.979  0.00  0.00    +0.000 OA
ATOM      3  N   UNL     1      -0.118   9.744  20.205  0.00  0.00    +0.000 N 
ATOM      4  C   UNL     1       0.422   9.664  18.847  0.00  0.00    +0.000 C 
ATOM      5  C   UNL     1       1.888   9.208  18.874  0.00  0.00    +0.000 C 
ATOM      6  N   UNL     1       2.032   7.962  19.639  0.00  0.00    +0.000 N 
ATOM      7  C   UNL     1       2.535   6.837  19.008  0.00  0.00    +0.000 C 
ATOM      8  O   UNL     1       2.855   6.846  17.817  0.00  0.00    +0.000 OA
ATOM      9  C   UNL     1       1.510   8.039  21.013  0.00  0.00    +0.000 C 
ATOM     10  C   UNL     1       0.050   8.539  21.029  0.00  0.00    +0.000 C 
ENDROOT
BRANCH   1  11
ATOM     11  O   UNL     1      -0.863  10.923  22.002  0.00  0.00    +0.000 OA
BRANCH  11  13
ATOM     12  C   UNL     1      -2.561  12.193  23.094  0.00  0.00    +0.000 C 
ATOM     13  C   UNL     1      -1.129  12.204  22.588  0.00  0.00    +0.000 C 
ENDBRANCH  11  13
ENDBRANCH   1  11
BRANCH   7  14
ATOM     14  C   UNL     1       2.726   5.558  19.819  0.00  0.00    +0.000 C 
BRANCH  14  15
ATOM     15  N   UNL     1       2.284   4.309  19.129  0.00  0.00    +0.000 NA
ATOM     16  C   UNL     1       1.586   4.628  17.849  0.00  0.00    +0.000 C 
BRANCH  15  17
ATOM     17  S   UNL     1       3.545   3.172  18.889  0.00  0.00    +0.000 S 
ATOM     18  O   UNL     1       3.957   2.692  20.192  0.00  0.00    +0.000 OA
ATOM     19  O   UNL     1       3.123   2.255  17.856  0.00  0.00    +0.000 OA
BRANCH  17  20
ATOM     20  C   UNL     1       4.915   4.125  18.237  0.00  0.00    +0.000 A 
ATOM     21  C   UNL     1       5.025   4.318  16.853  0.00  0.00    +0.000 A 
ATOM     22  C   UNL     1       5.978   5.212  16.352  0.00  0.00    +0.000 A 
ATOM     23  C   UNL     1       6.809   5.898  17.232  0.00  0.00    +0.000 A 
ATOM     24  F   UNL     1       7.700   6.775  16.752  0.00  0.00    +0.000 F 
ATOM     25  C   UNL     1       6.710   5.706  18.608  0.00  0.00    +0.000 A 
ATOM     26  C   UNL     1       5.751   4.827  19.116  0.00  0.00    +0.000 A 
ENDBRANCH  17  20
ENDBRANCH  15  17
ENDBRANCH  14  15
ENDBRANCH   7  14
TORSDOF 6
ENDMDL
MODEL 7
REMARK VINA RESULT:      -6.0      4.178      8.307
REMARK  Name = 
REMARK  8 active torsions:
REMARK  status: ('A' for Active; 'I' for Inactive)
REMARK    1  A    between atoms: C_1  and  C_2
REMARK    2  A    between atoms: C_2  and  O_3
REMARK    3  A    between atoms: O_3  and  C_4
REMARK    4  A    between atoms: C_10  and  C_12
REMARK    5  A    between atoms: C_12  and  N_13
REMARK    6  A    between atoms: N_13  and  C_14
REMARK    7  A    between atoms: N_13  and  S_15
REMARK    8  A    between atoms: S_15  and  C_18
REMARK                            x       y       z     vdW  Elec       q    Type
REMARK                         _______ _______ _______ _____ _____    ______ ____
ROOT
ATOM      1  C   UNL     1      -0.965  11.316  20.052  0.00  0.00    +0.000 C 
ATOM      2  O   UNL     1      -1.226  12.308  19.385  0.00  0.00    +0.000 OA
ATOM      3  N   UNL     1      -0.349  10.192  19.548  0.00  0.00    +0.000 N 
ATOM      4  C   UNL     1       0.137  10.205  18.167  0.00  0.00    +0.000 C 
ATOM      5  C   UNL     1       1.652   9.959  18.125  0.00  0.00    +0.000 C 
ATOM      6  N   UNL     1       2.003   8.737  18.861  0.00  0.00    +0.000 N 
ATOM      7  C   UNL     1       2.630   7.701  18.190  0.00  0.00    +0.000 C 
ATOM      8  O   UNL     1       2.893   7.768  16.988  0.00  0.00    +0.000 OA
ATOM      9  C   UNL     1       1.536   8.725  20.257  0.00  0.00    +0.000 C 
ATOM     10  C   UNL     1       0.022   9.014  20.343  0.00  0.00    +0.000 C 
ENDROOT
BRANCH   1  11
ATOM     11  O   UNL     1      -1.171  11.235  21.395  0.00  0.00    +0.000 OA
BRANCH  11  13
ATOM     12  C   UNL     1      -1.474  12.670  23.276  0.00  0.00    +0.000 C 
ATOM     13  C   UNL     1      -0.524  12.257  22.165  0.00  0.00    +0.000 C 
ENDBRANCH  11  13
ENDBRANCH   1  11
BRANCH   7  14
ATOM     14  C   UNL     1       3.034   6.453  18.971  0.00  0.00    +0.000 C 
BRANCH  14  15
ATOM     15  N   UNL     1       4.142   5.663  18.354  0.00  0.00    +0.000 NA
ATOM     16  C   UNL     1       5.327   5.612  19.261  0.00  0.00    +0.000 C 
BRANCH  15  17
ATOM     17  S   UNL     1       3.671   4.093  17.851  0.00  0.00    +0.000 S 
ATOM     18  O   UNL     1       2.718   4.247  16.770  0.00  0.00    +0.000 OA
ATOM     19  O   UNL     1       4.870   3.305  17.680  0.00  0.00    +0.000 OA
BRANCH  17  20
ATOM     20  C   UNL     1       2.768   3.409  19.238  0.00  0.00    +0.000 A 
ATOM     21  C   UNL     1       3.473   2.858  20.317  0.00  0.00    +0.000 A 
ATOM     22  C   UNL     1       2.785   2.495  21.480  0.00  0.00    +0.000 A 
ATOM     23  C   UNL     1       1.409   2.680  21.554  0.00  0.00    +0.000 A 
ATOM     24  F   UNL     1       0.757   2.360  22.679  0.00  0.00    +0.000 F 
ATOM     25  C   UNL     1       0.700   3.220  20.483  0.00  0.00    +0.000 A 
ATOM     26  C   UNL     1       1.382   3.600  19.324  0.00  0.00    +0.000 A 
ENDBRANCH  17  20
ENDBRANCH  15  17
ENDBRANCH  14  15
ENDBRANCH   7  14
TORSDOF 6
ENDMDL
MODEL 8
REMARK VINA RESULT:      -5.9      2.963      4.008
REMARK  Name = 
REMARK  8 active torsions:
REMARK  status: ('A' for Active; 'I' for Inactive)
REMARK    1  A    between atoms: C_1  and  C_2
REMARK    2  A    between atoms: C_2  and  O_3
REMARK    3  A    between atoms: O_3  and  C_4
REMARK    4  A    between atoms: C_10  and  C_12
REMARK    5  A    between atoms: C_12  and  N_13
REMARK    6  A    between atoms: N_13  and  C_14
REMARK    7  A    between atoms: N_13  and  S_15
REMARK    8  A    between atoms: S_15  and  C_18
REMARK                            x       y       z     vdW  Elec       q    Type
REMARK                         _______ _______ _______ _____ _____    ______ ____
ROOT
ATOM      1  C   UNL     1       7.033   4.791  16.374  0.00  0.00    +0.000 C 
ATOM      2  O   UNL     1       7.969   4.116  16.780  0.00  0.00    +0.000 OA
ATOM      3  N   UNL     1       5.812   4.869  17.006  0.00  0.00    +0.000 N 
ATOM      4  C   UNL     1       5.636   4.207  18.300  0.00  0.00    +0.000 C 
ATOM      5  C   UNL     1       5.251   5.228  19.381  0.00  0.00    +0.000 C 
ATOM      6  N   UNL     1       4.086   6.018  18.961  0.00  0.00    +0.000 N 
ATOM      7  C   UNL     1       2.933   5.981  19.726  0.00  0.00    +0.000 C 
ATOM      8  O   UNL     1       2.851   5.294  20.746  0.00  0.00    +0.000 OA
ATOM      9  C   UNL     1       4.262   6.703  17.670  0.00  0.00    +0.000 C 
ATOM     10  C   UNL     1       4.694   5.714  16.566  0.00  0.00    +0.000 C 
ENDROOT
BRANCH   1  11
ATOM     11  O   UNL     1       7.112   5.619  15.297  0.00  0.00    +0.000 OA
BRANCH  11  13
ATOM     12  C   UNL     1       6.266   4.058  13.703  0.00  0.00    +0.000 C 
ATOM     13  C   UNL     1       7.430   4.967  14.061  0.00  0.00    +0.000 C 
ENDBRANCH  11  13
ENDBRANCH   1  11
BRANCH   7  14
ATOM     14  C   UNL     1       1.742   6.840  19.310  0.00  0.00    +0.000 C 
BRANCH  14  15
ATOM     15  N   UNL     1       1.888   8.297  19.609  0.00  0.00    +0.000 NA
ATOM     16  C   UNL     1       1.629   9.118  18.389  0.00  0.00    +0.000 C 
BRANCH  15  17
ATOM     17  S   UNL     1       0.938   8.826  20.934  0.00  0.00    +0.000 S 
ATOM     18  O   UNL     1      -0.201   7.937  21.040  0.00  0.00    +0.000 OA
ATOM     19  O   UNL     1       1.824   9.038  22.056  0.00  0.00    +0.000 OA
BRANCH  17  20
ATOM     20  C   UNL     1       0.297  10.424  20.442  0.00  0.00    +0.000 A 
ATOM     21  C   UNL     1      -0.963  10.506  19.834  0.00  0.00    +0.000 A 
ATOM     22  C   UNL     1      -1.548  11.758  19.619  0.00  0.00    +0.000 A 
ATOM     23  C   UNL     1      -0.873  12.911  20.007  0.00  0.00    +0.000 A 
ATOM     24  F   UNL     1      -1.448  14.107  19.827  0.00  0.00    +0.000 F 
ATOM     25  C   UNL     1       0.383  12.838  20.604  0.00  0.00    +0.000 A 
ATOM     26  C   UNL     1       0.967  11.590  20.836  0.00  0.00    +0.000 A 
ENDBRANCH  17  20
ENDBRANCH  15  17
ENDBRANCH  14  15
ENDBRANCH   7  14
TORSDOF 6
ENDMDL
MODEL 9
REMARK VINA RESULT:      -5.9      3.465      7.457
REMARK  Name = 
REMARK  8 active torsions:
REMARK  status: ('A' for Active; 'I' for Inactive)
REMARK    1  A    between atoms: C_1  and  C_2
REMARK    2  A    between atoms: C_2  and  O_3
REMARK    3  A    between atoms: O_3  and  C_4
REMARK    4  A    between atoms: C_10  and  C_12
REMARK    5  A    between atoms: C_12  and  N_13
REMARK    6  A    between atoms: N_13  and  C_14
REMARK    7  A    between atoms: N_13  and  S_15
REMARK    8  A    between atoms: S_15  and  C_18
REMARK                            x       y       z     vdW  Elec       q    Type
REMARK                         _______ _______ _______ _____ _____    ______ ____
ROOT
ATOM      1  C   UNL     1      -0.080  10.134  19.552  0.00  0.00    +0.000 C 
ATOM      2  O   UNL     1      -0.847   9.984  20.493  0.00  0.00    +0.000 OA
ATOM      3  N   UNL     1       1.146   9.514  19.455  0.00  0.00    +0.000 N 
ATOM      4  C   UNL     1       1.526   8.524  20.465  0.00  0.00    +0.000 C 
ATOM      5  C   UNL     1       1.789   7.159  19.812  0.00  0.00    +0.000 C 
ATOM      6  N   UNL     1       2.758   7.284  18.715  0.00  0.00    +0.000 N 
ATOM      7  C   UNL     1       3.947   6.577  18.782  0.00  0.00    +0.000 C 
ATOM      8  O   UNL     1       4.222   5.854  19.742  0.00  0.00    +0.000 OA
ATOM      9  C   UNL     1       2.374   8.262  17.685  0.00  0.00    +0.000 C 
ATOM     10  C   UNL     1       2.058   9.637  18.310  0.00  0.00    +0.000 C 
ENDROOT
BRANCH   1  11
ATOM     11  O   UNL     1      -0.380  10.863  18.443  0.00  0.00    +0.000 OA
BRANCH  11  13
ATOM     12  C   UNL     1       0.540  12.743  19.588  0.00  0.00    +0.000 C 
ATOM     13  C   UNL     1      -0.580  12.263  18.680  0.00  0.00    +0.000 C 
ENDBRANCH  11  13
ENDBRANCH   1  11
BRANCH   7  14
ATOM     14  C   UNL     1       4.930   6.674  17.618  0.00  0.00    +0.000 C 
BRANCH  14  15
ATOM     15  N   UNL     1       4.657   5.732  16.490  0.00  0.00    +0.000 NA
ATOM     16  C   UNL     1       5.268   6.230  15.223  0.00  0.00    +0.000 C 
BRANCH  15  17
ATOM     17  S   UNL     1       5.121   4.114  16.817  0.00  0.00    +0.000 S 
ATOM     18  O   UNL     1       5.366   3.463  15.546  0.00  0.00    +0.000 OA
ATOM     19  O   UNL     1       6.135   4.145  17.846  0.00  0.00    +0.000 OA
BRANCH  17  20
ATOM     20  C   UNL     1       3.665   3.343  17.517  0.00  0.00    +0.000 A 
ATOM     21  C   UNL     1       3.812   2.287  18.428  0.00  0.00    +0.000 A 
ATOM     22  C   UNL     1       2.694   1.807  19.118  0.00  0.00    +0.000 A 
ATOM     23  C   UNL     1       1.446   2.378  18.892  0.00  0.00    +0.000 A 
ATOM     24  F   UNL     1       0.382   1.937  19.576  0.00  0.00    +0.000 F 
ATOM     25  C   UNL     1       1.290   3.422  17.983  0.00  0.00    +0.000 A 
ATOM     26  C   UNL     1       2.405   3.917  17.302  0.00  0.00    +0.000 A 
ENDBRANCH  17  20
ENDBRANCH  15  17
ENDBRANCH  14  15
ENDBRANCH   7  14
TORSDOF 6
ENDMDL
