MODEL 1
REMARK VINA RESULT:      -8.5      0.000      0.000
REMARK  Name = 
REMARK  10 active torsions:
REMARK  status: ('A' for Active; 'I' for Inactive)
REMARK    1  A    between atoms: C_1  and  O_2
REMARK    2  A    between atoms: O_2  and  C_3
REMARK    3  A    between atoms: C_9  and  S_10
REMARK    4  A    between atoms: S_10  and  C_11
REMARK    5  A    between atoms: C_13  and  C_14
REMARK    6  A    between atoms: C_15  and  C_16
REMARK    7  A    between atoms: C_16  and  C_17
REMARK    8  A    between atoms: N_19  and  C_20
REMARK    9  A    between atoms: C_30  and  O_31
REMARK   10  A    between atoms: O_31  and  C_32
REMARK                            x       y       z     vdW  Elec       q    Type
REMARK                         _______ _______ _______ _____ _____    ______ ____
ROOT
ATOM      1  C   UNL     1       1.818   7.047  20.479  0.00  0.00    +0.000 A 
ATOM      2  N   UNL     1       2.122   7.475  19.278  0.00  0.00    +0.000 NA
ATOM      3  C   UNL     1       1.736   8.798  19.109  0.00  0.00    +0.000 A 
ATOM      4  C   UNL     1       1.907   9.372  17.748  0.00  0.00    +0.000 C 
ATOM      5  C   UNL     1       1.195   9.396  20.239  0.00  0.00    +0.000 A 
ATOM      6  S   UNL     1       1.177   8.236  21.528  0.00  0.00    +0.000 S 
ENDROOT
BRANCH   1   7
ATOM      7  S   UNL     1       2.134   5.384  20.921  0.00  0.00    +0.000 S 
BRANCH   7  14
ATOM      8  C   UNL     1       6.091   4.471  17.160  0.00  0.00    +0.000 A 
ATOM      9  C   UNL     1       4.858   4.049  16.643  0.00  0.00    +0.000 A 
ATOM     10  C   UNL     1       3.680   4.108  17.376  0.00  0.00    +0.000 A 
ATOM     11  N   UNL     1       2.582   3.614  16.801  0.00  0.00    +0.000 NA
ATOM     12  C   UNL     1       1.457   3.644  17.520  0.00  0.00    +0.000 A 
ATOM     13  N   UNL     1       1.317   4.178  18.733  0.00  0.00    +0.000 NA
ATOM     14  C   UNL     1       2.433   4.700  19.292  0.00  0.00    +0.000 A 
ATOM     15  C   UNL     1       3.696   4.651  18.666  0.00  0.00    +0.000 A 
ATOM     16  C   UNL     1       4.942   5.076  19.200  0.00  0.00    +0.000 A 
ATOM     17  C   UNL     1       6.123   5.008  18.452  0.00  0.00    +0.000 A 
BRANCH   8  19
ATOM     18  C   UNL     1       7.217   4.662  15.087  0.00  0.00    +0.000 C 
ATOM     19  O   UNL     1       7.267   4.334  16.474  0.00  0.00    +0.000 OA
ENDBRANCH   8  19
BRANCH  17  20
ATOM     20  O   UNL     1       7.231   5.454  19.120  0.00  0.00    +0.000 OA
ATOM     21  C   UNL     1       7.813   6.658  18.630  0.00  0.00    +0.000 C 
ENDBRANCH  17  20
ENDBRANCH   7  14
ENDBRANCH   1   7
BRANCH   5  22
ATOM     22  C   UNL     1       0.551  10.738  20.453  0.00  0.00    +0.000 C 
BRANCH  22  23
ATOM     23  C   UNL     1      -0.335  11.212  19.310  0.00  0.00    +0.000 C 
ATOM     24  O   UNL     1      -0.010  12.166  18.609  0.00  0.00    +0.000 OA
ATOM     25  N   UNL     1      -1.489  10.458  19.133  0.00  0.00    +0.000 N 
ATOM     26  H   UNL     1      -1.879  10.035  19.968  0.00  0.00    +0.000 HD
BRANCH  25  27
ATOM     27  C   UNL     1      -2.373  10.655  18.047  0.00  0.00    +0.000 A 
ATOM     28  C   UNL     1      -3.576  11.324  18.289  0.00  0.00    +0.000 A 
ATOM     29  C   UNL     1      -4.461  11.588  17.240  0.00  0.00    +0.000 A 
ATOM     30  C   UNL     1      -4.182  11.122  15.957  0.00  0.00    +0.000 A 
ATOM     31  C   UNL     1      -3.010  10.403  15.726  0.00  0.00    +0.000 A 
ATOM     32 CL   UNL     1      -2.709   9.765  14.154  0.00  0.00    +0.000 Cl
ATOM     33  C   UNL     1      -2.094  10.183  16.759  0.00  0.00    +0.000 A 
ENDBRANCH  25  27
ENDBRANCH  22  23
ENDBRANCH   5  22
TORSDOF 7
ENDMDL
MODEL 2
REMARK VINA RESULT:      -8.4      0.980      1.297
REMARK  Name = 
REMARK  10 active torsions:
REMARK  status: ('A' for Active; 'I' for Inactive)
REMARK    1  A    between atoms: C_1  and  O_2
REMARK    2  A    between atoms: O_2  and  C_3
REMARK    3  A    between atoms: C_9  and  S_10
REMARK    4  A    between atoms: S_10  and  C_11
REMARK    5  A    between atoms: C_13  and  C_14
REMARK    6  A    between atoms: C_15  and  C_16
REMARK    7  A    between atoms: C_16  and  C_17
REMARK    8  A    between atoms: N_19  and  C_20
REMARK    9  A    between atoms: C_30  and  O_31
REMARK   10  A    between atoms: O_31  and  C_32
REMARK                            x       y       z     vdW  Elec       q    Type
REMARK                         _______ _______ _______ _____ _____    ______ ____
ROOT
ATOM      1  C   UNL     1       1.858   7.091  20.462  0.00  0.00    +0.000 A 
ATOM      2  N   UNL     1       2.127   7.459  19.233  0.00  0.00    +0.000 NA
ATOM      3  C   UNL     1       1.739   8.772  19.011  0.00  0.00    +0.000 A 
ATOM      4  C   UNL     1       1.872   9.279  17.619  0.00  0.00    +0.000 C 
ATOM      5  C   UNL     1       1.233   9.427  20.126  0.00  0.00    +0.000 A 
ATOM      6  S   UNL     1       1.251   8.331  21.470  0.00  0.00    +0.000 S 
ENDROOT
BRANCH   1   7
ATOM      7  S   UNL     1       2.184   5.450  20.975  0.00  0.00    +0.000 S 
BRANCH   7  14
ATOM      8  C   UNL     1       5.842   4.829  16.868  0.00  0.00    +0.000 A 
ATOM      9  C   UNL     1       4.646   4.185  16.521  0.00  0.00    +0.000 A 
ATOM     10  C   UNL     1       3.553   4.128  17.374  0.00  0.00    +0.000 A 
ATOM     11  N   UNL     1       2.494   3.428  16.960  0.00  0.00    +0.000 NA
ATOM     12  C   UNL     1       1.456   3.349  17.795  0.00  0.00    +0.000 A 
ATOM     13  N   UNL     1       1.355   3.956  18.978  0.00  0.00    +0.000 NA
ATOM     14  C   UNL     1       2.424   4.684  19.373  0.00  0.00    +0.000 A 
ATOM     15  C   UNL     1       3.610   4.773  18.615  0.00  0.00    +0.000 A 
ATOM     16  C   UNL     1       4.820   5.423  18.977  0.00  0.00    +0.000 A 
ATOM     17  C   UNL     1       5.917   5.471  18.109  0.00  0.00    +0.000 A 
BRANCH   8  19
ATOM     18  C   UNL     1       6.704   4.906  14.665  0.00  0.00    +0.000 C 
ATOM     19  O   UNL     1       6.951   4.813  16.066  0.00  0.00    +0.000 OA
ENDBRANCH   8  19
BRANCH  17  20
ATOM     20  O   UNL     1       7.002   6.132  18.618  0.00  0.00    +0.000 OA
ATOM     21  C   UNL     1       7.779   5.414  19.572  0.00  0.00    +0.000 C 
ENDBRANCH  17  20
ENDBRANCH   7  14
ENDBRANCH   1   7
BRANCH   5  22
ATOM     22  C   UNL     1       0.597  10.779  20.293  0.00  0.00    +0.000 C 
BRANCH  22  23
ATOM     23  C   UNL     1      -0.314  11.204  19.150  0.00  0.00    +0.000 C 
ATOM     24  O   UNL     1      -0.033  12.164  18.438  0.00  0.00    +0.000 OA
ATOM     25  N   UNL     1      -1.436  10.399  18.986  0.00  0.00    +0.000 N 
ATOM     26  H   UNL     1      -1.802   9.968  19.827  0.00  0.00    +0.000 HD
BRANCH  25  27
ATOM     27  C   UNL     1      -2.332  10.547  17.903  0.00  0.00    +0.000 A 
ATOM     28  C   UNL     1      -2.010   9.929  16.692  0.00  0.00    +0.000 A 
ATOM     29  C   UNL     1      -2.886  10.004  15.606  0.00  0.00    +0.000 A 
ATOM     30  C   UNL     1      -4.055  10.755  15.702  0.00  0.00    +0.000 A 
ATOM     31  C   UNL     1      -4.348  11.421  16.891  0.00  0.00    +0.000 A 
ATOM     32 CL   UNL     1      -5.757  12.411  16.978  0.00  0.00    +0.000 Cl
ATOM     33  C   UNL     1      -3.504  11.306  17.999  0.00  0.00    +0.000 A 
ENDBRANCH  25  27
ENDBRANCH  22  23
ENDBRANCH   5  22
TORSDOF 7
ENDMDL
MODEL 3
REMARK VINA RESULT:      -8.3      1.413      1.826
REMARK  Name = 
REMARK  10 active torsions:
REMARK  status: ('A' for Active; 'I' for Inactive)
REMARK    1  A    between atoms: C_1  and  O_2
REMARK    2  A    between atoms: O_2  and  C_3
REMARK    3  A    between atoms: C_9  and  S_10
REMARK    4  A    between atoms: S_10  and  C_11
REMARK    5  A    between atoms: C_13  and  C_14
REMARK    6  A    between atoms: C_15  and  C_16
REMARK    7  A    between atoms: C_16  and  C_17
REMARK    8  A    between atoms: N_19  and  C_20
REMARK    9  A    between atoms: C_30  and  O_31
REMARK   10  A    between atoms: O_31  and  C_32
REMARK                            x       y       z     vdW  Elec       q    Type
REMARK                         _______ _______ _______ _____ _____    ______ ____
ROOT
ATOM      1  C   UNL     1       1.974   6.887  20.383  0.00  0.00    +0.000 A 
ATOM      2  N   UNL     1       1.264   7.614  21.211  0.00  0.00    +0.000 NA
ATOM      3  C   UNL     1       0.998   8.864  20.672  0.00  0.00    +0.000 A 
ATOM      4  C   UNL     1       0.307   9.837  21.559  0.00  0.00    +0.000 C 
ATOM      5  C   UNL     1       1.459   9.051  19.376  0.00  0.00    +0.000 A 
ATOM      6  S   UNL     1       2.251   7.599  18.853  0.00  0.00    +0.000 S 
ENDROOT
BRANCH   1   7
ATOM      7  S   UNL     1       2.506   5.289  20.857  0.00  0.00    +0.000 S 
BRANCH   7  14
ATOM      8  C   UNL     1       6.184   4.527  16.790  0.00  0.00    +0.000 A 
ATOM      9  C   UNL     1       4.950   3.985  16.404  0.00  0.00    +0.000 A 
ATOM     10  C   UNL     1       3.840   3.982  17.237  0.00  0.00    +0.000 A 
ATOM     11  N   UNL     1       2.741   3.376  16.783  0.00  0.00    +0.000 NA
ATOM     12  C   UNL     1       1.684   3.348  17.599  0.00  0.00    +0.000 A 
ATOM     13  N   UNL     1       1.606   3.923  18.799  0.00  0.00    +0.000 NA
ATOM     14  C   UNL     1       2.719   4.558  19.235  0.00  0.00    +0.000 A 
ATOM     15  C   UNL     1       3.922   4.583  18.499  0.00  0.00    +0.000 A 
ATOM     16  C   UNL     1       5.169   5.130  18.901  0.00  0.00    +0.000 A 
ATOM     17  C   UNL     1       6.282   5.123  18.052  0.00  0.00    +0.000 A 
BRANCH   8  19
ATOM     18  C   UNL     1       7.122   4.800  14.635  0.00  0.00    +0.000 C 
ATOM     19  O   UNL     1       7.303   4.454  16.006  0.00  0.00    +0.000 OA
ENDBRANCH   8  19
BRANCH  17  20
ATOM     20  O   UNL     1       7.403   5.686  18.600  0.00  0.00    +0.000 OA
ATOM     21  C   UNL     1       7.739   6.990  18.133  0.00  0.00    +0.000 C 
ENDBRANCH  17  20
ENDBRANCH   7  14
ENDBRANCH   1   7
BRANCH   5  22
ATOM     22  C   UNL     1       1.493  10.264  18.488  0.00  0.00    +0.000 C 
BRANCH  22  23
ATOM     23  C   UNL     1       0.149  10.949  18.288  0.00  0.00    +0.000 C 
ATOM     24  O   UNL     1       0.010  12.149  18.512  0.00  0.00    +0.000 OA
ATOM     25  N   UNL     1      -0.853  10.111  17.814  0.00  0.00    +0.000 N 
ATOM     26  H   UNL     1      -0.788   9.138  18.089  0.00  0.00    +0.000 HD
BRANCH  25  27
ATOM     27  C   UNL     1      -2.132  10.584  17.440  0.00  0.00    +0.000 A 
ATOM     28  C   UNL     1      -2.498  10.499  16.094  0.00  0.00    +0.000 A 
ATOM     29  C   UNL     1      -3.770  10.906  15.681  0.00  0.00    +0.000 A 
ATOM     30  C   UNL     1      -4.656  11.466  16.598  0.00  0.00    +0.000 A 
ATOM     31  C   UNL     1      -4.269  11.606  17.930  0.00  0.00    +0.000 A 
ATOM     32 CL   UNL     1      -5.341  12.370  19.042  0.00  0.00    +0.000 Cl
ATOM     33  C   UNL     1      -3.020  11.150  18.361  0.00  0.00    +0.000 A 
ENDBRANCH  25  27
ENDBRANCH  22  23
ENDBRANCH   5  22
TORSDOF 7
ENDMDL
MODEL 4
REMARK VINA RESULT:      -8.2      2.887      3.729
REMARK  Name = 
REMARK  10 active torsions:
REMARK  status: ('A' for Active; 'I' for Inactive)
REMARK    1  A    between atoms: C_1  and  O_2
REMARK    2  A    between atoms: O_2  and  C_3
REMARK    3  A    between atoms: C_9  and  S_10
REMARK    4  A    between atoms: S_10  and  C_11
REMARK    5  A    between atoms: C_13  and  C_14
REMARK    6  A    between atoms: C_15  and  C_16
REMARK    7  A    between atoms: C_16  and  C_17
REMARK    8  A    between atoms: N_19  and  C_20
REMARK    9  A    between atoms: C_30  and  O_31
REMARK   10  A    between atoms: O_31  and  C_32
REMARK                            x       y       z     vdW  Elec       q    Type
REMARK                         _______ _______ _______ _____ _____    ______ ____
ROOT
ATOM      1  C   UNL     1       1.842   7.102  20.452  0.00  0.00    +0.000 A 
ATOM      2  N   UNL     1       2.222   7.550  19.280  0.00  0.00    +0.000 NA
ATOM      3  C   UNL     1       1.678   8.801  19.025  0.00  0.00    +0.000 A 
ATOM      4  C   UNL     1       1.926   9.372  17.674  0.00  0.00    +0.000 C 
ATOM      5  C   UNL     1       0.930   9.335  20.066  0.00  0.00    +0.000 A 
ATOM      6  S   UNL     1       0.923   8.205  21.382  0.00  0.00    +0.000 S 
ENDROOT
BRANCH   1   7
ATOM      7  S   UNL     1       2.333   5.509  20.981  0.00  0.00    +0.000 S 
BRANCH   7  14
ATOM      8  C   UNL     1       5.954   4.410  16.941  0.00  0.00    +0.000 A 
ATOM      9  C   UNL     1       4.693   3.920  16.576  0.00  0.00    +0.000 A 
ATOM     10  C   UNL     1       3.586   4.005  17.410  0.00  0.00    +0.000 A 
ATOM     11  N   UNL     1       2.456   3.441  16.979  0.00  0.00    +0.000 NA
ATOM     12  C   UNL     1       1.402   3.498  17.796  0.00  0.00    +0.000 A 
ATOM     13  N   UNL     1       1.357   4.119  18.975  0.00  0.00    +0.000 NA
ATOM     14  C   UNL     1       2.503   4.710  19.386  0.00  0.00    +0.000 A 
ATOM     15  C   UNL     1       3.703   4.645  18.649  0.00  0.00    +0.000 A 
ATOM     16  C   UNL     1       4.979   5.141  19.030  0.00  0.00    +0.000 A 
ATOM     17  C   UNL     1       6.087   5.045  18.181  0.00  0.00    +0.000 A 
BRANCH   8  19
ATOM     18  C   UNL     1       6.978   4.788  14.842  0.00  0.00    +0.000 C 
ATOM     19  O   UNL     1       7.066   4.251  16.159  0.00  0.00    +0.000 OA
ENDBRANCH   8  19
BRANCH  17  20
ATOM     20  O   UNL     1       7.238   5.568  18.707  0.00  0.00    +0.000 OA
ATOM     21  C   UNL     1       7.633   6.841  18.203  0.00  0.00    +0.000 C 
ENDBRANCH  17  20
ENDBRANCH   7  14
ENDBRANCH   1   7
BRANCH   5  22
ATOM     22  C   UNL     1       0.084  10.574  20.161  0.00  0.00    +0.000 C 
BRANCH  22  23
ATOM     23  C   UNL     1       0.864  11.881  20.181  0.00  0.00    +0.000 C 
ATOM     24  O   UNL     1       1.431  12.266  21.201  0.00  0.00    +0.000 OA
ATOM     25  N   UNL     1       0.892  12.547  18.962  0.00  0.00    +0.000 N 
ATOM     26  H   UNL     1       0.082  12.420  18.366  0.00  0.00    +0.000 HD
BRANCH  25  27
ATOM     27  C   UNL     1       1.671  13.706  18.741  0.00  0.00    +0.000 A 
ATOM     28  C   UNL     1       1.043  14.951  18.843  0.00  0.00    +0.000 A 
ATOM     29  C   UNL     1       1.779  16.128  18.683  0.00  0.00    +0.000 A 
ATOM     30  C   UNL     1       3.130  16.068  18.350  0.00  0.00    +0.000 A 
ATOM     31  C   UNL     1       3.744  14.826  18.190  0.00  0.00    +0.000 A 
ATOM     32 CL   UNL     1       5.395  14.759  17.703  0.00  0.00    +0.000 Cl
ATOM     33  C   UNL     1       3.027  13.644  18.403  0.00  0.00    +0.000 A 
ENDBRANCH  25  27
ENDBRANCH  22  23
ENDBRANCH   5  22
TORSDOF 7
ENDMDL
MODEL 5
REMARK VINA RESULT:      -7.9      2.908      3.824
REMARK  Name = 
REMARK  10 active torsions:
REMARK  status: ('A' for Active; 'I' for Inactive)
REMARK    1  A    between atoms: C_1  and  O_2
REMARK    2  A    between atoms: O_2  and  C_3
REMARK    3  A    between atoms: C_9  and  S_10
REMARK    4  A    between atoms: S_10  and  C_11
REMARK    5  A    between atoms: C_13  and  C_14
REMARK    6  A    between atoms: C_15  and  C_16
REMARK    7  A    between atoms: C_16  and  C_17
REMARK    8  A    between atoms: N_19  and  C_20
REMARK    9  A    between atoms: C_30  and  O_31
REMARK   10  A    between atoms: O_31  and  C_32
REMARK                            x       y       z     vdW  Elec       q    Type
REMARK                         _______ _______ _______ _____ _____    ______ ____
ROOT
ATOM      1  C   UNL     1       1.831   7.110  20.447  0.00  0.00    +0.000 A 
ATOM      2  N   UNL     1       2.211   7.552  19.272  0.00  0.00    +0.000 NA
ATOM      3  C   UNL     1       1.668   8.801  19.011  0.00  0.00    +0.000 A 
ATOM      4  C   UNL     1       1.916   9.365  17.658  0.00  0.00    +0.000 C 
ATOM      5  C   UNL     1       0.920   9.341  20.050  0.00  0.00    +0.000 A 
ATOM      6  S   UNL     1       0.913   8.218  21.372  0.00  0.00    +0.000 S 
ENDROOT
BRANCH   1   7
ATOM      7  S   UNL     1       2.322   5.519  20.984  0.00  0.00    +0.000 S 
BRANCH   7  14
ATOM      8  C   UNL     1       5.862   4.825  16.787  0.00  0.00    +0.000 A 
ATOM      9  C   UNL     1       4.660   4.169  16.489  0.00  0.00    +0.000 A 
ATOM     10  C   UNL     1       3.592   4.126  17.374  0.00  0.00    +0.000 A 
ATOM     11  N   UNL     1       2.525   3.413  17.006  0.00  0.00    +0.000 NA
ATOM     12  C   UNL     1       1.512   3.348  17.872  0.00  0.00    +0.000 A 
ATOM     13  N   UNL     1       1.442   3.979  19.045  0.00  0.00    +0.000 NA
ATOM     14  C   UNL     1       2.519   4.720  19.393  0.00  0.00    +0.000 A 
ATOM     15  C   UNL     1       3.682   4.798  18.599  0.00  0.00    +0.000 A 
ATOM     16  C   UNL     1       4.899   5.461  18.912  0.00  0.00    +0.000 A 
ATOM     17  C   UNL     1       5.970   5.494  18.011  0.00  0.00    +0.000 A 
BRANCH   8  19
ATOM     18  C   UNL     1       6.659   4.644  14.566  0.00  0.00    +0.000 C 
ATOM     19  O   UNL     1       6.947   4.797  15.953  0.00  0.00    +0.000 OA
ENDBRANCH   8  19
BRANCH  17  20
ATOM     20  O   UNL     1       7.066   6.171  18.474  0.00  0.00    +0.000 OA
ATOM     21  C   UNL     1       7.849   5.494  19.454  0.00  0.00    +0.000 C 
ENDBRANCH  17  20
ENDBRANCH   7  14
ENDBRANCH   1   7
BRANCH   5  22
ATOM     22  C   UNL     1       0.075  10.581  20.139  0.00  0.00    +0.000 C 
BRANCH  22  23
ATOM     23  C   UNL     1       0.856  11.888  20.149  0.00  0.00    +0.000 C 
ATOM     24  O   UNL     1       1.464  12.255  21.151  0.00  0.00    +0.000 OA
ATOM     25  N   UNL     1       0.833  12.576  18.941  0.00  0.00    +0.000 N 
ATOM     26  H   UNL     1      -0.001  12.458  18.377  0.00  0.00    +0.000 HD
BRANCH  25  27
ATOM     27  C   UNL     1       1.602  13.739  18.709  0.00  0.00    +0.000 A 
ATOM     28  C   UNL     1       2.922  13.580  18.277  0.00  0.00    +0.000 A 
ATOM     29  C   UNL     1       3.708  14.698  17.985  0.00  0.00    +0.000 A 
ATOM     30  C   UNL     1       3.204  15.980  18.191  0.00  0.00    +0.000 A 
ATOM     31  C   UNL     1       1.907  16.138  18.678  0.00  0.00    +0.000 A 
ATOM     32 CL   UNL     1       1.317  17.725  19.003  0.00  0.00    +0.000 Cl
ATOM     33  C   UNL     1       1.096  15.026  18.920  0.00  0.00    +0.000 A 
ENDBRANCH  25  27
ENDBRANCH  22  23
ENDBRANCH   5  22
TORSDOF 7
ENDMDL
MODEL 6
REMARK VINA RESULT:      -7.8      1.641      1.943
REMARK  Name = 
REMARK  10 active torsions:
REMARK  status: ('A' for Active; 'I' for Inactive)
REMARK    1  A    between atoms: C_1  and  O_2
REMARK    2  A    between atoms: O_2  and  C_3
REMARK    3  A    between atoms: C_9  and  S_10
REMARK    4  A    between atoms: S_10  and  C_11
REMARK    5  A    between atoms: C_13  and  C_14
REMARK    6  A    between atoms: C_15  and  C_16
REMARK    7  A    between atoms: C_16  and  C_17
REMARK    8  A    between atoms: N_19  and  C_20
REMARK    9  A    between atoms: C_30  and  O_31
REMARK   10  A    between atoms: O_31  and  C_32
REMARK                            x       y       z     vdW  Elec       q    Type
REMARK                         _______ _______ _______ _____ _____    ______ ____
ROOT
ATOM      1  C   UNL     1       1.796   7.178  20.429  0.00  0.00    +0.000 A 
ATOM      2  N   UNL     1       2.234   7.608  19.271  0.00  0.00    +0.000 NA
ATOM      3  C   UNL     1       1.716   8.862  18.978  0.00  0.00    +0.000 A 
ATOM      4  C   UNL     1       2.032   9.415  17.634  0.00  0.00    +0.000 C 
ATOM      5  C   UNL     1       0.928   9.416  19.979  0.00  0.00    +0.000 A 
ATOM      6  S   UNL     1       0.849   8.302  21.305  0.00  0.00    +0.000 S 
ENDROOT
BRANCH   1   7
ATOM      7  S   UNL     1       2.244   5.585  20.998  0.00  0.00    +0.000 S 
BRANCH   7  14
ATOM      8  C   UNL     1       5.955   4.447  17.052  0.00  0.00    +0.000 A 
ATOM      9  C   UNL     1       4.705   3.939  16.670  0.00  0.00    +0.000 A 
ATOM     10  C   UNL     1       3.582   4.029  17.480  0.00  0.00    +0.000 A 
ATOM     11  N   UNL     1       2.465   3.448  17.037  0.00  0.00    +0.000 NA
ATOM     12  C   UNL     1       1.394   3.510  17.831  0.00  0.00    +0.000 A 
ATOM     13  N   UNL     1       1.320   4.152  18.998  0.00  0.00    +0.000 NA
ATOM     14  C   UNL     1       2.452   4.760  19.421  0.00  0.00    +0.000 A 
ATOM     15  C   UNL     1       3.668   4.693  18.710  0.00  0.00    +0.000 A 
ATOM     16  C   UNL     1       4.931   5.205  19.107  0.00  0.00    +0.000 A 
ATOM     17  C   UNL     1       6.058   5.105  18.282  0.00  0.00    +0.000 A 
BRANCH   8  19
ATOM     18  C   UNL     1       6.978   4.684  14.931  0.00  0.00    +0.000 C 
ATOM     19  O   UNL     1       7.083   4.283  16.295  0.00  0.00    +0.000 OA
ENDBRANCH   8  19
BRANCH  17  20
ATOM     20  O   UNL     1       7.193   5.647  18.822  0.00  0.00    +0.000 OA
ATOM     21  C   UNL     1       7.665   6.844  18.211  0.00  0.00    +0.000 C 
ENDBRANCH  17  20
ENDBRANCH   7  14
ENDBRANCH   1   7
BRANCH   5  22
ATOM     22  C   UNL     1       0.094  10.666  20.022  0.00  0.00    +0.000 C 
BRANCH  22  23
ATOM     23  C   UNL     1      -1.207  10.594  19.235  0.00  0.00    +0.000 C 
ATOM     24  O   UNL     1      -1.532   9.571  18.639  0.00  0.00    +0.000 OA
ATOM     25  N   UNL     1      -1.971  11.755  19.289  0.00  0.00    +0.000 N 
ATOM     26  H   UNL     1      -1.456  12.622  19.390  0.00  0.00    +0.000 HD
BRANCH  25  27
ATOM     27  C   UNL     1      -3.268  11.843  18.735  0.00  0.00    +0.000 A 
ATOM     28  C   UNL     1      -3.425  11.559  17.376  0.00  0.00    +0.000 A 
ATOM     29  C   UNL     1      -4.694  11.583  16.791  0.00  0.00    +0.000 A 
ATOM     30  C   UNL     1      -5.803  11.960  17.545  0.00  0.00    +0.000 A 
ATOM     31  C   UNL     1      -5.639  12.301  18.887  0.00  0.00    +0.000 A 
ATOM     32 CL   UNL     1      -7.002  12.841  19.792  0.00  0.00    +0.000 Cl
ATOM     33  C   UNL     1      -4.381  12.226  19.492  0.00  0.00    +0.000 A 
ENDBRANCH  25  27
ENDBRANCH  22  23
ENDBRANCH   5  22
TORSDOF 7
ENDMDL
MODEL 7
REMARK VINA RESULT:      -7.4      3.655     10.122
REMARK  Name = 
REMARK  10 active torsions:
REMARK  status: ('A' for Active; 'I' for Inactive)
REMARK    1  A    between atoms: C_1  and  O_2
REMARK    2  A    between atoms: O_2  and  C_3
REMARK    3  A    between atoms: C_9  and  S_10
REMARK    4  A    between atoms: S_10  and  C_11
REMARK    5  A    between atoms: C_13  and  C_14
REMARK    6  A    between atoms: C_15  and  C_16
REMARK    7  A    between atoms: C_16  and  C_17
REMARK    8  A    between atoms: N_19  and  C_20
REMARK    9  A    between atoms: C_30  and  O_31
REMARK   10  A    between atoms: O_31  and  C_32
REMARK                            x       y       z     vdW  Elec       q    Type
REMARK                         _______ _______ _______ _____ _____    ______ ____
ROOT
ATOM      1  C   UNL     1      -0.069  11.174  19.932  0.00  0.00    +0.000 A 
ATOM      2  N   UNL     1      -0.292  11.109  21.222  0.00  0.00    +0.000 NA
ATOM      3  C   UNL     1       0.175   9.913  21.748  0.00  0.00    +0.000 A 
ATOM      4  C   UNL     1      -0.127   9.654  23.181  0.00  0.00    +0.000 C 
ATOM      5  C   UNL     1       0.831   9.093  20.840  0.00  0.00    +0.000 A 
ATOM      6  S   UNL     1       0.836   9.872  19.290  0.00  0.00    +0.000 S 
ENDROOT
BRANCH   1   7
ATOM      7  S   UNL     1      -0.630  12.554  19.015  0.00  0.00    +0.000 S 
BRANCH   7  14
ATOM      8  C   UNL     1      -6.068  12.025  19.901  0.00  0.00    +0.000 A 
ATOM      9  C   UNL     1      -5.722  11.332  18.732  0.00  0.00    +0.000 A 
ATOM     10  C   UNL     1      -4.430  11.320  18.224  0.00  0.00    +0.000 A 
ATOM     11  N   UNL     1      -4.237  10.683  17.068  0.00  0.00    +0.000 NA
ATOM     12  C   UNL     1      -3.000  10.699  16.566  0.00  0.00    +0.000 A 
ATOM     13  N   UNL     1      -1.928  11.240  17.145  0.00  0.00    +0.000 NA
ATOM     14  C   UNL     1      -2.133  11.859  18.330  0.00  0.00    +0.000 A 
ATOM     15  C   UNL     1      -3.409  11.980  18.918  0.00  0.00    +0.000 A 
ATOM     16  C   UNL     1      -3.752  12.689  20.100  0.00  0.00    +0.000 A 
ATOM     17  C   UNL     1      -5.059  12.696  20.600  0.00  0.00    +0.000 A 
BRANCH   8  19
ATOM     18  C   UNL     1      -7.797  11.029  21.173  0.00  0.00    +0.000 C 
ATOM     19  O   UNL     1      -7.355  12.111  20.356  0.00  0.00    +0.000 OA
ENDBRANCH   8  19
BRANCH  17  20
ATOM     20  O   UNL     1      -5.214  13.432  21.744  0.00  0.00    +0.000 OA
ATOM     21  C   UNL     1      -4.698  12.848  22.936  0.00  0.00    +0.000 C 
ENDBRANCH  17  20
ENDBRANCH   7  14
ENDBRANCH   1   7
BRANCH   5  22
ATOM     22  C   UNL     1       1.367   7.693  20.957  0.00  0.00    +0.000 C 
BRANCH  22  23
ATOM     23  C   UNL     1       2.217   7.233  19.781  0.00  0.00    +0.000 C 
ATOM     24  O   UNL     1       2.419   7.968  18.818  0.00  0.00    +0.000 OA
ATOM     25  N   UNL     1       2.746   5.956  19.926  0.00  0.00    +0.000 N 
ATOM     26  H   UNL     1       2.194   5.304  20.471  0.00  0.00    +0.000 HD
BRANCH  25  27
ATOM     27  C   UNL     1       3.666   5.400  19.007  0.00  0.00    +0.000 A 
ATOM     28  C   UNL     1       3.161   4.647  17.943  0.00  0.00    +0.000 A 
ATOM     29  C   UNL     1       4.025   4.119  16.980  0.00  0.00    +0.000 A 
ATOM     30  C   UNL     1       5.402   4.279  17.113  0.00  0.00    +0.000 A 
ATOM     31  C   UNL     1       5.910   4.980  18.206  0.00  0.00    +0.000 A 
ATOM     32 CL   UNL     1       7.617   5.109  18.405  0.00  0.00    +0.000 Cl
ATOM     33  C   UNL     1       5.050   5.559  19.144  0.00  0.00    +0.000 A 
ENDBRANCH  25  27
ENDBRANCH  22  23
ENDBRANCH   5  22
TORSDOF 7
ENDMDL
MODEL 8
REMARK VINA RESULT:      -7.4      2.960      9.506
REMARK  Name = 
REMARK  10 active torsions:
REMARK  status: ('A' for Active; 'I' for Inactive)
REMARK    1  A    between atoms: C_1  and  O_2
REMARK    2  A    between atoms: O_2  and  C_3
REMARK    3  A    between atoms: C_9  and  S_10
REMARK    4  A    between atoms: S_10  and  C_11
REMARK    5  A    between atoms: C_13  and  C_14
REMARK    6  A    between atoms: C_15  and  C_16
REMARK    7  A    between atoms: C_16  and  C_17
REMARK    8  A    between atoms: N_19  and  C_20
REMARK    9  A    between atoms: C_30  and  O_31
REMARK   10  A    between atoms: O_31  and  C_32
REMARK                            x       y       z     vdW  Elec       q    Type
REMARK                         _______ _______ _______ _____ _____    ______ ____
ROOT
ATOM      1  C   UNL     1       3.134   7.023  17.967  0.00  0.00    +0.000 A 
ATOM      2  N   UNL     1       2.629   5.843  18.232  0.00  0.00    +0.000 NA
ATOM      3  C   UNL     1       3.634   4.903  18.416  0.00  0.00    +0.000 A 
ATOM      4  C   UNL     1       3.199   3.492  18.599  0.00  0.00    +0.000 C 
ATOM      5  C   UNL     1       4.925   5.410  18.359  0.00  0.00    +0.000 A 
ATOM      6  S   UNL     1       4.840   7.115  18.056  0.00  0.00    +0.000 S 
ENDROOT
BRANCH   1   7
ATOM      7  S   UNL     1       2.073   8.371  17.621  0.00  0.00    +0.000 S 
BRANCH   7  14
ATOM      8  C   UNL     1      -1.327  11.630  20.528  0.00  0.00    +0.000 A 
ATOM      9  C   UNL     1      -0.620  10.799  21.409  0.00  0.00    +0.000 A 
ATOM     10  C   UNL     1       0.278   9.836  20.970  0.00  0.00    +0.000 A 
ATOM     11  N   UNL     1       0.839   9.059  21.899  0.00  0.00    +0.000 NA
ATOM     12  C   UNL     1       1.679   8.114  21.472  0.00  0.00    +0.000 A 
ATOM     13  N   UNL     1       2.057   7.915  20.209  0.00  0.00    +0.000 NA
ATOM     14  C   UNL     1       1.502   8.728  19.281  0.00  0.00    +0.000 A 
ATOM     15  C   UNL     1       0.539   9.707  19.600  0.00  0.00    +0.000 A 
ATOM     16  C   UNL     1      -0.177  10.541  18.701  0.00  0.00    +0.000 A 
ATOM     17  C   UNL     1      -1.083  11.506  19.156  0.00  0.00    +0.000 A 
BRANCH   8  19
ATOM     18  C   UNL     1      -2.187  12.918  22.317  0.00  0.00    +0.000 C 
ATOM     19  O   UNL     1      -2.276  12.520  20.952  0.00  0.00    +0.000 OA
ENDBRANCH   8  19
BRANCH  17  20
ATOM     20  O   UNL     1      -1.688  12.218  18.155  0.00  0.00    +0.000 OA
ATOM     21  C   UNL     1      -2.752  11.559  17.476  0.00  0.00    +0.000 C 
ENDBRANCH  17  20
ENDBRANCH   7  14
ENDBRANCH   1   7
BRANCH   5  22
ATOM     22  C   UNL     1       6.269   4.736  18.379  0.00  0.00    +0.000 C 
BRANCH  22  23
ATOM     23  C   UNL     1       6.915   4.555  17.012  0.00  0.00    +0.000 C 
ATOM     24  O   UNL     1       8.074   4.165  16.906  0.00  0.00    +0.000 OA
ATOM     25  N   UNL     1       6.073   4.836  15.942  0.00  0.00    +0.000 N 
ATOM     26  H   UNL     1       5.363   5.541  16.106  0.00  0.00    +0.000 HD
BRANCH  25  27
ATOM     27  C   UNL     1       6.442   4.603  14.598  0.00  0.00    +0.000 A 
ATOM     28  C   UNL     1       7.418   5.427  14.030  0.00  0.00    +0.000 A 
ATOM     29  C   UNL     1       7.854   5.207  12.721  0.00  0.00    +0.000 A 
ATOM     30  C   UNL     1       7.266   4.208  11.947  0.00  0.00    +0.000 A 
ATOM     31  C   UNL     1       6.250   3.425  12.493  0.00  0.00    +0.000 A 
ATOM     32 CL   UNL     1       5.474   2.244  11.507  0.00  0.00    +0.000 Cl
ATOM     33  C   UNL     1       5.848   3.603  13.820  0.00  0.00    +0.000 A 
ENDBRANCH  25  27
ENDBRANCH  22  23
ENDBRANCH   5  22
TORSDOF 7
ENDMDL
MODEL 9
REMARK VINA RESULT:      -7.3      3.321      4.266
REMARK  Name = 
REMARK  10 active torsions:
REMARK  status: ('A' for Active; 'I' for Inactive)
REMARK    1  A    between atoms: C_1  and  O_2
REMARK    2  A    between atoms: O_2  and  C_3
REMARK    3  A    between atoms: C_9  and  S_10
REMARK    4  A    between atoms: S_10  and  C_11
REMARK    5  A    between atoms: C_13  and  C_14
REMARK    6  A    between atoms: C_15  and  C_16
REMARK    7  A    between atoms: C_16  and  C_17
REMARK    8  A    between atoms: N_19  and  C_20
REMARK    9  A    between atoms: C_30  and  O_31
REMARK   10  A    between atoms: O_31  and  C_32
REMARK                            x       y       z     vdW  Elec       q    Type
REMARK                         _______ _______ _______ _____ _____    ______ ____
ROOT
ATOM      1  C   UNL     1       1.726   7.238  20.509  0.00  0.00    +0.000 A 
ATOM      2  N   UNL     1       2.166   7.727  19.375  0.00  0.00    +0.000 NA
ATOM      3  C   UNL     1       1.550   8.936  19.083  0.00  0.00    +0.000 A 
ATOM      4  C   UNL     1       1.863   9.540  17.761  0.00  0.00    +0.000 C 
ATOM      5  C   UNL     1       0.680   9.398  20.062  0.00  0.00    +0.000 A 
ATOM      6  S   UNL     1       0.653   8.256  21.367  0.00  0.00    +0.000 S 
ENDROOT
BRANCH   1   7
ATOM      7  S   UNL     1       2.294   5.680  21.068  0.00  0.00    +0.000 S 
BRANCH   7  14
ATOM      8  C   UNL     1       5.659   4.824  16.758  0.00  0.00    +0.000 A 
ATOM      9  C   UNL     1       4.439   4.172  16.527  0.00  0.00    +0.000 A 
ATOM     10  C   UNL     1       3.407   4.167  17.454  0.00  0.00    +0.000 A 
ATOM     11  N   UNL     1       2.319   3.455  17.150  0.00  0.00    +0.000 NA
ATOM     12  C   UNL     1       1.340   3.426  18.057  0.00  0.00    +0.000 A 
ATOM     13  N   UNL     1       1.323   4.093  19.211  0.00  0.00    +0.000 NA
ATOM     14  C   UNL     1       2.420   4.832  19.495  0.00  0.00    +0.000 A 
ATOM     15  C   UNL     1       3.552   4.874  18.654  0.00  0.00    +0.000 A 
ATOM     16  C   UNL     1       4.786   5.532  18.899  0.00  0.00    +0.000 A 
ATOM     17  C   UNL     1       5.821   5.527  17.956  0.00  0.00    +0.000 A 
BRANCH   8  19
ATOM     18  C   UNL     1       6.450   4.092  14.651  0.00  0.00    +0.000 C 
ATOM     19  O   UNL     1       6.710   4.759  15.884  0.00  0.00    +0.000 OA
ENDBRANCH   8  19
BRANCH  17  20
ATOM     20  O   UNL     1       6.941   6.205  18.356  0.00  0.00    +0.000 OA
ATOM     21  C   UNL     1       7.700   5.598  19.398  0.00  0.00    +0.000 C 
ENDBRANCH  17  20
ENDBRANCH   7  14
ENDBRANCH   1   7
BRANCH   5  22
ATOM     22  C   UNL     1      -0.263  10.568  20.094  0.00  0.00    +0.000 C 
BRANCH  22  23
ATOM     23  C   UNL     1       0.115  11.669  21.076  0.00  0.00    +0.000 C 
ATOM     24  O   UNL     1       1.253  11.750  21.530  0.00  0.00    +0.000 OA
ATOM     25  N   UNL     1      -0.918  12.553  21.366  0.00  0.00    +0.000 N 
ATOM     26  H   UNL     1      -1.856  12.171  21.330  0.00  0.00    +0.000 HD
BRANCH  25  27
ATOM     27  C   UNL     1      -0.732  13.715  22.149  0.00  0.00    +0.000 A 
ATOM     28  C   UNL     1       0.071  14.737  21.633  0.00  0.00    +0.000 A 
ATOM     29  C   UNL     1       0.245  15.926  22.346  0.00  0.00    +0.000 A 
ATOM     30  C   UNL     1      -0.322  16.072  23.610  0.00  0.00    +0.000 A 
ATOM     31  C   UNL     1      -1.073  15.030  24.151  0.00  0.00    +0.000 A 
ATOM     32 CL   UNL     1      -1.707  15.189  25.746  0.00  0.00    +0.000 Cl
ATOM     33  C   UNL     1      -1.298  13.860  23.421  0.00  0.00    +0.000 A 
ENDBRANCH  25  27
ENDBRANCH  22  23
ENDBRANCH   5  22
TORSDOF 7
ENDMDL
