MODEL 1
REMARK VINA RESULT:      -7.2      0.000      0.000
REMARK  Name = 
REMARK  7 active torsions:
REMARK  status: ('A' for Active; 'I' for Inactive)
REMARK    1  A    between atoms: C_1  and  C_2
REMARK    2  A    between atoms: C_4  and  C_5
REMARK    3  A    between atoms: C_5  and  S_6
REMARK    4  A    between atoms: S_6  and  C_8
REMARK    5  A    between atoms: C_8  and  C_9
REMARK    6  A    between atoms: N_11  and  C_12
REMARK    7  A    between atoms: C_12  and  C_13
REMARK                            x       y       z     vdW  Elec       q    Type
REMARK                         _______ _______ _______ _____ _____    ______ ____
ROOT
ATOM      1  C   UNL     1       5.332   6.346  17.436  0.00  0.00    +0.000 C 
ENDROOT
BRANCH   1   2
ATOM      2  C   UNL     1       4.473   6.002  18.626  0.00  0.00    +0.000 C 
ATOM      3  O   UNL     1       4.903   5.378  19.596  0.00  0.00    +0.000 OA
ATOM      4  N   UNL     1       3.162   6.413  18.534  0.00  0.00    +0.000 N 
ATOM      5  H   UNL     1       2.904   7.144  17.881  0.00  0.00    +0.000 HD
BRANCH   4   6
ATOM      6  C   UNL     1       2.266   6.170  19.645  0.00  0.00    +0.000 C 
BRANCH   6   7
ATOM      7  C   UNL     1       1.815   4.747  19.617  0.00  0.00    +0.000 A 
ATOM      8  C   UNL     1       1.536   3.926  20.692  0.00  0.00    +0.000 A 
ATOM      9  C   UNL     1       1.046   2.651  20.290  0.00  0.00    +0.000 A 
ATOM     10  C   UNL     1       0.982   2.535  18.920  0.00  0.00    +0.000 A 
ATOM     11  S   UNL     1       1.525   3.951  18.129  0.00  0.00    +0.000 S 
ENDBRANCH   6   7
ENDBRANCH   4   6
ENDBRANCH   1   2
BRANCH   1  12
ATOM     12  S   UNL     1       7.101   6.379  17.866  0.00  0.00    +0.000 S 
ATOM     13  O   UNL     1       7.765   7.471  16.945  0.00  0.00    +0.000 OA
BRANCH  12  14
ATOM     14  C   UNL     1       7.524   4.730  17.197  0.00  0.00    +0.000 C 
BRANCH  14  18
ATOM     15  C   UNL     1       5.519   3.566  12.650  0.00  0.00    +0.000 C 
ATOM     16  C   UNL     1       6.245   4.063  13.831  0.00  0.00    +0.000 A 
ATOM     17  C   UNL     1       6.229   3.732  15.161  0.00  0.00    +0.000 A 
ATOM     18  C   UNL     1       7.145   4.629  15.761  0.00  0.00    +0.000 A 
ATOM     19  N   UNL     1       7.711   5.425  14.841  0.00  0.00    +0.000 NA
ATOM     20  O   UNL     1       7.133   5.072  13.632  0.00  0.00    +0.000 OA
ENDBRANCH  14  18
ENDBRANCH  12  14
ENDBRANCH   1  12
TORSDOF 6
ENDMDL
MODEL 2
REMARK VINA RESULT:      -7.0      1.312      1.502
REMARK  Name = 
REMARK  7 active torsions:
REMARK  status: ('A' for Active; 'I' for Inactive)
REMARK    1  A    between atoms: C_1  and  C_2
REMARK    2  A    between atoms: C_4  and  C_5
REMARK    3  A    between atoms: C_5  and  S_6
REMARK    4  A    between atoms: S_6  and  C_8
REMARK    5  A    between atoms: C_8  and  C_9
REMARK    6  A    between atoms: N_11  and  C_12
REMARK    7  A    between atoms: C_12  and  C_13
REMARK                            x       y       z     vdW  Elec       q    Type
REMARK                         _______ _______ _______ _____ _____    ______ ____
ROOT
ATOM      1  C   UNL     1       5.348   6.473  16.988  0.00  0.00    +0.000 C 
ENDROOT
BRANCH   1   2
ATOM      2  C   UNL     1       3.933   6.442  17.508  0.00  0.00    +0.000 C 
ATOM      3  O   UNL     1       3.354   7.448  17.917  0.00  0.00    +0.000 OA
ATOM      4  N   UNL     1       3.345   5.196  17.519  0.00  0.00    +0.000 N 
ATOM      5  H   UNL     1       3.719   4.454  16.938  0.00  0.00    +0.000 HD
BRANCH   4   6
ATOM      6  C   UNL     1       1.972   5.067  17.958  0.00  0.00    +0.000 C 
BRANCH   6   7
ATOM      7  C   UNL     1       1.927   4.265  19.216  0.00  0.00    +0.000 A 
ATOM      8  C   UNL     1       1.634   2.922  19.353  0.00  0.00    +0.000 A 
ATOM      9  C   UNL     1       1.769   2.471  20.698  0.00  0.00    +0.000 A 
ATOM     10  C   UNL     1       2.145   3.488  21.544  0.00  0.00    +0.000 A 
ATOM     11  S   UNL     1       2.318   4.979  20.723  0.00  0.00    +0.000 S 
ENDBRANCH   6   7
ENDBRANCH   4   6
ENDBRANCH   1   2
BRANCH   1  12
ATOM     12  S   UNL     1       6.554   6.057  18.287  0.00  0.00    +0.000 S 
ATOM     13  O   UNL     1       7.703   7.131  18.191  0.00  0.00    +0.000 OA
BRANCH  12  14
ATOM     14  C   UNL     1       7.159   4.501  17.540  0.00  0.00    +0.000 C 
BRANCH  14  18
ATOM     15  C   UNL     1       5.768   3.667  12.701  0.00  0.00    +0.000 C 
ATOM     16  C   UNL     1       6.325   4.084  13.999  0.00  0.00    +0.000 A 
ATOM     17  C   UNL     1       6.161   3.641  15.286  0.00  0.00    +0.000 A 
ATOM     18  C   UNL     1       6.960   4.511  16.065  0.00  0.00    +0.000 A 
ATOM     19  N   UNL     1       7.601   5.399  15.290  0.00  0.00    +0.000 NA
ATOM     20  O   UNL     1       7.189   5.132  13.994  0.00  0.00    +0.000 OA
ENDBRANCH  14  18
ENDBRANCH  12  14
ENDBRANCH   1  12
TORSDOF 6
ENDMDL
MODEL 3
REMARK VINA RESULT:      -6.9      0.890      1.155
REMARK  Name = 
REMARK  7 active torsions:
REMARK  status: ('A' for Active; 'I' for Inactive)
REMARK    1  A    between atoms: C_1  and  C_2
REMARK    2  A    between atoms: C_4  and  C_5
REMARK    3  A    between atoms: C_5  and  S_6
REMARK    4  A    between atoms: S_6  and  C_8
REMARK    5  A    between atoms: C_8  and  C_9
REMARK    6  A    between atoms: N_11  and  C_12
REMARK    7  A    between atoms: C_12  and  C_13
REMARK                            x       y       z     vdW  Elec       q    Type
REMARK                         _______ _______ _______ _____ _____    ______ ____
ROOT
ATOM      1  C   UNL     1       5.453   6.779  17.245  0.00  0.00    +0.000 C 
ENDROOT
BRANCH   1   2
ATOM      2  C   UNL     1       4.465   6.245  18.251  0.00  0.00    +0.000 C 
ATOM      3  O   UNL     1       4.811   5.759  19.327  0.00  0.00    +0.000 OA
ATOM      4  N   UNL     1       3.145   6.315  17.863  0.00  0.00    +0.000 N 
ATOM      5  H   UNL     1       2.867   6.951  17.124  0.00  0.00    +0.000 HD
BRANCH   4   6
ATOM      6  C   UNL     1       2.116   5.868  18.777  0.00  0.00    +0.000 C 
BRANCH   6   7
ATOM      7  C   UNL     1       1.999   4.382  18.705  0.00  0.00    +0.000 A 
ATOM      8  C   UNL     1       2.230   3.567  17.614  0.00  0.00    +0.000 A 
ATOM      9  C   UNL     1       2.104   2.184  17.932  0.00  0.00    +0.000 A 
ATOM     10  C   UNL     1       1.766   1.990  19.252  0.00  0.00    +0.000 A 
ATOM     11  S   UNL     1       1.587   3.468  20.094  0.00  0.00    +0.000 S 
ENDBRANCH   6   7
ENDBRANCH   4   6
ENDBRANCH   1   2
BRANCH   1  12
ATOM     12  S   UNL     1       7.171   6.591  17.819  0.00  0.00    +0.000 S 
ATOM     13  O   UNL     1       8.053   7.520  16.902  0.00  0.00    +0.000 OA
BRANCH  12  14
ATOM     14  C   UNL     1       7.400   4.860  17.274  0.00  0.00    +0.000 C 
BRANCH  14  18
ATOM     15  C   UNL     1       5.475   3.577  12.725  0.00  0.00    +0.000 C 
ATOM     16  C   UNL     1       6.188   4.096  13.904  0.00  0.00    +0.000 A 
ATOM     17  C   UNL     1       6.121   3.827  15.246  0.00  0.00    +0.000 A 
ATOM     18  C   UNL     1       7.057   4.710  15.833  0.00  0.00    +0.000 A 
ATOM     19  N   UNL     1       7.683   5.439  14.896  0.00  0.00    +0.000 NA
ATOM     20  O   UNL     1       7.125   5.056  13.688  0.00  0.00    +0.000 OA
ENDBRANCH  14  18
ENDBRANCH  12  14
ENDBRANCH   1  12
TORSDOF 6
ENDMDL
MODEL 4
REMARK VINA RESULT:      -6.9      4.467      7.034
REMARK  Name = 
REMARK  7 active torsions:
REMARK  status: ('A' for Active; 'I' for Inactive)
REMARK    1  A    between atoms: C_1  and  C_2
REMARK    2  A    between atoms: C_4  and  C_5
REMARK    3  A    between atoms: C_5  and  S_6
REMARK    4  A    between atoms: S_6  and  C_8
REMARK    5  A    between atoms: C_8  and  C_9
REMARK    6  A    between atoms: N_11  and  C_12
REMARK    7  A    between atoms: C_12  and  C_13
REMARK                            x       y       z     vdW  Elec       q    Type
REMARK                         _______ _______ _______ _____ _____    ______ ____
ROOT
ATOM      1  C   UNL     1       8.055   6.735  18.820  0.00  0.00    +0.000 C 
ENDROOT
BRANCH   1   2
ATOM      2  C   UNL     1       8.069   8.044  18.072  0.00  0.00    +0.000 C 
ATOM      3  O   UNL     1       7.508   8.194  16.987  0.00  0.00    +0.000 OA
ATOM      4  N   UNL     1       8.783   9.053  18.680  0.00  0.00    +0.000 N 
ATOM      5  H   UNL     1       8.993   8.999  19.671  0.00  0.00    +0.000 HD
BRANCH   4   6
ATOM      6  C   UNL     1       8.820  10.362  18.064  0.00  0.00    +0.000 C 
BRANCH   6   7
ATOM      7  C   UNL     1       9.518  11.319  18.973  0.00  0.00    +0.000 A 
ATOM      8  C   UNL     1      10.278  12.418  18.622  0.00  0.00    +0.000 A 
ATOM      9  C   UNL     1      10.723  13.156  19.756  0.00  0.00    +0.000 A 
ATOM     10  C   UNL     1      10.300  12.587  20.936  0.00  0.00    +0.000 A 
ATOM     11  S   UNL     1       9.387  11.164  20.673  0.00  0.00    +0.000 S 
ENDBRANCH   6   7
ENDBRANCH   4   6
ENDBRANCH   1   2
BRANCH   1  12
ATOM     12  S   UNL     1       6.612   5.718  18.375  0.00  0.00    +0.000 S 
ATOM     13  O   UNL     1       6.112   5.044  19.709  0.00  0.00    +0.000 OA
BRANCH  12  14
ATOM     14  C   UNL     1       7.516   4.462  17.401  0.00  0.00    +0.000 C 
BRANCH  14  18
ATOM     15  C   UNL     1       5.425   3.744  12.801  0.00  0.00    +0.000 C 
ATOM     16  C   UNL     1       6.169   4.128  14.012  0.00  0.00    +0.000 A 
ATOM     17  C   UNL     1       6.191   3.658  15.299  0.00  0.00    +0.000 A 
ATOM     18  C   UNL     1       7.104   4.505  15.971  0.00  0.00    +0.000 A 
ATOM     19  N   UNL     1       7.634   5.406  15.129  0.00  0.00    +0.000 NA
ATOM     20  O   UNL     1       7.034   5.170  13.902  0.00  0.00    +0.000 OA
ENDBRANCH  14  18
ENDBRANCH  12  14
ENDBRANCH   1  12
TORSDOF 6
ENDMDL
MODEL 5
REMARK VINA RESULT:      -6.8      1.997      2.214
REMARK  Name = 
REMARK  7 active torsions:
REMARK  status: ('A' for Active; 'I' for Inactive)
REMARK    1  A    between atoms: C_1  and  C_2
REMARK    2  A    between atoms: C_4  and  C_5
REMARK    3  A    between atoms: C_5  and  S_6
REMARK    4  A    between atoms: S_6  and  C_8
REMARK    5  A    between atoms: C_8  and  C_9
REMARK    6  A    between atoms: N_11  and  C_12
REMARK    7  A    between atoms: C_12  and  C_13
REMARK                            x       y       z     vdW  Elec       q    Type
REMARK                         _______ _______ _______ _____ _____    ______ ____
ROOT
ATOM      1  C   UNL     1       7.682   6.813  18.516  0.00  0.00    +0.000 C 
ENDROOT
BRANCH   1   2
ATOM      2  C   UNL     1       7.054   5.727  19.351  0.00  0.00    +0.000 C 
ATOM      3  O   UNL     1       7.658   5.153  20.256  0.00  0.00    +0.000 OA
ATOM      4  N   UNL     1       5.760   5.403  19.004  0.00  0.00    +0.000 N 
ATOM      5  H   UNL     1       5.202   6.054  18.463  0.00  0.00    +0.000 HD
BRANCH   4   6
ATOM      6  C   UNL     1       5.053   4.402  19.774  0.00  0.00    +0.000 C 
BRANCH   6   7
ATOM      7  C   UNL     1       3.986   3.789  18.929  0.00  0.00    +0.000 A 
ATOM      8  C   UNL     1       3.707   4.044  17.601  0.00  0.00    +0.000 A 
ATOM      9  C   UNL     1       2.671   3.210  17.092  0.00  0.00    +0.000 A 
ATOM     10  C   UNL     1       2.182   2.356  18.054  0.00  0.00    +0.000 A 
ATOM     11  S   UNL     1       2.959   2.573  19.562  0.00  0.00    +0.000 S 
ENDBRANCH   6   7
ENDBRANCH   4   6
ENDBRANCH   1   2
BRANCH   1  12
ATOM     12  S   UNL     1       7.055   6.801  16.807  0.00  0.00    +0.000 S 
ATOM     13  O   UNL     1       5.514   7.120  16.894  0.00  0.00    +0.000 OA
BRANCH  12  14
ATOM     14  C   UNL     1       7.255   5.008  16.508  0.00  0.00    +0.000 C 
BRANCH  14  18
ATOM     15  C   UNL     1       5.566   3.164  12.059  0.00  0.00    +0.000 C 
ATOM     16  C   UNL     1       6.220   3.825  13.201  0.00  0.00    +0.000 A 
ATOM     17  C   UNL     1       6.076   3.730  14.560  0.00  0.00    +0.000 A 
ATOM     18  C   UNL     1       6.989   4.677  15.082  0.00  0.00    +0.000 A 
ATOM     19  N   UNL     1       7.675   5.277  14.096  0.00  0.00    +0.000 NA
ATOM     20  O   UNL     1       7.179   4.745  12.917  0.00  0.00    +0.000 OA
ENDBRANCH  14  18
ENDBRANCH  12  14
ENDBRANCH   1  12
TORSDOF 6
ENDMDL
MODEL 6
REMARK VINA RESULT:      -6.8      2.744      4.221
REMARK  Name = 
REMARK  7 active torsions:
REMARK  status: ('A' for Active; 'I' for Inactive)
REMARK    1  A    between atoms: C_1  and  C_2
REMARK    2  A    between atoms: C_4  and  C_5
REMARK    3  A    between atoms: C_5  and  S_6
REMARK    4  A    between atoms: S_6  and  C_8
REMARK    5  A    between atoms: C_8  and  C_9
REMARK    6  A    between atoms: N_11  and  C_12
REMARK    7  A    between atoms: C_12  and  C_13
REMARK                            x       y       z     vdW  Elec       q    Type
REMARK                         _______ _______ _______ _____ _____    ______ ____
ROOT
ATOM      1  C   UNL     1       2.928   3.338  20.406  0.00  0.00    +0.000 C 
ENDROOT
BRANCH   1   2
ATOM      2  C   UNL     1       1.937   4.469  20.519  0.00  0.00    +0.000 C 
ATOM      3  O   UNL     1       0.727   4.307  20.372  0.00  0.00    +0.000 OA
ATOM      4  N   UNL     1       2.492   5.704  20.771  0.00  0.00    +0.000 N 
ATOM      5  H   UNL     1       3.428   5.771  21.156  0.00  0.00    +0.000 HD
BRANCH   4   6
ATOM      6  C   UNL     1       1.622   6.848  20.942  0.00  0.00    +0.000 C 
BRANCH   6   7
ATOM      7  C   UNL     1       1.787   7.774  19.783  0.00  0.00    +0.000 A 
ATOM      8  C   UNL     1       2.478   7.546  18.609  0.00  0.00    +0.000 A 
ATOM      9  C   UNL     1       2.352   8.623  17.685  0.00  0.00    +0.000 A 
ATOM     10  C   UNL     1       1.583   9.646  18.193  0.00  0.00    +0.000 A 
ATOM     11  S   UNL     1       1.031   9.311  19.776  0.00  0.00    +0.000 S 
ENDBRANCH   6   7
ENDBRANCH   4   6
ENDBRANCH   1   2
BRANCH   1  12
ATOM     12  S   UNL     1       3.638   3.226  18.733  0.00  0.00    +0.000 S 
ATOM     13  O   UNL     1       3.999   1.709  18.501  0.00  0.00    +0.000 OA
BRANCH  12  14
ATOM     14  C   UNL     1       5.184   4.137  19.085  0.00  0.00    +0.000 C 
BRANCH  14  18
ATOM     15  C   UNL     1       6.875   4.747  14.309  0.00  0.00    +0.000 C 
ATOM     16  C   UNL     1       6.633   4.580  15.752  0.00  0.00    +0.000 A 
ATOM     17  C   UNL     1       5.509   4.357  16.504  0.00  0.00    +0.000 A 
ATOM     18  C   UNL     1       5.974   4.337  17.840  0.00  0.00    +0.000 A 
ATOM     19  N   UNL     1       7.306   4.496  17.888  0.00  0.00    +0.000 NA
ATOM     20  O   UNL     1       7.712   4.659  16.573  0.00  0.00    +0.000 OA
ENDBRANCH  14  18
ENDBRANCH  12  14
ENDBRANCH   1  12
TORSDOF 6
ENDMDL
MODEL 7
REMARK VINA RESULT:      -6.7      1.305      1.516
REMARK  Name = 
REMARK  7 active torsions:
REMARK  status: ('A' for Active; 'I' for Inactive)
REMARK    1  A    between atoms: C_1  and  C_2
REMARK    2  A    between atoms: C_4  and  C_5
REMARK    3  A    between atoms: C_5  and  S_6
REMARK    4  A    between atoms: S_6  and  C_8
REMARK    5  A    between atoms: C_8  and  C_9
REMARK    6  A    between atoms: N_11  and  C_12
REMARK    7  A    between atoms: C_12  and  C_13
REMARK                            x       y       z     vdW  Elec       q    Type
REMARK                         _______ _______ _______ _____ _____    ______ ____
ROOT
ATOM      1  C   UNL     1       6.181   5.314  19.172  0.00  0.00    +0.000 C 
ENDROOT
BRANCH   1   2
ATOM      2  C   UNL     1       4.876   4.833  18.588  0.00  0.00    +0.000 C 
ATOM      3  O   UNL     1       4.755   3.732  18.054  0.00  0.00    +0.000 OA
ATOM      4  N   UNL     1       3.836   5.733  18.672  0.00  0.00    +0.000 N 
ATOM      5  H   UNL     1       3.876   6.493  19.342  0.00  0.00    +0.000 HD
BRANCH   4   6
ATOM      6  C   UNL     1       2.530   5.349  18.180  0.00  0.00    +0.000 C 
BRANCH   6   7
ATOM      7  C   UNL     1       1.915   4.367  19.120  0.00  0.00    +0.000 A 
ATOM      8  C   UNL     1       1.278   3.181  18.808  0.00  0.00    +0.000 A 
ATOM      9  C   UNL     1       0.888   2.452  19.968  0.00  0.00    +0.000 A 
ATOM     10  C   UNL     1       1.227   3.112  21.127  0.00  0.00    +0.000 A 
ATOM     11  S   UNL     1       1.995   4.608  20.814  0.00  0.00    +0.000 S 
ENDBRANCH   6   7
ENDBRANCH   4   6
ENDBRANCH   1   2
BRANCH   1  12
ATOM     12  S   UNL     1       7.388   5.735  17.875  0.00  0.00    +0.000 S 
ATOM     13  O   UNL     1       8.125   7.042  18.357  0.00  0.00    +0.000 OA
BRANCH  12  14
ATOM     14  C   UNL     1       6.176   6.201  16.586  0.00  0.00    +0.000 C 
BRANCH  14  18
ATOM     15  C   UNL     1       5.944   3.197  12.467  0.00  0.00    +0.000 C 
ATOM     16  C   UNL     1       6.250   4.108  13.583  0.00  0.00    +0.000 A 
ATOM     17  C   UNL     1       5.554   4.518  14.689  0.00  0.00    +0.000 A 
ATOM     18  C   UNL     1       6.418   5.436  15.333  0.00  0.00    +0.000 A 
ATOM     19  N   UNL     1       7.584   5.540  14.676  0.00  0.00    +0.000 NA
ATOM     20  O   UNL     1       7.468   4.711  13.572  0.00  0.00    +0.000 OA
ENDBRANCH  14  18
ENDBRANCH  12  14
ENDBRANCH   1  12
TORSDOF 6
ENDMDL
MODEL 8
REMARK VINA RESULT:      -6.7      2.568      4.534
REMARK  Name = 
REMARK  7 active torsions:
REMARK  status: ('A' for Active; 'I' for Inactive)
REMARK    1  A    between atoms: C_1  and  C_2
REMARK    2  A    between atoms: C_4  and  C_5
REMARK    3  A    between atoms: C_5  and  S_6
REMARK    4  A    between atoms: S_6  and  C_8
REMARK    5  A    between atoms: C_8  and  C_9
REMARK    6  A    between atoms: N_11  and  C_12
REMARK    7  A    between atoms: C_12  and  C_13
REMARK                            x       y       z     vdW  Elec       q    Type
REMARK                         _______ _______ _______ _____ _____    ______ ____
ROOT
ATOM      1  C   UNL     1       6.408   4.943  17.441  0.00  0.00    +0.000 C 
ENDROOT
BRANCH   1   2
ATOM      2  C   UNL     1       6.038   4.378  18.789  0.00  0.00    +0.000 C 
ATOM      3  O   UNL     1       6.476   4.837  19.843  0.00  0.00    +0.000 OA
ATOM      4  N   UNL     1       5.196   3.288  18.751  0.00  0.00    +0.000 N 
ATOM      5  H   UNL     1       4.641   3.106  17.922  0.00  0.00    +0.000 HD
BRANCH   4   6
ATOM      6  C   UNL     1       4.747   2.699  19.994  0.00  0.00    +0.000 C 
BRANCH   6   7
ATOM      7  C   UNL     1       3.257   2.762  20.063  0.00  0.00    +0.000 A 
ATOM      8  C   UNL     1       2.471   3.020  21.169  0.00  0.00    +0.000 A 
ATOM      9  C   UNL     1       1.085   3.088  20.848  0.00  0.00    +0.000 A 
ATOM     10  C   UNL     1       0.858   2.863  19.509  0.00  0.00    +0.000 A 
ATOM     11  S   UNL     1       2.307   2.559  18.653  0.00  0.00    +0.000 S 
ENDBRANCH   6   7
ENDBRANCH   4   6
ENDBRANCH   1   2
BRANCH   1  12
ATOM     12  S   UNL     1       4.947   5.161  16.376  0.00  0.00    +0.000 S 
ATOM     13  O   UNL     1       5.446   4.988  14.891  0.00  0.00    +0.000 OA
BRANCH  12  14
ATOM     14  C   UNL     1       4.701   6.945  16.695  0.00  0.00    +0.000 C 
BRANCH  14  18
ATOM     15  C   UNL     1       1.504   6.660  20.662  0.00  0.00    +0.000 C 
ATOM     16  C   UNL     1       2.304   6.958  19.463  0.00  0.00    +0.000 A 
ATOM     17  C   UNL     1       3.296   6.288  18.795  0.00  0.00    +0.000 A 
ATOM     18  C   UNL     1       3.663   7.156  17.740  0.00  0.00    +0.000 A 
ATOM     19  N   UNL     1       2.907   8.265  17.745  0.00  0.00    +0.000 NA
ATOM     20  O   UNL     1       2.063   8.139  18.836  0.00  0.00    +0.000 OA
ENDBRANCH  14  18
ENDBRANCH  12  14
ENDBRANCH   1  12
TORSDOF 6
ENDMDL
MODEL 9
REMARK VINA RESULT:      -6.7      1.246      1.333
REMARK  Name = 
REMARK  7 active torsions:
REMARK  status: ('A' for Active; 'I' for Inactive)
REMARK    1  A    between atoms: C_1  and  C_2
REMARK    2  A    between atoms: C_4  and  C_5
REMARK    3  A    between atoms: C_5  and  S_6
REMARK    4  A    between atoms: S_6  and  C_8
REMARK    5  A    between atoms: C_8  and  C_9
REMARK    6  A    between atoms: N_11  and  C_12
REMARK    7  A    between atoms: C_12  and  C_13
REMARK                            x       y       z     vdW  Elec       q    Type
REMARK                         _______ _______ _______ _____ _____    ______ ____
ROOT
ATOM      1  C   UNL     1       6.224   5.671  19.063  0.00  0.00    +0.000 C 
ENDROOT
BRANCH   1   2
ATOM      2  C   UNL     1       4.736   5.582  18.831  0.00  0.00    +0.000 C 
ATOM      3  O   UNL     1       3.921   6.195  19.518  0.00  0.00    +0.000 OA
ATOM      4  N   UNL     1       4.357   4.739  17.810  0.00  0.00    +0.000 N 
ATOM      5  H   UNL     1       5.028   4.472  17.098  0.00  0.00    +0.000 HD
BRANCH   4   6
ATOM      6  C   UNL     1       2.954   4.619  17.478  0.00  0.00    +0.000 C 
BRANCH   6   7
ATOM      7  C   UNL     1       2.277   3.755  18.489  0.00  0.00    +0.000 A 
ATOM      8  C   UNL     1       1.235   4.093  19.330  0.00  0.00    +0.000 A 
ATOM      9  C   UNL     1       0.781   2.988  20.107  0.00  0.00    +0.000 A 
ATOM     10  C   UNL     1       1.504   1.847  19.844  0.00  0.00    +0.000 A 
ATOM     11  S   UNL     1       2.729   2.114  18.680  0.00  0.00    +0.000 S 
ENDBRANCH   6   7
ENDBRANCH   4   6
ENDBRANCH   1   2
BRANCH   1  12
ATOM     12  S   UNL     1       7.104   6.266  17.585  0.00  0.00    +0.000 S 
ATOM     13  O   UNL     1       6.017   6.917  16.648  0.00  0.00    +0.000 OA
BRANCH  12  14
ATOM     14  C   UNL     1       7.538   4.624  16.907  0.00  0.00    +0.000 C 
BRANCH  14  18
ATOM     15  C   UNL     1       5.454   3.521  12.381  0.00  0.00    +0.000 C 
ATOM     16  C   UNL     1       6.213   3.988  13.554  0.00  0.00    +0.000 A 
ATOM     17  C   UNL     1       6.177   3.681  14.889  0.00  0.00    +0.000 A 
ATOM     18  C   UNL     1       7.151   4.525  15.474  0.00  0.00    +0.000 A 
ATOM     19  N   UNL     1       7.768   5.266  14.540  0.00  0.00    +0.000 NA
ATOM     20  O   UNL     1       7.166   4.932  13.338  0.00  0.00    +0.000 OA
ENDBRANCH  14  18
ENDBRANCH  12  14
ENDBRANCH   1  12
TORSDOF 6
ENDMDL
