MODEL 1
REMARK VINA RESULT:      -6.8      0.000      0.000
REMARK  Name = 
REMARK  6 active torsions:
REMARK  status: ('A' for Active; 'I' for Inactive)
REMARK    1  A    between atoms: C_1  and  N_2
REMARK    2  A    between atoms: N_2  and  C_3
REMARK    3  A    between atoms: N_2  and  C_4
REMARK    4  A    between atoms: C_4  and  C_5
REMARK    5  A    between atoms: C_5  and  N_6
REMARK    6  A    between atoms: N_14  and  C_15
REMARK                            x       y       z     vdW  Elec       q    Type
REMARK                         _______ _______ _______ _____ _____    ______ ____
ROOT
ATOM      1  N   UNL     1       3.343   5.255  19.314  0.00  0.00    +0.000 N 
ATOM      2  C   UNL     1       2.661   6.469  19.235  0.00  0.00    +0.000 A 
ATOM      3  C   UNL     1       1.961   6.892  20.359  0.00  0.00    +0.000 A 
ATOM      4  C   UNL     1       1.444   8.172  20.423  0.00  0.00    +0.000 A 
ATOM      5  N   UNL     1       0.908   8.595  21.573  0.00  0.00    +0.000 NA
ATOM      6  C   UNL     1       0.518   9.873  21.623  0.00  0.00    +0.000 A 
ATOM      7  N   UNL     1       0.580  10.753  20.622  0.00  0.00    +0.000 NA
ATOM      8  C   UNL     1       1.097  10.314  19.459  0.00  0.00    +0.000 A 
ATOM      9  N   UNL     1       1.184  11.230  18.377  0.00  0.00    +0.000 N 
ATOM     10  C   UNL     1       1.553   8.997  19.305  0.00  0.00    +0.000 A 
ATOM     11  C   UNL     1       2.178   8.462  18.176  0.00  0.00    +0.000 A 
ATOM     12  N   UNL     1       2.744   7.235  18.132  0.00  0.00    +0.000 NA
ATOM     13  H   UNL     1       2.704   4.462  19.324  0.00  0.00    +0.000 HD
ATOM     14  H   UNL     1       0.462  11.015  17.698  0.00  0.00    +0.000 HD
ENDROOT
BRANCH   9  15
ATOM     15  C   UNL     1       1.419  12.618  18.518  0.00  0.00    +0.000 A 
ATOM     16  C   UNL     1       0.356  13.499  18.750  0.00  0.00    +0.000 A 
ATOM     17  C   UNL     1       0.577  14.879  18.830  0.00  0.00    +0.000 A 
ATOM     18  C   UNL     1       1.859  15.396  18.647  0.00  0.00    +0.000 A 
ATOM     19  C   UNL     1       2.914  14.532  18.379  0.00  0.00    +0.000 A 
ATOM     20 BR   UNL     1       4.651  15.221  18.091  0.00  0.00    +0.000 Br
ATOM     21  C   UNL     1       2.699  13.156  18.309  0.00  0.00    +0.000 A 
ENDBRANCH   9  15
BRANCH   1  22
ATOM     22  C   UNL     1       4.435   5.079  18.364  0.00  0.00    +0.000 C 
BRANCH  22  23
ATOM     23  C   UNL     1       5.725   4.673  19.109  0.00  0.00    +0.000 C 
BRANCH  23  25
ATOM     24  C   UNL     1       6.693   4.588  16.875  0.00  0.00    +0.000 C 
ATOM     25  N   UNL     1       6.966   4.773  18.304  0.00  0.00    +0.000 NA
ATOM     26  C   UNL     1       7.583   6.086  18.517  0.00  0.00    +0.000 C 
ENDBRANCH  23  25
ENDBRANCH  22  23
ENDBRANCH   1  22
TORSDOF 4
ENDMDL
MODEL 2
REMARK VINA RESULT:      -6.8      6.079      8.579
REMARK  Name = 
REMARK  6 active torsions:
REMARK  status: ('A' for Active; 'I' for Inactive)
REMARK    1  A    between atoms: C_1  and  N_2
REMARK    2  A    between atoms: N_2  and  C_3
REMARK    3  A    between atoms: N_2  and  C_4
REMARK    4  A    between atoms: C_4  and  C_5
REMARK    5  A    between atoms: C_5  and  N_6
REMARK    6  A    between atoms: N_14  and  C_15
REMARK                            x       y       z     vdW  Elec       q    Type
REMARK                         _______ _______ _______ _____ _____    ______ ____
ROOT
ATOM      1  N   UNL     1       2.622   4.990  20.791  0.00  0.00    +0.000 N 
ATOM      2  C   UNL     1       3.493   5.269  19.737  0.00  0.00    +0.000 A 
ATOM      3  C   UNL     1       4.855   5.118  19.967  0.00  0.00    +0.000 A 
ATOM      4  C   UNL     1       5.753   5.171  18.917  0.00  0.00    +0.000 A 
ATOM      5  N   UNL     1       7.037   4.875  19.150  0.00  0.00    +0.000 NA
ATOM      6  C   UNL     1       7.848   4.833  18.089  0.00  0.00    +0.000 A 
ATOM      7  N   UNL     1       7.506   5.096  16.826  0.00  0.00    +0.000 NA
ATOM      8  C   UNL     1       6.218   5.419  16.601  0.00  0.00    +0.000 A 
ATOM      9  N   UNL     1       5.821   5.697  15.267  0.00  0.00    +0.000 N 
ATOM     10  C   UNL     1       5.279   5.473  17.643  0.00  0.00    +0.000 A 
ATOM     11  C   UNL     1       3.909   5.716  17.511  0.00  0.00    +0.000 A 
ATOM     12  N   UNL     1       3.019   5.599  18.522  0.00  0.00    +0.000 NA
ATOM     13  H   UNL     1       2.669   5.701  21.519  0.00  0.00    +0.000 HD
ATOM     14  H   UNL     1       5.693   6.697  15.157  0.00  0.00    +0.000 HD
ENDROOT
BRANCH   9  15
ATOM     15  C   UNL     1       6.371   5.077  14.121  0.00  0.00    +0.000 A 
ATOM     16  C   UNL     1       7.542   5.574  13.536  0.00  0.00    +0.000 A 
ATOM     17  C   UNL     1       8.056   5.001  12.367  0.00  0.00    +0.000 A 
ATOM     18  C   UNL     1       7.388   3.942  11.753  0.00  0.00    +0.000 A 
ATOM     19  C   UNL     1       6.205   3.466  12.306  0.00  0.00    +0.000 A 
ATOM     20 BR   UNL     1       5.268   2.056  11.462  0.00  0.00    +0.000 Br
ATOM     21  C   UNL     1       5.696   4.028  13.476  0.00  0.00    +0.000 A 
ENDBRANCH   9  15
BRANCH   1  22
ATOM     22  C   UNL     1       1.251   4.669  20.412  0.00  0.00    +0.000 C 
BRANCH  22  23
ATOM     23  C   UNL     1       1.023   3.144  20.492  0.00  0.00    +0.000 C 
BRANCH  23  25
ATOM     24  C   UNL     1       0.822   3.324  18.071  0.00  0.00    +0.000 C 
ATOM     25  N   UNL     1       1.120   2.432  19.195  0.00  0.00    +0.000 NA
ATOM     26  C   UNL     1       2.471   1.883  19.038  0.00  0.00    +0.000 C 
ENDBRANCH  23  25
ENDBRANCH  22  23
ENDBRANCH   1  22
TORSDOF 4
ENDMDL
MODEL 3
REMARK VINA RESULT:      -6.7      1.504      1.899
REMARK  Name = 
REMARK  6 active torsions:
REMARK  status: ('A' for Active; 'I' for Inactive)
REMARK    1  A    between atoms: C_1  and  N_2
REMARK    2  A    between atoms: N_2  and  C_3
REMARK    3  A    between atoms: N_2  and  C_4
REMARK    4  A    between atoms: C_4  and  C_5
REMARK    5  A    between atoms: C_5  and  N_6
REMARK    6  A    between atoms: N_14  and  C_15
REMARK                            x       y       z     vdW  Elec       q    Type
REMARK                         _______ _______ _______ _____ _____    ______ ____
ROOT
ATOM      1  N   UNL     1       2.940   5.720  20.017  0.00  0.00    +0.000 N 
ATOM      2  C   UNL     1       2.252   6.919  19.829  0.00  0.00    +0.000 A 
ATOM      3  C   UNL     1       1.514   7.415  20.896  0.00  0.00    +0.000 A 
ATOM      4  C   UNL     1       0.985   8.692  20.850  0.00  0.00    +0.000 A 
ATOM      5  N   UNL     1       0.409   9.191  21.950  0.00  0.00    +0.000 NA
ATOM      6  C   UNL     1       0.009  10.466  21.894  0.00  0.00    +0.000 A 
ATOM      7  N   UNL     1       0.096  11.272  20.834  0.00  0.00    +0.000 NA
ATOM      8  C   UNL     1       0.653  10.755  19.722  0.00  0.00    +0.000 A 
ATOM      9  N   UNL     1       0.768  11.590  18.580  0.00  0.00    +0.000 N 
ATOM     10  C   UNL     1       1.123   9.434  19.680  0.00  0.00    +0.000 A 
ATOM     11  C   UNL     1       1.788   8.825  18.612  0.00  0.00    +0.000 A 
ATOM     12  N   UNL     1       2.364   7.604  18.675  0.00  0.00    +0.000 NA
ATOM     13  H   UNL     1       2.307   4.924  20.065  0.00  0.00    +0.000 HD
ATOM     14  H   UNL     1       0.069  11.319  17.896  0.00  0.00    +0.000 HD
ENDROOT
BRANCH   9  15
ATOM     15  C   UNL     1       0.987  12.987  18.627  0.00  0.00    +0.000 A 
ATOM     16  C   UNL     1      -0.087  13.872  18.770  0.00  0.00    +0.000 A 
ATOM     17  C   UNL     1       0.120  15.256  18.756  0.00  0.00    +0.000 A 
ATOM     18  C   UNL     1       1.402  15.772  18.568  0.00  0.00    +0.000 A 
ATOM     19  C   UNL     1       2.470  14.901  18.388  0.00  0.00    +0.000 A 
ATOM     20 BR   UNL     1       4.208  15.586  18.093  0.00  0.00    +0.000 Br
ATOM     21  C   UNL     1       2.268  13.521  18.411  0.00  0.00    +0.000 A 
ENDBRANCH   9  15
BRANCH   1  22
ATOM     22  C   UNL     1       4.063   5.486  19.116  0.00  0.00    +0.000 C 
BRANCH  22  23
ATOM     23  C   UNL     1       4.010   4.042  18.570  0.00  0.00    +0.000 C 
BRANCH  23  25
ATOM     24  C   UNL     1       2.399   2.226  18.777  0.00  0.00    +0.000 C 
ATOM     25  N   UNL     1       3.382   3.056  19.481  0.00  0.00    +0.000 NA
ATOM     26  C   UNL     1       4.419   2.197  20.062  0.00  0.00    +0.000 C 
ENDBRANCH  23  25
ENDBRANCH  22  23
ENDBRANCH   1  22
TORSDOF 4
ENDMDL
MODEL 4
REMARK VINA RESULT:      -6.7      1.022      1.077
REMARK  Name = 
REMARK  6 active torsions:
REMARK  status: ('A' for Active; 'I' for Inactive)
REMARK    1  A    between atoms: C_1  and  N_2
REMARK    2  A    between atoms: N_2  and  C_3
REMARK    3  A    between atoms: N_2  and  C_4
REMARK    4  A    between atoms: C_4  and  C_5
REMARK    5  A    between atoms: C_5  and  N_6
REMARK    6  A    between atoms: N_14  and  C_15
REMARK                            x       y       z     vdW  Elec       q    Type
REMARK                         _______ _______ _______ _____ _____    ______ ____
ROOT
ATOM      1  N   UNL     1       3.230   6.167  18.657  0.00  0.00    +0.000 N 
ATOM      2  C   UNL     1       2.476   7.338  18.737  0.00  0.00    +0.000 A 
ATOM      3  C   UNL     1       1.910   7.660  19.965  0.00  0.00    +0.000 A 
ATOM      4  C   UNL     1       1.335   8.901  20.168  0.00  0.00    +0.000 A 
ATOM      5  N   UNL     1       0.935   9.232  21.401  0.00  0.00    +0.000 NA
ATOM      6  C   UNL     1       0.484  10.479  21.574  0.00  0.00    +0.000 A 
ATOM      7  N   UNL     1       0.362  11.409  20.626  0.00  0.00    +0.000 NA
ATOM      8  C   UNL     1       0.742  11.061  19.381  0.00  0.00    +0.000 A 
ATOM      9  N   UNL     1       0.631  12.032  18.352  0.00  0.00    +0.000 N 
ATOM     10  C   UNL     1       1.246   9.784  19.095  0.00  0.00    +0.000 A 
ATOM     11  C   UNL     1       1.744   9.346  17.865  0.00  0.00    +0.000 A 
ATOM     12  N   UNL     1       2.367   8.161  17.677  0.00  0.00    +0.000 NA
ATOM     13  H   UNL     1       2.644   5.336  18.705  0.00  0.00    +0.000 HD
ATOM     14  H   UNL     1      -0.162  11.805  17.761  0.00  0.00    +0.000 HD
ENDROOT
BRANCH   9  15
ATOM     15  C   UNL     1       0.803  13.424  18.539  0.00  0.00    +0.000 A 
ATOM     16  C   UNL     1      -0.304  14.262  18.711  0.00  0.00    +0.000 A 
ATOM     17  C   UNL     1      -0.141  15.646  18.836  0.00  0.00    +0.000 A 
ATOM     18  C   UNL     1       1.131  16.212  18.760  0.00  0.00    +0.000 A 
ATOM     19  C   UNL     1       2.234  15.391  18.553  0.00  0.00    +0.000 A 
ATOM     20 BR   UNL     1       3.961  16.148  18.408  0.00  0.00    +0.000 Br
ATOM     21  C   UNL     1       2.075  14.011  18.438  0.00  0.00    +0.000 A 
ENDBRANCH   9  15
BRANCH   1  22
ATOM     22  C   UNL     1       4.192   6.107  17.563  0.00  0.00    +0.000 C 
BRANCH  22  23
ATOM     23  C   UNL     1       5.598   5.783  18.113  0.00  0.00    +0.000 C 
BRANCH  23  25
ATOM     24  C   UNL     1       5.596   4.074  16.376  0.00  0.00    +0.000 C 
ATOM     25  N   UNL     1       6.154   4.481  17.669  0.00  0.00    +0.000 NA
ATOM     26  C   UNL     1       7.613   4.584  17.561  0.00  0.00    +0.000 C 
ENDBRANCH  23  25
ENDBRANCH  22  23
ENDBRANCH   1  22
TORSDOF 4
ENDMDL
MODEL 5
REMARK VINA RESULT:      -6.7      1.156      1.666
REMARK  Name = 
REMARK  6 active torsions:
REMARK  status: ('A' for Active; 'I' for Inactive)
REMARK    1  A    between atoms: C_1  and  N_2
REMARK    2  A    between atoms: N_2  and  C_3
REMARK    3  A    between atoms: N_2  and  C_4
REMARK    4  A    between atoms: C_4  and  C_5
REMARK    5  A    between atoms: C_5  and  N_6
REMARK    6  A    between atoms: N_14  and  C_15
REMARK                            x       y       z     vdW  Elec       q    Type
REMARK                         _______ _______ _______ _____ _____    ______ ____
ROOT
ATOM      1  N   UNL     1       3.212   5.245  19.362  0.00  0.00    +0.000 N 
ATOM      2  C   UNL     1       2.565   6.478  19.272  0.00  0.00    +0.000 A 
ATOM      3  C   UNL     1       1.930   6.959  20.410  0.00  0.00    +0.000 A 
ATOM      4  C   UNL     1       1.455   8.257  20.453  0.00  0.00    +0.000 A 
ATOM      5  N   UNL     1       0.984   8.734  21.610  0.00  0.00    +0.000 NA
ATOM      6  C   UNL     1       0.637  10.025  21.634  0.00  0.00    +0.000 A 
ATOM      7  N   UNL     1       0.682  10.870  20.602  0.00  0.00    +0.000 NA
ATOM      8  C   UNL     1       1.133  10.377  19.433  0.00  0.00    +0.000 A 
ATOM      9  N   UNL     1       1.200  11.254  18.318  0.00  0.00    +0.000 N 
ATOM     10  C   UNL     1       1.540   9.041  19.304  0.00  0.00    +0.000 A 
ATOM     11  C   UNL     1       2.099   8.450  18.168  0.00  0.00    +0.000 A 
ATOM     12  N   UNL     1       2.623   7.204  18.141  0.00  0.00    +0.000 NA
ATOM     13  H   UNL     1       2.550   4.474  19.427  0.00  0.00    +0.000 HD
ATOM     14  H   UNL     1       0.443  11.040  17.678  0.00  0.00    +0.000 HD
ENDROOT
BRANCH   9  15
ATOM     15  C   UNL     1       1.484  12.637  18.401  0.00  0.00    +0.000 A 
ATOM     16  C   UNL     1       2.803  13.100  18.321  0.00  0.00    +0.000 A 
ATOM     17  C   UNL     1       3.092  14.461  18.463  0.00  0.00    +0.000 A 
ATOM     18  C   UNL     1       2.069  15.374  18.717  0.00  0.00    +0.000 A 
ATOM     19  C   UNL     1       0.761  14.919  18.835  0.00  0.00    +0.000 A 
ATOM     20 BR   UNL     1      -0.632  16.139  19.219  0.00  0.00    +0.000 Br
ATOM     21  C   UNL     1       0.468  13.564  18.684  0.00  0.00    +0.000 A 
ENDBRANCH   9  15
BRANCH   1  22
ATOM     22  C   UNL     1       4.255   5.003  18.372  0.00  0.00    +0.000 C 
BRANCH  22  23
ATOM     23  C   UNL     1       5.646   5.076  19.040  0.00  0.00    +0.000 C 
BRANCH  23  25
ATOM     24  C   UNL     1       7.858   6.095  18.985  0.00  0.00    +0.000 C 
ATOM     25  N   UNL     1       6.717   5.641  18.184  0.00  0.00    +0.000 NA
ATOM     26  C   UNL     1       7.167   4.623  17.228  0.00  0.00    +0.000 C 
ENDBRANCH  23  25
ENDBRANCH  22  23
ENDBRANCH   1  22
TORSDOF 4
ENDMDL
MODEL 6
REMARK VINA RESULT:      -6.6      0.948      1.104
REMARK  Name = 
REMARK  6 active torsions:
REMARK  status: ('A' for Active; 'I' for Inactive)
REMARK    1  A    between atoms: C_1  and  N_2
REMARK    2  A    between atoms: N_2  and  C_3
REMARK    3  A    between atoms: N_2  and  C_4
REMARK    4  A    between atoms: C_4  and  C_5
REMARK    5  A    between atoms: C_5  and  N_6
REMARK    6  A    between atoms: N_14  and  C_15
REMARK                            x       y       z     vdW  Elec       q    Type
REMARK                         _______ _______ _______ _____ _____    ______ ____
ROOT
ATOM      1  N   UNL     1       4.092   5.478  18.189  0.00  0.00    +0.000 N 
ATOM      2  C   UNL     1       3.216   6.553  18.348  0.00  0.00    +0.000 A 
ATOM      3  C   UNL     1       2.573   6.687  19.572  0.00  0.00    +0.000 A 
ATOM      4  C   UNL     1       1.862   7.835  19.869  0.00  0.00    +0.000 A 
ATOM      5  N   UNL     1       1.382   7.995  21.107  0.00  0.00    +0.000 NA
ATOM      6  C   UNL     1       0.796   9.165  21.380  0.00  0.00    +0.000 A 
ATOM      7  N   UNL     1       0.612  10.171  20.523  0.00  0.00    +0.000 NA
ATOM      8  C   UNL     1       1.075   9.994  19.271  0.00  0.00    +0.000 A 
ATOM      9  N   UNL     1       0.902  11.050  18.338  0.00  0.00    +0.000 N 
ATOM     10  C   UNL     1       1.722   8.811  18.885  0.00  0.00    +0.000 A 
ATOM     11  C   UNL     1       2.310   8.555  17.643  0.00  0.00    +0.000 A 
ATOM     12  N   UNL     1       3.062   7.465  17.370  0.00  0.00    +0.000 NA
ATOM     13  H   UNL     1       3.596   4.591  18.127  0.00  0.00    +0.000 HD
ATOM     14  H   UNL     1       0.160  10.806  17.690  0.00  0.00    +0.000 HD
ENDROOT
BRANCH   9  15
ATOM     15  C   UNL     1       0.919  12.425  18.670  0.00  0.00    +0.000 A 
ATOM     16  C   UNL     1      -0.267  13.168  18.687  0.00  0.00    +0.000 A 
ATOM     17  C   UNL     1      -0.247  14.541  18.956  0.00  0.00    +0.000 A 
ATOM     18  C   UNL     1       0.965  15.194  19.181  0.00  0.00    +0.000 A 
ATOM     19  C   UNL     1       2.151  14.471  19.130  0.00  0.00    +0.000 A 
ATOM     20 BR   UNL     1       3.805  15.350  19.394  0.00  0.00    +0.000 Br
ATOM     21  C   UNL     1       2.133  13.101  18.872  0.00  0.00    +0.000 A 
ENDBRANCH   9  15
BRANCH   1  22
ATOM     22  C   UNL     1       5.097   5.630  17.143  0.00  0.00    +0.000 C 
BRANCH  22  23
ATOM     23  C   UNL     1       6.371   4.840  17.516  0.00  0.00    +0.000 C 
BRANCH  23  25
ATOM     24  C   UNL     1       7.389   7.053  17.481  0.00  0.00    +0.000 C 
ATOM     25  N   UNL     1       7.511   5.676  17.967  0.00  0.00    +0.000 NA
ATOM     26  C   UNL     1       7.565   5.678  19.433  0.00  0.00    +0.000 C 
ENDBRANCH  23  25
ENDBRANCH  22  23
ENDBRANCH   1  22
TORSDOF 4
ENDMDL
MODEL 7
REMARK VINA RESULT:      -6.6      1.188      1.393
REMARK  Name = 
REMARK  6 active torsions:
REMARK  status: ('A' for Active; 'I' for Inactive)
REMARK    1  A    between atoms: C_1  and  N_2
REMARK    2  A    between atoms: N_2  and  C_3
REMARK    3  A    between atoms: N_2  and  C_4
REMARK    4  A    between atoms: C_4  and  C_5
REMARK    5  A    between atoms: C_5  and  N_6
REMARK    6  A    between atoms: N_14  and  C_15
REMARK                            x       y       z     vdW  Elec       q    Type
REMARK                         _______ _______ _______ _____ _____    ______ ____
ROOT
ATOM      1  N   UNL     1       4.110   5.341  18.522  0.00  0.00    +0.000 N 
ATOM      2  C   UNL     1       3.249   6.436  18.591  0.00  0.00    +0.000 A 
ATOM      3  C   UNL     1       2.555   6.638  19.778  0.00  0.00    +0.000 A 
ATOM      4  C   UNL     1       1.853   7.811  19.990  0.00  0.00    +0.000 A 
ATOM      5  N   UNL     1       1.322   8.036  21.197  0.00  0.00    +0.000 NA
ATOM      6  C   UNL     1       0.747   9.227  21.389  0.00  0.00    +0.000 A 
ATOM      7  N   UNL     1       0.620  10.196  20.480  0.00  0.00    +0.000 NA
ATOM      8  C   UNL     1       1.134   9.953  19.259  0.00  0.00    +0.000 A 
ATOM      9  N   UNL     1       1.023  10.967  18.272  0.00  0.00    +0.000 N 
ATOM     10  C   UNL     1       1.776   8.742  18.957  0.00  0.00    +0.000 A 
ATOM     11  C   UNL     1       2.413   8.419  17.756  0.00  0.00    +0.000 A 
ATOM     12  N   UNL     1       3.155   7.305  17.568  0.00  0.00    +0.000 NA
ATOM     13  H   UNL     1       3.600   4.461  18.477  0.00  0.00    +0.000 HD
ATOM     14  H   UNL     1       0.306  10.705  17.603  0.00  0.00    +0.000 HD
ENDROOT
BRANCH   9  15
ATOM     15  C   UNL     1       1.051  12.355  18.541  0.00  0.00    +0.000 A 
ATOM     16  C   UNL     1      -0.117  13.121  18.455  0.00  0.00    +0.000 A 
ATOM     17  C   UNL     1      -0.081  14.505  18.662  0.00  0.00    +0.000 A 
ATOM     18  C   UNL     1       1.130  15.143  18.928  0.00  0.00    +0.000 A 
ATOM     19  C   UNL     1       2.300  14.396  18.979  0.00  0.00    +0.000 A 
ATOM     20 BR   UNL     1       3.955  15.254  19.300  0.00  0.00    +0.000 Br
ATOM     21  C   UNL     1       2.267  13.016  18.783  0.00  0.00    +0.000 A 
ENDBRANCH   9  15
BRANCH   1  22
ATOM     22  C   UNL     1       5.163   5.427  17.516  0.00  0.00    +0.000 C 
BRANCH  22  23
ATOM     23  C   UNL     1       4.852   4.472  16.343  0.00  0.00    +0.000 C 
BRANCH  23  25
ATOM     24  C   UNL     1       5.812   4.027  14.148  0.00  0.00    +0.000 C 
ATOM     25  N   UNL     1       6.042   3.997  15.596  0.00  0.00    +0.000 NA
ATOM     26  C   UNL     1       7.195   4.842  15.925  0.00  0.00    +0.000 C 
ENDBRANCH  23  25
ENDBRANCH  22  23
ENDBRANCH   1  22
TORSDOF 4
ENDMDL
MODEL 8
REMARK VINA RESULT:      -6.6      1.837      2.302
REMARK  Name = 
REMARK  6 active torsions:
REMARK  status: ('A' for Active; 'I' for Inactive)
REMARK    1  A    between atoms: C_1  and  N_2
REMARK    2  A    between atoms: N_2  and  C_3
REMARK    3  A    between atoms: N_2  and  C_4
REMARK    4  A    between atoms: C_4  and  C_5
REMARK    5  A    between atoms: C_5  and  N_6
REMARK    6  A    between atoms: N_14  and  C_15
REMARK                            x       y       z     vdW  Elec       q    Type
REMARK                         _______ _______ _______ _____ _____    ______ ____
ROOT
ATOM      1  N   UNL     1       2.849   5.776  19.954  0.00  0.00    +0.000 N 
ATOM      2  C   UNL     1       2.210   6.999  19.749  0.00  0.00    +0.000 A 
ATOM      3  C   UNL     1       1.494   7.540  20.810  0.00  0.00    +0.000 A 
ATOM      4  C   UNL     1       1.018   8.837  20.746  0.00  0.00    +0.000 A 
ATOM      5  N   UNL     1       0.465   9.375  21.838  0.00  0.00    +0.000 NA
ATOM      6  C   UNL     1       0.117  10.664  21.765  0.00  0.00    +0.000 A 
ATOM      7  N   UNL     1       0.236  11.450  20.693  0.00  0.00    +0.000 NA
ATOM      8  C   UNL     1       0.769  10.895  19.588  0.00  0.00    +0.000 A 
ATOM      9  N   UNL     1       0.916  11.708  18.434  0.00  0.00    +0.000 N 
ATOM     10  C   UNL     1       1.185   9.555  19.565  0.00  0.00    +0.000 A 
ATOM     11  C   UNL     1       1.823   8.904  18.505  0.00  0.00    +0.000 A 
ATOM     12  N   UNL     1       2.348   7.662  18.586  0.00  0.00    +0.000 NA
ATOM     13  H   UNL     1       2.184   5.007  20.014  0.00  0.00    +0.000 HD
ATOM     14  H   UNL     1       0.206  11.456  17.755  0.00  0.00    +0.000 HD
ENDROOT
BRANCH   9  15
ATOM     15  C   UNL     1       1.192  13.096  18.460  0.00  0.00    +0.000 A 
ATOM     16  C   UNL     1       2.504  13.563  18.315  0.00  0.00    +0.000 A 
ATOM     17  C   UNL     1       2.789  14.930  18.400  0.00  0.00    +0.000 A 
ATOM     18  C   UNL     1       1.769  15.844  18.661  0.00  0.00    +0.000 A 
ATOM     19  C   UNL     1       0.470  15.387  18.843  0.00  0.00    +0.000 A 
ATOM     20 BR   UNL     1      -0.917  16.610  19.238  0.00  0.00    +0.000 Br
ATOM     21  C   UNL     1       0.181  14.026  18.750  0.00  0.00    +0.000 A 
ENDBRANCH   9  15
BRANCH   1  22
ATOM     22  C   UNL     1       3.960   5.483  19.055  0.00  0.00    +0.000 C 
BRANCH  22  23
ATOM     23  C   UNL     1       4.503   4.064  19.331  0.00  0.00    +0.000 C 
BRANCH  23  25
ATOM     24  C   UNL     1       3.041   2.171  18.869  0.00  0.00    +0.000 C 
ATOM     25  N   UNL     1       4.097   3.039  18.340  0.00  0.00    +0.000 NA
ATOM     26  C   UNL     1       3.620   3.700  17.120  0.00  0.00    +0.000 C 
ENDBRANCH  23  25
ENDBRANCH  22  23
ENDBRANCH   1  22
TORSDOF 4
ENDMDL
MODEL 9
REMARK VINA RESULT:      -6.5      0.773      1.062
REMARK  Name = 
REMARK  6 active torsions:
REMARK  status: ('A' for Active; 'I' for Inactive)
REMARK    1  A    between atoms: C_1  and  N_2
REMARK    2  A    between atoms: N_2  and  C_3
REMARK    3  A    between atoms: N_2  and  C_4
REMARK    4  A    between atoms: C_4  and  C_5
REMARK    5  A    between atoms: C_5  and  N_6
REMARK    6  A    between atoms: N_14  and  C_15
REMARK                            x       y       z     vdW  Elec       q    Type
REMARK                         _______ _______ _______ _____ _____    ______ ____
ROOT
ATOM      1  N   UNL     1       3.496   5.667  18.516  0.00  0.00    +0.000 N 
ATOM      2  C   UNL     1       2.718   6.819  18.641  0.00  0.00    +0.000 A 
ATOM      3  C   UNL     1       2.209   7.121  19.897  0.00  0.00    +0.000 A 
ATOM      4  C   UNL     1       1.614   8.346  20.136  0.00  0.00    +0.000 A 
ATOM      5  N   UNL     1       1.269   8.662  21.390  0.00  0.00    +0.000 NA
ATOM      6  C   UNL     1       0.797   9.897  21.592  0.00  0.00    +0.000 A 
ATOM      7  N   UNL     1       0.604  10.828  20.656  0.00  0.00    +0.000 NA
ATOM      8  C   UNL     1       0.929  10.495  19.392  0.00  0.00    +0.000 A 
ATOM      9  N   UNL     1       0.742  11.467  18.374  0.00  0.00    +0.000 N 
ATOM     10  C   UNL     1       1.449   9.231  19.074  0.00  0.00    +0.000 A 
ATOM     11  C   UNL     1       1.894   8.811  17.817  0.00  0.00    +0.000 A 
ATOM     12  N   UNL     1       2.536   7.642  17.593  0.00  0.00    +0.000 NA
ATOM     13  H   UNL     1       2.933   4.821  18.590  0.00  0.00    +0.000 HD
ATOM     14  H   UNL     1      -0.074  11.222  17.824  0.00  0.00    +0.000 HD
ENDROOT
BRANCH   9  15
ATOM     15  C   UNL     1       0.890  12.861  18.560  0.00  0.00    +0.000 A 
ATOM     16  C   UNL     1      -0.231  13.676  18.757  0.00  0.00    +0.000 A 
ATOM     17  C   UNL     1      -0.094  15.063  18.881  0.00  0.00    +0.000 A 
ATOM     18  C   UNL     1       1.165  15.655  18.779  0.00  0.00    +0.000 A 
ATOM     19  C   UNL     1       2.279  14.858  18.547  0.00  0.00    +0.000 A 
ATOM     20 BR   UNL     1       3.987  15.651  18.367  0.00  0.00    +0.000 Br
ATOM     21  C   UNL     1       2.147  13.475  18.433  0.00  0.00    +0.000 A 
ENDBRANCH   9  15
BRANCH   1  22
ATOM     22  C   UNL     1       4.402   5.635  17.375  0.00  0.00    +0.000 C 
BRANCH  22  23
ATOM     23  C   UNL     1       5.601   6.577  17.625  0.00  0.00    +0.000 C 
BRANCH  23  25
ATOM     24  C   UNL     1       7.307   5.704  19.129  0.00  0.00    +0.000 C 
ATOM     25  N   UNL     1       6.915   5.897  17.730  0.00  0.00    +0.000 NA
ATOM     26  C   UNL     1       6.846   4.596  17.057  0.00  0.00    +0.000 C 
ENDBRANCH  23  25
ENDBRANCH  22  23
ENDBRANCH   1  22
TORSDOF 4
ENDMDL
