MODEL 1
REMARK VINA RESULT:      -5.9      0.000      0.000
REMARK  Name = 
REMARK  0 active torsions:
REMARK  status: ('A' for Active; 'I' for Inactive)
REMARK                            x       y       z     vdW  Elec       q    Type
REMARK                         _______ _______ _______ _____ _____    ______ ____
ROOT
ATOM      1  O   UNL     1       7.603   5.330  13.467  0.00  0.00    +0.000 OA
ATOM      2  C   UNL     1       7.046   5.067  14.519  0.00  0.00    +0.000 C 
ATOM      3  C   UNL     1       5.789   4.207  14.697  0.00  0.00    +0.000 C 
ATOM      4  C   UNL     1       5.563   4.282  16.179  0.00  0.00    +0.000 A 
ATOM      5  C   UNL     1       4.553   3.730  16.947  0.00  0.00    +0.000 A 
ATOM      6  C   UNL     1       4.579   3.957  18.328  0.00  0.00    +0.000 A 
ATOM      7  C   UNL     1       5.606   4.720  18.916  0.00  0.00    +0.000 A 
ATOM      8  C   UNL     1       6.618   5.272  18.129  0.00  0.00    +0.000 A 
ATOM      9 CL   UNL     1       7.872   6.200  18.846  0.00  0.00    +0.000 Cl
ATOM     10  C   UNL     1       6.573   5.044  16.766  0.00  0.00    +0.000 A 
ATOM     11  N   UNL     1       7.440   5.498  15.778  0.00  0.00    +0.000 N 
ATOM     12  H   UNL     1       8.245   6.084  15.940  0.00  0.00    +0.000 HD
ENDROOT
TORSDOF 0
ENDMDL
MODEL 2
REMARK VINA RESULT:      -5.8      3.690      4.324
REMARK  Name = 
REMARK  0 active torsions:
REMARK  status: ('A' for Active; 'I' for Inactive)
REMARK                            x       y       z     vdW  Elec       q    Type
REMARK                         _______ _______ _______ _____ _____    ______ ____
ROOT
ATOM      1  O   UNL     1       7.169   5.217  19.296  0.00  0.00    +0.000 OA
ATOM      2  C   UNL     1       6.031   4.934  18.961  0.00  0.00    +0.000 C 
ATOM      3  C   UNL     1       4.926   5.917  18.557  0.00  0.00    +0.000 C 
ATOM      4  C   UNL     1       3.766   5.000  18.300  0.00  0.00    +0.000 A 
ATOM      5  C   UNL     1       2.468   5.301  17.932  0.00  0.00    +0.000 A 
ATOM      6  C   UNL     1       1.572   4.241  17.755  0.00  0.00    +0.000 A 
ATOM      7  C   UNL     1       1.984   2.907  17.942  0.00  0.00    +0.000 A 
ATOM      8  C   UNL     1       3.298   2.617  18.314  0.00  0.00    +0.000 A 
ATOM      9 CL   UNL     1       3.802   0.992  18.540  0.00  0.00    +0.000 Cl
ATOM     10  C   UNL     1       4.167   3.678  18.492  0.00  0.00    +0.000 A 
ATOM     11  N   UNL     1       5.502   3.654  18.878  0.00  0.00    +0.000 N 
ATOM     12  H   UNL     1       6.027   2.818  19.095  0.00  0.00    +0.000 HD
ENDROOT
TORSDOF 0
ENDMDL
MODEL 3
REMARK VINA RESULT:      -5.7      2.863      3.383
REMARK  Name = 
REMARK  0 active torsions:
REMARK  status: ('A' for Active; 'I' for Inactive)
REMARK                            x       y       z     vdW  Elec       q    Type
REMARK                         _______ _______ _______ _____ _____    ______ ____
ROOT
ATOM      1  O   UNL     1       8.179   4.242  17.399  0.00  0.00    +0.000 OA
ATOM      2  C   UNL     1       7.052   4.665  17.586  0.00  0.00    +0.000 C 
ATOM      3  C   UNL     1       6.451   5.953  17.011  0.00  0.00    +0.000 C 
ATOM      4  C   UNL     1       5.077   5.959  17.616  0.00  0.00    +0.000 A 
ATOM      5  C   UNL     1       4.064   6.892  17.496  0.00  0.00    +0.000 A 
ATOM      6  C   UNL     1       2.864   6.651  18.175  0.00  0.00    +0.000 A 
ATOM      7  C   UNL     1       2.694   5.489  18.952  0.00  0.00    +0.000 A 
ATOM      8  C   UNL     1       3.726   4.555  19.064  0.00  0.00    +0.000 A 
ATOM      9 CL   UNL     1       3.518   3.137  20.009  0.00  0.00    +0.000 Cl
ATOM     10  C   UNL     1       4.906   4.814  18.394  0.00  0.00    +0.000 A 
ATOM     11  N   UNL     1       6.075   4.060  18.365  0.00  0.00    +0.000 N 
ATOM     12  H   UNL     1       6.215   3.192  18.861  0.00  0.00    +0.000 HD
ENDROOT
TORSDOF 0
ENDMDL
MODEL 4
REMARK VINA RESULT:      -5.7      2.966      3.563
REMARK  Name = 
REMARK  0 active torsions:
REMARK  status: ('A' for Active; 'I' for Inactive)
REMARK                            x       y       z     vdW  Elec       q    Type
REMARK                         _______ _______ _______ _____ _____    ______ ____
ROOT
ATOM      1  O   UNL     1       7.847   4.573  17.020  0.00  0.00    +0.000 OA
ATOM      2  C   UNL     1       6.664   4.792  17.218  0.00  0.00    +0.000 C 
ATOM      3  C   UNL     1       6.002   6.167  17.364  0.00  0.00    +0.000 C 
ATOM      4  C   UNL     1       4.571   5.802  17.630  0.00  0.00    +0.000 A 
ATOM      5  C   UNL     1       3.483   6.618  17.881  0.00  0.00    +0.000 A 
ATOM      6  C   UNL     1       2.241   6.011  18.099  0.00  0.00    +0.000 A 
ATOM      7  C   UNL     1       2.104   4.610  18.058  0.00  0.00    +0.000 A 
ATOM      8  C   UNL     1       3.211   3.798  17.804  0.00  0.00    +0.000 A 
ATOM      9 CL   UNL     1       3.044   2.090  17.752  0.00  0.00    +0.000 Cl
ATOM     10  C   UNL     1       4.431   4.414  17.599  0.00  0.00    +0.000 A 
ATOM     11  N   UNL     1       5.670   3.833  17.353  0.00  0.00    +0.000 N 
ATOM     12  H   UNL     1       5.842   2.840  17.299  0.00  0.00    +0.000 HD
ENDROOT
TORSDOF 0
ENDMDL
MODEL 5
REMARK VINA RESULT:      -5.7      4.338      5.451
REMARK  Name = 
REMARK  0 active torsions:
REMARK  status: ('A' for Active; 'I' for Inactive)
REMARK                            x       y       z     vdW  Elec       q    Type
REMARK                         _______ _______ _______ _____ _____    ______ ____
ROOT
ATOM      1  O   UNL     1       5.461   1.400  21.454  0.00  0.00    +0.000 OA
ATOM      2  C   UNL     1       4.670   1.977  20.728  0.00  0.00    +0.000 C 
ATOM      3  C   UNL     1       3.206   2.304  21.048  0.00  0.00    +0.000 C 
ATOM      4  C   UNL     1       2.746   2.966  19.783  0.00  0.00    +0.000 A 
ATOM      5  C   UNL     1       1.498   3.458  19.447  0.00  0.00    +0.000 A 
ATOM      6  C   UNL     1       1.337   4.035  18.183  0.00  0.00    +0.000 A 
ATOM      7  C   UNL     1       2.417   4.117  17.283  0.00  0.00    +0.000 A 
ATOM      8  C   UNL     1       3.671   3.616  17.634  0.00  0.00    +0.000 A 
ATOM      9 CL   UNL     1       4.988   3.717  16.538  0.00  0.00    +0.000 Cl
ATOM     10  C   UNL     1       3.810   3.042  18.884  0.00  0.00    +0.000 A 
ATOM     11  N   UNL     1       4.936   2.458  19.454  0.00  0.00    +0.000 N 
ATOM     12  H   UNL     1       5.834   2.371  19.001  0.00  0.00    +0.000 HD
ENDROOT
TORSDOF 0
ENDMDL
MODEL 6
REMARK VINA RESULT:      -5.6      2.906      3.797
REMARK  Name = 
REMARK  0 active torsions:
REMARK  status: ('A' for Active; 'I' for Inactive)
REMARK                            x       y       z     vdW  Elec       q    Type
REMARK                         _______ _______ _______ _____ _____    ______ ____
ROOT
ATOM      1  O   UNL     1       3.773   2.272  19.921  0.00  0.00    +0.000 OA
ATOM      2  C   UNL     1       4.308   2.962  19.071  0.00  0.00    +0.000 C 
ATOM      3  C   UNL     1       3.869   3.117  17.610  0.00  0.00    +0.000 C 
ATOM      4  C   UNL     1       4.917   4.041  17.062  0.00  0.00    +0.000 A 
ATOM      5  C   UNL     1       5.080   4.528  15.777  0.00  0.00    +0.000 A 
ATOM      6  C   UNL     1       6.157   5.385  15.531  0.00  0.00    +0.000 A 
ATOM      7  C   UNL     1       7.046   5.746  16.563  0.00  0.00    +0.000 A 
ATOM      8  C   UNL     1       6.870   5.246  17.854  0.00  0.00    +0.000 A 
ATOM      9 CL   UNL     1       7.951   5.686  19.113  0.00  0.00    +0.000 Cl
ATOM     10  C   UNL     1       5.805   4.394  18.078  0.00  0.00    +0.000 A 
ATOM     11  N   UNL     1       5.433   3.754  19.255  0.00  0.00    +0.000 N 
ATOM     12  H   UNL     1       5.924   3.831  20.135  0.00  0.00    +0.000 HD
ENDROOT
TORSDOF 0
ENDMDL
MODEL 7
REMARK VINA RESULT:      -5.6      2.706      3.347
REMARK  Name = 
REMARK  0 active torsions:
REMARK  status: ('A' for Active; 'I' for Inactive)
REMARK                            x       y       z     vdW  Elec       q    Type
REMARK                         _______ _______ _______ _____ _____    ______ ____
ROOT
ATOM      1  O   UNL     1       7.651   4.940  17.097  0.00  0.00    +0.000 OA
ATOM      2  C   UNL     1       6.497   4.781  17.458  0.00  0.00    +0.000 C 
ATOM      3  C   UNL     1       5.268   5.544  16.951  0.00  0.00    +0.000 C 
ATOM      4  C   UNL     1       4.165   4.951  17.778  0.00  0.00    +0.000 A 
ATOM      5  C   UNL     1       2.816   5.257  17.801  0.00  0.00    +0.000 A 
ATOM      6  C   UNL     1       1.994   4.542  18.679  0.00  0.00    +0.000 A 
ATOM      7  C   UNL     1       2.526   3.537  19.511  0.00  0.00    +0.000 A 
ATOM      8  C   UNL     1       3.890   3.239  19.478  0.00  0.00    +0.000 A 
ATOM      9 CL   UNL     1       4.538   2.013  20.490  0.00  0.00    +0.000 Cl
ATOM     10  C   UNL     1       4.687   3.961  18.610  0.00  0.00    +0.000 A 
ATOM     11  N   UNL     1       6.060   3.870  18.409  0.00  0.00    +0.000 N 
ATOM     12  H   UNL     1       6.677   3.240  18.902  0.00  0.00    +0.000 HD
ENDROOT
TORSDOF 0
ENDMDL
MODEL 8
REMARK VINA RESULT:      -5.5      5.326      5.910
REMARK  Name = 
REMARK  0 active torsions:
REMARK  status: ('A' for Active; 'I' for Inactive)
REMARK                            x       y       z     vdW  Elec       q    Type
REMARK                         _______ _______ _______ _____ _____    ______ ____
ROOT
ATOM      1  O   UNL     1       2.153   7.764  20.077  0.00  0.00    +0.000 OA
ATOM      2  C   UNL     1       2.188   6.610  19.688  0.00  0.00    +0.000 C 
ATOM      3  C   UNL     1       2.521   6.134  18.269  0.00  0.00    +0.000 C 
ATOM      4  C   UNL     1       2.365   4.646  18.390  0.00  0.00    +0.000 A 
ATOM      5  C   UNL     1       2.502   3.663  17.427  0.00  0.00    +0.000 A 
ATOM      6  C   UNL     1       2.298   2.333  17.811  0.00  0.00    +0.000 A 
ATOM      7  C   UNL     1       1.968   2.007  19.141  0.00  0.00    +0.000 A 
ATOM      8  C   UNL     1       1.832   3.010  20.103  0.00  0.00    +0.000 A 
ATOM      9 CL   UNL     1       1.432   2.613  21.725  0.00  0.00    +0.000 Cl
ATOM     10  C   UNL     1       2.029   4.318  19.703  0.00  0.00    +0.000 A 
ATOM     11  N   UNL     1       1.932   5.483  20.457  0.00  0.00    +0.000 N 
ATOM     12  H   UNL     1       1.685   5.520  21.435  0.00  0.00    +0.000 HD
ENDROOT
TORSDOF 0
ENDMDL
MODEL 9
REMARK VINA RESULT:      -5.5      2.429      2.773
REMARK  Name = 
REMARK  0 active torsions:
REMARK  status: ('A' for Active; 'I' for Inactive)
REMARK                            x       y       z     vdW  Elec       q    Type
REMARK                         _______ _______ _______ _____ _____    ______ ____
ROOT
ATOM      1  O   UNL     1       7.449   5.840  15.718  0.00  0.00    +0.000 OA
ATOM      2  C   UNL     1       6.378   5.502  16.192  0.00  0.00    +0.000 C 
ATOM      3  C   UNL     1       5.833   4.073  16.294  0.00  0.00    +0.000 C 
ATOM      4  C   UNL     1       4.484   4.293  16.915  0.00  0.00    +0.000 A 
ATOM      5  C   UNL     1       3.497   3.376  17.228  0.00  0.00    +0.000 A 
ATOM      6  C   UNL     1       2.316   3.854  17.808  0.00  0.00    +0.000 A 
ATOM      7  C   UNL     1       2.144   5.227  18.070  0.00  0.00    +0.000 A 
ATOM      8  C   UNL     1       3.148   6.141  17.748  0.00  0.00    +0.000 A 
ATOM      9 CL   UNL     1       2.939   7.815  18.068  0.00  0.00    +0.000 Cl
ATOM     10  C   UNL     1       4.304   5.653  17.168  0.00  0.00    +0.000 A 
ATOM     11  N   UNL     1       5.427   6.352  16.740  0.00  0.00    +0.000 N 
ATOM     12  H   UNL     1       5.540   7.354  16.796  0.00  0.00    +0.000 HD
ENDROOT
TORSDOF 0
ENDMDL
