MODEL 1
REMARK VINA RESULT:      -8.1      0.000      0.000
REMARK  Name = 
REMARK  5 active torsions:
REMARK  status: ('A' for Active; 'I' for Inactive)
REMARK    1  A    between atoms: C_1  and  N_2
REMARK    2  A    between atoms: N_2  and  C_3
REMARK    3  A    between atoms: N_2  and  S_10
REMARK    4  A    between atoms: S_10  and  C_13
REMARK    5  A    between atoms: C_16  and  O_17
REMARK                            x       y       z     vdW  Elec       q    Type
REMARK                         _______ _______ _______ _____ _____    ______ ____
ROOT
ATOM      1  S   UNL     1       3.935   2.773  18.664  0.00  0.00    +0.000 S 
ATOM      2  O   UNL     1       4.620   2.792  19.937  0.00  0.00    +0.000 OA
ATOM      3  O   UNL     1       3.784   1.512  17.959  0.00  0.00    +0.000 OA
ENDROOT
BRANCH   1   4
ATOM      4  C   UNL     1       4.807   3.878  17.537  0.00  0.00    +0.000 A 
ATOM      5  C   UNL     1       4.560   3.676  16.167  0.00  0.00    +0.000 A 
ATOM      6  C   UNL     1       5.388   4.247  15.215  0.00  0.00    +0.000 A 
ATOM      7  C   UNL     1       6.464   5.031  15.634  0.00  0.00    +0.000 A 
ATOM      8  C   UNL     1       6.712   5.317  16.983  0.00  0.00    +0.000 A 
ATOM      9  N   UNL     1       7.749   6.123  17.302  0.00  0.00    +0.000 NA
ATOM     10  C   UNL     1       7.989   6.415  18.593  0.00  0.00    +0.000 A 
ATOM     11  C   UNL     1       7.227   5.927  19.624  0.00  0.00    +0.000 A 
ATOM     12  C   UNL     1       6.172   5.079  19.307  0.00  0.00    +0.000 A 
ATOM     13  C   UNL     1       5.869   4.737  17.966  0.00  0.00    +0.000 A 
BRANCH   7  14
ATOM     14  O   UNL     1       7.322   5.529  14.674  0.00  0.00    +0.000 OA
ATOM     15  H   UNL     1       8.172   5.067  14.725  0.00  0.00    +0.000 HD
ENDBRANCH   7  14
ENDBRANCH   1   4
BRANCH   1  17
ATOM     16  C   UNL     1       1.234   2.685  18.329  0.00  0.00    +0.000 C 
ATOM     17  N   UNL     1       2.383   3.426  18.852  0.00  0.00    +0.000 N 
BRANCH  17  18
ATOM     18  C   UNL     1       2.239   4.801  19.197  0.00  0.00    +0.000 A 
ATOM     19  C   UNL     1       1.936   5.127  20.522  0.00  0.00    +0.000 A 
ATOM     20  C   UNL     1       1.853   6.463  20.914  0.00  0.00    +0.000 A 
ATOM     21  C   UNL     1       2.078   7.474  19.979  0.00  0.00    +0.000 A 
ATOM     22  C   UNL     1       2.362   7.141  18.653  0.00  0.00    +0.000 A 
ATOM     23 CL   UNL     1       2.656   8.391  17.510  0.00  0.00    +0.000 Cl
ATOM     24  C   UNL     1       2.430   5.807  18.251  0.00  0.00    +0.000 A 
ENDBRANCH  17  18
ENDBRANCH   1  17
TORSDOF 4
ENDMDL
MODEL 2
REMARK VINA RESULT:      -8.0      1.580      2.832
REMARK  Name = 
REMARK  5 active torsions:
REMARK  status: ('A' for Active; 'I' for Inactive)
REMARK    1  A    between atoms: C_1  and  N_2
REMARK    2  A    between atoms: N_2  and  C_3
REMARK    3  A    between atoms: N_2  and  S_10
REMARK    4  A    between atoms: S_10  and  C_13
REMARK    5  A    between atoms: C_16  and  O_17
REMARK                            x       y       z     vdW  Elec       q    Type
REMARK                         _______ _______ _______ _____ _____    ______ ____
ROOT
ATOM      1  S   UNL     1       3.245   3.169  18.096  0.00  0.00    +0.000 S 
ATOM      2  O   UNL     1       3.435   1.799  18.520  0.00  0.00    +0.000 OA
ATOM      3  O   UNL     1       2.641   3.432  16.802  0.00  0.00    +0.000 OA
ENDROOT
BRANCH   1   4
ATOM      4  C   UNL     1       4.854   3.983  18.076  0.00  0.00    +0.000 A 
ATOM      5  C   UNL     1       5.277   4.532  19.300  0.00  0.00    +0.000 A 
ATOM      6  C   UNL     1       6.331   5.429  19.336  0.00  0.00    +0.000 A 
ATOM      7  C   UNL     1       6.970   5.775  18.145  0.00  0.00    +0.000 A 
ATOM      8  C   UNL     1       6.630   5.204  16.911  0.00  0.00    +0.000 A 
ATOM      9  N   UNL     1       7.329   5.560  15.810  0.00  0.00    +0.000 NA
ATOM     10  C   UNL     1       7.019   5.009  14.622  0.00  0.00    +0.000 A 
ATOM     11  C   UNL     1       6.010   4.094  14.462  0.00  0.00    +0.000 A 
ATOM     12  C   UNL     1       5.271   3.740  15.585  0.00  0.00    +0.000 A 
ATOM     13  C   UNL     1       5.551   4.283  16.863  0.00  0.00    +0.000 A 
BRANCH   7  14
ATOM     14  O   UNL     1       7.968   6.728  18.191  0.00  0.00    +0.000 OA
ATOM     15  H   UNL     1       8.449   6.656  19.029  0.00  0.00    +0.000 HD
ENDBRANCH   7  14
ENDBRANCH   1   4
BRANCH   1  17
ATOM     16  C   UNL     1       1.332   3.240  20.033  0.00  0.00    +0.000 C 
ATOM     17  N   UNL     1       2.319   3.990  19.253  0.00  0.00    +0.000 N 
BRANCH  17  18
ATOM     18  C   UNL     1       2.260   5.413  19.222  0.00  0.00    +0.000 A 
ATOM     19  C   UNL     1       2.476   6.062  18.003  0.00  0.00    +0.000 A 
ATOM     20  C   UNL     1       2.361   7.449  17.916  0.00  0.00    +0.000 A 
ATOM     21  C   UNL     1       2.022   8.187  19.050  0.00  0.00    +0.000 A 
ATOM     22  C   UNL     1       1.825   7.534  20.269  0.00  0.00    +0.000 A 
ATOM     23 CL   UNL     1       1.390   8.448  21.659  0.00  0.00    +0.000 Cl
ATOM     24  C   UNL     1       1.955   6.149  20.365  0.00  0.00    +0.000 A 
ENDBRANCH  17  18
ENDBRANCH   1  17
TORSDOF 4
ENDMDL
MODEL 3
REMARK VINA RESULT:      -8.0      1.512      2.827
REMARK  Name = 
REMARK  5 active torsions:
REMARK  status: ('A' for Active; 'I' for Inactive)
REMARK    1  A    between atoms: C_1  and  N_2
REMARK    2  A    between atoms: N_2  and  C_3
REMARK    3  A    between atoms: N_2  and  S_10
REMARK    4  A    between atoms: S_10  and  C_13
REMARK    5  A    between atoms: C_16  and  O_17
REMARK                            x       y       z     vdW  Elec       q    Type
REMARK                         _______ _______ _______ _____ _____    ______ ____
ROOT
ATOM      1  S   UNL     1       4.180   3.467  18.866  0.00  0.00    +0.000 S 
ATOM      2  O   UNL     1       4.207   3.484  20.311  0.00  0.00    +0.000 OA
ATOM      3  O   UNL     1       4.228   2.192  18.171  0.00  0.00    +0.000 OA
ENDROOT
BRANCH   1   4
ATOM      4  C   UNL     1       5.585   4.423  18.262  0.00  0.00    +0.000 A 
ATOM      5  C   UNL     1       6.181   5.290  19.194  0.00  0.00    +0.000 A 
ATOM      6  C   UNL     1       7.053   6.279  18.770  0.00  0.00    +0.000 A 
ATOM      7  C   UNL     1       7.336   6.398  17.409  0.00  0.00    +0.000 A 
ATOM      8  C   UNL     1       6.820   5.516  16.450  0.00  0.00    +0.000 A 
ATOM      9  N   UNL     1       7.181   5.671  15.157  0.00  0.00    +0.000 NA
ATOM     10  C   UNL     1       6.701   4.823  14.229  0.00  0.00    +0.000 A 
ATOM     11  C   UNL     1       5.847   3.792  14.528  0.00  0.00    +0.000 A 
ATOM     12  C   UNL     1       5.454   3.639  15.852  0.00  0.00    +0.000 A 
ATOM     13  C   UNL     1       5.926   4.499  16.874  0.00  0.00    +0.000 A 
BRANCH   7  14
ATOM     14  O   UNL     1       8.148   7.436  16.999  0.00  0.00    +0.000 OA
ATOM     15  H   UNL     1       8.326   7.355  16.050  0.00  0.00    +0.000 HD
ENDBRANCH   7  14
ENDBRANCH   1   4
BRANCH   1  17
ATOM     16  C   UNL     1       1.946   3.634  17.316  0.00  0.00    +0.000 C 
ATOM     17  N   UNL     1       2.794   4.276  18.322  0.00  0.00    +0.000 N 
BRANCH  17  18
ATOM     18  C   UNL     1       2.652   5.671  18.577  0.00  0.00    +0.000 A 
ATOM     19  C   UNL     1       2.995   6.572  17.565  0.00  0.00    +0.000 A 
ATOM     20  C   UNL     1       2.807   7.941  17.751  0.00  0.00    +0.000 A 
ATOM     21  C   UNL     1       2.268   8.409  18.950  0.00  0.00    +0.000 A 
ATOM     22  C   UNL     1       1.944   7.505  19.964  0.00  0.00    +0.000 A 
ATOM     23 CL   UNL     1       1.264   8.086  21.432  0.00  0.00    +0.000 Cl
ATOM     24  C   UNL     1       2.146   6.136  19.790  0.00  0.00    +0.000 A 
ENDBRANCH  17  18
ENDBRANCH   1  17
TORSDOF 4
ENDMDL
MODEL 4
REMARK VINA RESULT:      -7.9      1.151      2.408
REMARK  Name = 
REMARK  5 active torsions:
REMARK  status: ('A' for Active; 'I' for Inactive)
REMARK    1  A    between atoms: C_1  and  N_2
REMARK    2  A    between atoms: N_2  and  C_3
REMARK    3  A    between atoms: N_2  and  S_10
REMARK    4  A    between atoms: S_10  and  C_13
REMARK    5  A    between atoms: C_16  and  O_17
REMARK                            x       y       z     vdW  Elec       q    Type
REMARK                         _______ _______ _______ _____ _____    ______ ____
ROOT
ATOM      1  S   UNL     1       4.134   3.229  18.778  0.00  0.00    +0.000 S 
ATOM      2  O   UNL     1       4.163   3.132  20.221  0.00  0.00    +0.000 OA
ATOM      3  O   UNL     1       4.235   2.017  17.984  0.00  0.00    +0.000 OA
ENDROOT
BRANCH   1   4
ATOM      4  C   UNL     1       5.495   4.290  18.255  0.00  0.00    +0.000 A 
ATOM      5  C   UNL     1       5.994   5.171  19.230  0.00  0.00    +0.000 A 
ATOM      6  C   UNL     1       6.815   6.225  18.865  0.00  0.00    +0.000 A 
ATOM      7  C   UNL     1       7.145   6.395  17.520  0.00  0.00    +0.000 A 
ATOM      8  C   UNL     1       6.728   5.505  16.521  0.00  0.00    +0.000 A 
ATOM      9  N   UNL     1       7.129   5.715  15.247  0.00  0.00    +0.000 NA
ATOM     10  C   UNL     1       6.745   4.861  14.282  0.00  0.00    +0.000 A 
ATOM     11  C   UNL     1       5.950   3.769  14.522  0.00  0.00    +0.000 A 
ATOM     12  C   UNL     1       5.515   3.557  15.826  0.00  0.00    +0.000 A 
ATOM     13  C   UNL     1       5.887   4.421  16.885  0.00  0.00    +0.000 A 
BRANCH   7  14
ATOM     14  O   UNL     1       7.901   7.494  17.166  0.00  0.00    +0.000 OA
ATOM     15  H   UNL     1       8.676   7.208  16.659  0.00  0.00    +0.000 HD
ENDBRANCH   7  14
ENDBRANCH   1   4
BRANCH   1  17
ATOM     16  C   UNL     1       2.025   3.569  17.088  0.00  0.00    +0.000 C 
ATOM     17  N   UNL     1       2.714   4.020  18.299  0.00  0.00    +0.000 N 
BRANCH  17  18
ATOM     18  C   UNL     1       2.396   5.291  18.859  0.00  0.00    +0.000 A 
ATOM     19  C   UNL     1       2.008   5.349  20.200  0.00  0.00    +0.000 A 
ATOM     20  C   UNL     1       1.754   6.581  20.804  0.00  0.00    +0.000 A 
ATOM     21  C   UNL     1       1.896   7.756  20.065  0.00  0.00    +0.000 A 
ATOM     22  C   UNL     1       2.267   7.689  18.721  0.00  0.00    +0.000 A 
ATOM     23 CL   UNL     1       2.457   9.142  17.821  0.00  0.00    +0.000 Cl
ATOM     24  C   UNL     1       2.505   6.460  18.107  0.00  0.00    +0.000 A 
ENDBRANCH  17  18
ENDBRANCH   1  17
TORSDOF 4
ENDMDL
MODEL 5
REMARK VINA RESULT:      -7.8      1.275      2.479
REMARK  Name = 
REMARK  5 active torsions:
REMARK  status: ('A' for Active; 'I' for Inactive)
REMARK    1  A    between atoms: C_1  and  N_2
REMARK    2  A    between atoms: N_2  and  C_3
REMARK    3  A    between atoms: N_2  and  S_10
REMARK    4  A    between atoms: S_10  and  C_13
REMARK    5  A    between atoms: C_16  and  O_17
REMARK                            x       y       z     vdW  Elec       q    Type
REMARK                         _______ _______ _______ _____ _____    ______ ____
ROOT
ATOM      1  S   UNL     1       3.369   3.076  18.002  0.00  0.00    +0.000 S 
ATOM      2  O   UNL     1       3.618   1.655  18.109  0.00  0.00    +0.000 OA
ATOM      3  O   UNL     1       2.635   3.582  16.855  0.00  0.00    +0.000 OA
ENDROOT
BRANCH   1   4
ATOM      4  C   UNL     1       4.958   3.929  18.001  0.00  0.00    +0.000 A 
ATOM      5  C   UNL     1       5.362   4.472  19.234  0.00  0.00    +0.000 A 
ATOM      6  C   UNL     1       6.393   5.394  19.288  0.00  0.00    +0.000 A 
ATOM      7  C   UNL     1       7.029   5.771  18.104  0.00  0.00    +0.000 A 
ATOM      8  C   UNL     1       6.708   5.209  16.861  0.00  0.00    +0.000 A 
ATOM      9  N   UNL     1       7.404   5.596  15.769  0.00  0.00    +0.000 NA
ATOM     10  C   UNL     1       7.113   5.054  14.572  0.00  0.00    +0.000 A 
ATOM     11  C   UNL     1       6.127   4.117  14.395  0.00  0.00    +0.000 A 
ATOM     12  C   UNL     1       5.392   3.730  15.509  0.00  0.00    +0.000 A 
ATOM     13  C   UNL     1       5.653   4.263  16.796  0.00  0.00    +0.000 A 
BRANCH   7  14
ATOM     14  O   UNL     1       8.003   6.747  18.168  0.00  0.00    +0.000 OA
ATOM     15  H   UNL     1       7.659   7.522  18.637  0.00  0.00    +0.000 HD
ENDBRANCH   7  14
ENDBRANCH   1   4
BRANCH   1  17
ATOM     16  C   UNL     1       1.855   2.625  20.221  0.00  0.00    +0.000 C 
ATOM     17  N   UNL     1       2.553   3.607  19.388  0.00  0.00    +0.000 N 
BRANCH  17  18
ATOM     18  C   UNL     1       2.267   4.994  19.544  0.00  0.00    +0.000 A 
ATOM     19  C   UNL     1       1.739   5.432  20.762  0.00  0.00    +0.000 A 
ATOM     20  C   UNL     1       1.508   6.790  20.979  0.00  0.00    +0.000 A 
ATOM     21  C   UNL     1       1.813   7.712  19.977  0.00  0.00    +0.000 A 
ATOM     22  C   UNL     1       2.323   7.266  18.757  0.00  0.00    +0.000 A 
ATOM     23 CL   UNL     1       2.713   8.409  17.533  0.00  0.00    +0.000 Cl
ATOM     24  C   UNL     1       2.540   5.908  18.528  0.00  0.00    +0.000 A 
ENDBRANCH  17  18
ENDBRANCH   1  17
TORSDOF 4
ENDMDL
MODEL 6
REMARK VINA RESULT:      -7.7      0.967      1.400
REMARK  Name = 
REMARK  5 active torsions:
REMARK  status: ('A' for Active; 'I' for Inactive)
REMARK    1  A    between atoms: C_1  and  N_2
REMARK    2  A    between atoms: N_2  and  C_3
REMARK    3  A    between atoms: N_2  and  S_10
REMARK    4  A    between atoms: S_10  and  C_13
REMARK    5  A    between atoms: C_16  and  O_17
REMARK                            x       y       z     vdW  Elec       q    Type
REMARK                         _______ _______ _______ _____ _____    ______ ____
ROOT
ATOM      1  S   UNL     1       3.873   2.903  18.720  0.00  0.00    +0.000 S 
ATOM      2  O   UNL     1       4.604   2.845  19.966  0.00  0.00    +0.000 OA
ATOM      3  O   UNL     1       3.580   1.669  18.011  0.00  0.00    +0.000 OA
ENDROOT
BRANCH   1   4
ATOM      4  C   UNL     1       4.800   3.937  17.569  0.00  0.00    +0.000 A 
ATOM      5  C   UNL     1       4.575   3.687  16.204  0.00  0.00    +0.000 A 
ATOM      6  C   UNL     1       5.438   4.196  15.248  0.00  0.00    +0.000 A 
ATOM      7  C   UNL     1       6.528   4.965  15.658  0.00  0.00    +0.000 A 
ATOM      8  C   UNL     1       6.756   5.299  17.000  0.00  0.00    +0.000 A 
ATOM      9  N   UNL     1       7.809   6.087  17.309  0.00  0.00    +0.000 NA
ATOM     10  C   UNL     1       8.031   6.424  18.593  0.00  0.00    +0.000 A 
ATOM     11  C   UNL     1       7.234   5.999  19.626  0.00  0.00    +0.000 A 
ATOM     12  C   UNL     1       6.162   5.169  19.320  0.00  0.00    +0.000 A 
ATOM     13  C   UNL     1       5.876   4.782  17.987  0.00  0.00    +0.000 A 
BRANCH   7  14
ATOM     14  O   UNL     1       7.419   5.400  14.698  0.00  0.00    +0.000 OA
ATOM     15  H   UNL     1       7.296   4.890  13.884  0.00  0.00    +0.000 HD
ENDBRANCH   7  14
ENDBRANCH   1   4
BRANCH   1  17
ATOM     16  C   UNL     1       1.151   2.941  18.797  0.00  0.00    +0.000 C 
ATOM     17  N   UNL     1       2.395   3.692  18.973  0.00  0.00    +0.000 N 
BRANCH  17  18
ATOM     18  C   UNL     1       2.359   5.116  19.016  0.00  0.00    +0.000 A 
ATOM     19  C   UNL     1       2.557   5.823  17.826  0.00  0.00    +0.000 A 
ATOM     20  C   UNL     1       2.463   7.214  17.813  0.00  0.00    +0.000 A 
ATOM     21  C   UNL     1       2.164   7.898  18.991  0.00  0.00    +0.000 A 
ATOM     22  C   UNL     1       1.986   7.188  20.180  0.00  0.00    +0.000 A 
ATOM     23 CL   UNL     1       1.600   8.036  21.625  0.00  0.00    +0.000 Cl
ATOM     24  C   UNL     1       2.095   5.797  20.202  0.00  0.00    +0.000 A 
ENDBRANCH  17  18
ENDBRANCH   1  17
TORSDOF 4
ENDMDL
MODEL 7
REMARK VINA RESULT:      -7.6      2.775      6.275
REMARK  Name = 
REMARK  5 active torsions:
REMARK  status: ('A' for Active; 'I' for Inactive)
REMARK    1  A    between atoms: C_1  and  N_2
REMARK    2  A    between atoms: N_2  and  C_3
REMARK    3  A    between atoms: N_2  and  S_10
REMARK    4  A    between atoms: S_10  and  C_13
REMARK    5  A    between atoms: C_16  and  O_17
REMARK                            x       y       z     vdW  Elec       q    Type
REMARK                         _______ _______ _______ _____ _____    ______ ____
ROOT
ATOM      1  S   UNL     1       5.325   5.661  16.890  0.00  0.00    +0.000 S 
ATOM      2  O   UNL     1       5.832   6.577  17.888  0.00  0.00    +0.000 OA
ATOM      3  O   UNL     1       4.571   6.187  15.764  0.00  0.00    +0.000 OA
ENDROOT
BRANCH   1   4
ATOM      4  C   UNL     1       4.244   4.473  17.709  0.00  0.00    +0.000 A 
ATOM      5  C   UNL     1       4.254   3.170  17.179  0.00  0.00    +0.000 A 
ATOM      6  C   UNL     1       3.260   2.269  17.521  0.00  0.00    +0.000 A 
ATOM      7  C   UNL     1       2.255   2.668  18.403  0.00  0.00    +0.000 A 
ATOM      8  C   UNL     1       2.240   3.932  19.010  0.00  0.00    +0.000 A 
ATOM      9  N   UNL     1       1.255   4.224  19.889  0.00  0.00    +0.000 NA
ATOM     10  C   UNL     1       1.238   5.429  20.486  0.00  0.00    +0.000 A 
ATOM     11  C   UNL     1       2.178   6.398  20.245  0.00  0.00    +0.000 A 
ATOM     12  C   UNL     1       3.182   6.114  19.326  0.00  0.00    +0.000 A 
ATOM     13  C   UNL     1       3.255   4.862  18.666  0.00  0.00    +0.000 A 
BRANCH   7  14
ATOM     14  O   UNL     1       1.232   1.782  18.673  0.00  0.00    +0.000 OA
ATOM     15  H   UNL     1       1.244   1.062  18.024  0.00  0.00    +0.000 HD
ENDBRANCH   7  14
ENDBRANCH   1   4
BRANCH   1  17
ATOM     16  C   UNL     1       7.727   4.400  17.124  0.00  0.00    +0.000 C 
ATOM     17  N   UNL     1       6.610   4.762  16.249  0.00  0.00    +0.000 N 
BRANCH  17  18
ATOM     18  C   UNL     1       6.760   4.663  14.836  0.00  0.00    +0.000 A 
ATOM     19  C   UNL     1       7.715   5.469  14.210  0.00  0.00    +0.000 A 
ATOM     20  C   UNL     1       7.940   5.353  12.838  0.00  0.00    +0.000 A 
ATOM     21  C   UNL     1       7.212   4.425  12.094  0.00  0.00    +0.000 A 
ATOM     22  C   UNL     1       6.247   3.636  12.722  0.00  0.00    +0.000 A 
ATOM     23 CL   UNL     1       5.365   2.482  11.802  0.00  0.00    +0.000 Cl
ATOM     24  C   UNL     1       6.006   3.759  14.091  0.00  0.00    +0.000 A 
ENDBRANCH  17  18
ENDBRANCH   1  17
TORSDOF 4
ENDMDL
MODEL 8
REMARK VINA RESULT:      -7.2      0.974      1.134
REMARK  Name = 
REMARK  5 active torsions:
REMARK  status: ('A' for Active; 'I' for Inactive)
REMARK    1  A    between atoms: C_1  and  N_2
REMARK    2  A    between atoms: N_2  and  C_3
REMARK    3  A    between atoms: N_2  and  S_10
REMARK    4  A    between atoms: S_10  and  C_13
REMARK    5  A    between atoms: C_16  and  O_17
REMARK                            x       y       z     vdW  Elec       q    Type
REMARK                         _______ _______ _______ _____ _____    ______ ____
ROOT
ATOM      1  S   UNL     1       3.229   3.214  17.774  0.00  0.00    +0.000 S 
ATOM      2  O   UNL     1       3.696   1.849  17.874  0.00  0.00    +0.000 OA
ATOM      3  O   UNL     1       1.991   3.489  17.066  0.00  0.00    +0.000 OA
ENDROOT
BRANCH   1   4
ATOM      4  C   UNL     1       4.506   4.190  16.955  0.00  0.00    +0.000 A 
ATOM      5  C   UNL     1       4.460   4.202  15.550  0.00  0.00    +0.000 A 
ATOM      6  C   UNL     1       5.546   4.655  14.819  0.00  0.00    +0.000 A 
ATOM      7  C   UNL     1       6.680   5.106  15.496  0.00  0.00    +0.000 A 
ATOM      8  C   UNL     1       6.748   5.177  16.894  0.00  0.00    +0.000 A 
ATOM      9  N   UNL     1       7.867   5.669  17.471  0.00  0.00    +0.000 NA
ATOM     10  C   UNL     1       7.938   5.753  18.812  0.00  0.00    +0.000 A 
ATOM     11  C   UNL     1       6.921   5.355  19.642  0.00  0.00    +0.000 A 
ATOM     12  C   UNL     1       5.775   4.827  19.058  0.00  0.00    +0.000 A 
ATOM     13  C   UNL     1       5.640   4.715  17.652  0.00  0.00    +0.000 A 
BRANCH   7  14
ATOM     14  O   UNL     1       7.779   5.482  14.751  0.00  0.00    +0.000 OA
ATOM     15  H   UNL     1       8.078   4.736  14.210  0.00  0.00    +0.000 HD
ENDBRANCH   7  14
ENDBRANCH   1   4
BRANCH   1  17
ATOM     16  C   UNL     1       3.129   2.968  20.484  0.00  0.00    +0.000 C 
ATOM     17  N   UNL     1       3.066   3.866  19.329  0.00  0.00    +0.000 N 
BRANCH  17  18
ATOM     18  C   UNL     1       2.544   5.182  19.486  0.00  0.00    +0.000 A 
ATOM     19  C   UNL     1       1.911   5.508  20.689  0.00  0.00    +0.000 A 
ATOM     20  C   UNL     1       1.446   6.805  20.908  0.00  0.00    +0.000 A 
ATOM     21  C   UNL     1       1.622   7.778  19.924  0.00  0.00    +0.000 A 
ATOM     22  C   UNL     1       2.239   7.441  18.718  0.00  0.00    +0.000 A 
ATOM     23 CL   UNL     1       2.468   8.650  17.517  0.00  0.00    +0.000 Cl
ATOM     24  C   UNL     1       2.691   6.142  18.486  0.00  0.00    +0.000 A 
ENDBRANCH  17  18
ENDBRANCH   1  17
TORSDOF 4
ENDMDL
MODEL 9
REMARK VINA RESULT:      -7.2      2.442      5.445
REMARK  Name = 
REMARK  5 active torsions:
REMARK  status: ('A' for Active; 'I' for Inactive)
REMARK    1  A    between atoms: C_1  and  N_2
REMARK    2  A    between atoms: N_2  and  C_3
REMARK    3  A    between atoms: N_2  and  S_10
REMARK    4  A    between atoms: S_10  and  C_13
REMARK    5  A    between atoms: C_16  and  O_17
REMARK                            x       y       z     vdW  Elec       q    Type
REMARK                         _______ _______ _______ _____ _____    ______ ____
ROOT
ATOM      1  S   UNL     1       5.067   5.668  15.594  0.00  0.00    +0.000 S 
ATOM      2  O   UNL     1       5.081   7.028  15.102  0.00  0.00    +0.000 OA
ATOM      3  O   UNL     1       4.609   4.603  14.719  0.00  0.00    +0.000 OA
ENDROOT
BRANCH   1   4
ATOM      4  C   UNL     1       4.014   5.606  17.057  0.00  0.00    +0.000 A 
ATOM      5  C   UNL     1       3.676   6.849  17.621  0.00  0.00    +0.000 A 
ATOM      6  C   UNL     1       3.138   6.916  18.895  0.00  0.00    +0.000 A 
ATOM      7  C   UNL     1       2.931   5.734  19.608  0.00  0.00    +0.000 A 
ATOM      8  C   UNL     1       3.189   4.468  19.064  0.00  0.00    +0.000 A 
ATOM      9  N   UNL     1       2.918   3.370  19.804  0.00  0.00    +0.000 NA
ATOM     10  C   UNL     1       3.150   2.150  19.288  0.00  0.00    +0.000 A 
ATOM     11  C   UNL     1       3.661   1.954  18.029  0.00  0.00    +0.000 A 
ATOM     12  C   UNL     1       3.964   3.078  17.270  0.00  0.00    +0.000 A 
ATOM     13  C   UNL     1       3.740   4.390  17.758  0.00  0.00    +0.000 A 
BRANCH   7  14
ATOM     14  O   UNL     1       2.466   5.825  20.904  0.00  0.00    +0.000 OA
ATOM     15  H   UNL     1       2.544   4.964  21.340  0.00  0.00    +0.000 HD
ENDBRANCH   7  14
ENDBRANCH   1   4
BRANCH   1  17
ATOM     16  C   UNL     1       7.202   3.979  15.669  0.00  0.00    +0.000 C 
ATOM     17  N   UNL     1       6.622   5.246  16.118  0.00  0.00    +0.000 N 
BRANCH  17  18
ATOM     18  C   UNL     1       7.199   5.932  17.226  0.00  0.00    +0.000 A 
ATOM     19  C   UNL     1       7.499   5.202  18.379  0.00  0.00    +0.000 A 
ATOM     20  C   UNL     1       8.126   5.823  19.459  0.00  0.00    +0.000 A 
ATOM     21  C   UNL     1       8.458   7.176  19.382  0.00  0.00    +0.000 A 
ATOM     22  C   UNL     1       8.138   7.904  18.235  0.00  0.00    +0.000 A 
ATOM     23 CL   UNL     1       8.565   9.567  18.140  0.00  0.00    +0.000 Cl
ATOM     24  C   UNL     1       7.496   7.293  17.158  0.00  0.00    +0.000 A 
ENDBRANCH  17  18
ENDBRANCH   1  17
TORSDOF 4
ENDMDL
