MODEL 1
REMARK VINA RESULT:      -8.5      0.000      0.000
REMARK  Name = 
REMARK  6 active torsions:
REMARK  status: ('A' for Active; 'I' for Inactive)
REMARK    1  A    between atoms: C_2  and  C_22
REMARK    2  A    between atoms: N_3  and  C_4
REMARK    3  A    between atoms: C_13  and  O_14
REMARK    4  A    between atoms: O_14  and  C_15
REMARK    5  A    between atoms: C_15  and  C_16
REMARK    6  A    between atoms: C_25  and  C_26
REMARK                            x       y       z     vdW  Elec       q    Type
REMARK                         _______ _______ _______ _____ _____    ______ ____
ROOT
ATOM      1  C   UNL     1       3.780   5.722  19.292  0.00  0.00    +0.000 C 
ATOM      2  C   UNL     1       2.891   4.578  19.766  0.00  0.00    +0.000 A 
ATOM      3  C   UNL     1       3.357   3.255  19.662  0.00  0.00    +0.000 A 
ATOM      4  C   UNL     1       2.511   2.181  19.922  0.00  0.00    +0.000 A 
ATOM      5  C   UNL     1       1.194   2.416  20.304  0.00  0.00    +0.000 A 
ATOM      6  C   UNL     1       0.753   3.722  20.515  0.00  0.00    +0.000 A 
ATOM      7  C   UNL     1       1.611   4.808  20.298  0.00  0.00    +0.000 A 
ATOM      8  C   UNL     1       1.131   6.200  20.624  0.00  0.00    +0.000 C 
ATOM      9  C   UNL     1       2.275   7.212  20.637  0.00  0.00    +0.000 C 
ATOM     10  C   UNL     1       3.067   7.114  19.324  0.00  0.00    +0.000 C 
ENDROOT
BRANCH   1  13
ATOM     11  O   UNL     1       6.362   4.756  18.687  0.00  0.00    +0.000 OA
ATOM     12  C   UNL     1       5.564   4.925  17.770  0.00  0.00    +0.000 C 
ATOM     13  N   UNL     1       4.291   5.397  17.960  0.00  0.00    +0.000 N 
ATOM     14  H   UNL     1       3.787   5.796  17.177  0.00  0.00    +0.000 HD
BRANCH  12  15
ATOM     15  C   UNL     1       5.956   4.603  16.373  0.00  0.00    +0.000 A 
ATOM     16  C   UNL     1       7.058   5.198  15.739  0.00  0.00    +0.000 A 
ATOM     17  C   UNL     1       7.304   4.956  14.374  0.00  0.00    +0.000 A 
ATOM     18  C   UNL     1       6.453   4.116  13.634  0.00  0.00    +0.000 A 
ATOM     19  C   UNL     1       5.373   3.503  14.286  0.00  0.00    +0.000 A 
ATOM     20  C   UNL     1       5.127   3.749  15.640  0.00  0.00    +0.000 A 
BRANCH  18  21
ATOM     21  C   UNL     1       6.653   3.886  12.153  0.00  0.00    +0.000 C 
ATOM     22  F   UNL     1       7.454   4.812  11.557  0.00  0.00    +0.000 F 
ATOM     23  F   UNL     1       7.215   2.675  11.883  0.00  0.00    +0.000 F 
ATOM     24  F   UNL     1       5.478   3.912  11.463  0.00  0.00    +0.000 F 
ENDBRANCH  18  21
ENDBRANCH  12  15
ENDBRANCH   1  13
BRANCH  10  25
ATOM     25  O   UNL     1       2.192   7.262  18.183  0.00  0.00    +0.000 OA
BRANCH  25  26
ATOM     26  C   UNL     1       2.402   8.474  17.455  0.00  0.00    +0.000 C 
BRANCH  26  27
ATOM     27  C   UNL     1       1.461   9.534  17.963  0.00  0.00    +0.000 A 
ATOM     28  C   UNL     1       1.959  10.752  18.450  0.00  0.00    +0.000 A 
ATOM     29  C   UNL     1       1.089  11.745  18.901  0.00  0.00    +0.000 A 
ATOM     30  C   UNL     1      -0.287  11.533  18.866  0.00  0.00    +0.000 A 
ATOM     31  C   UNL     1      -0.795  10.333  18.370  0.00  0.00    +0.000 A 
ATOM     32  C   UNL     1       0.074   9.339  17.917  0.00  0.00    +0.000 A 
ENDBRANCH  26  27
ENDBRANCH  25  26
ENDBRANCH  10  25
TORSDOF 6
ENDMDL
MODEL 2
REMARK VINA RESULT:      -8.4      0.251      1.132
REMARK  Name = 
REMARK  6 active torsions:
REMARK  status: ('A' for Active; 'I' for Inactive)
REMARK    1  A    between atoms: C_2  and  C_22
REMARK    2  A    between atoms: N_3  and  C_4
REMARK    3  A    between atoms: C_13  and  O_14
REMARK    4  A    between atoms: O_14  and  C_15
REMARK    5  A    between atoms: C_15  and  C_16
REMARK    6  A    between atoms: C_25  and  C_26
REMARK                            x       y       z     vdW  Elec       q    Type
REMARK                         _______ _______ _______ _____ _____    ______ ____
ROOT
ATOM      1  C   UNL     1       3.752   5.722  19.291  0.00  0.00    +0.000 C 
ATOM      2  C   UNL     1       2.833   4.625  19.814  0.00  0.00    +0.000 A 
ATOM      3  C   UNL     1       3.258   3.286  19.757  0.00  0.00    +0.000 A 
ATOM      4  C   UNL     1       2.382   2.248  20.063  0.00  0.00    +0.000 A 
ATOM      5  C   UNL     1       1.075   2.537  20.442  0.00  0.00    +0.000 A 
ATOM      6  C   UNL     1       0.675   3.863  20.606  0.00  0.00    +0.000 A 
ATOM      7  C   UNL     1       1.563   4.914  20.343  0.00  0.00    +0.000 A 
ATOM      8  C   UNL     1       1.128   6.331  20.619  0.00  0.00    +0.000 C 
ATOM      9  C   UNL     1       2.302   7.307  20.587  0.00  0.00    +0.000 C 
ATOM     10  C   UNL     1       3.082   7.135  19.275  0.00  0.00    +0.000 C 
ENDROOT
BRANCH   1  13
ATOM     11  O   UNL     1       6.450   5.691  18.460  0.00  0.00    +0.000 OA
ATOM     12  C   UNL     1       5.582   5.344  17.665  0.00  0.00    +0.000 C 
ATOM     13  N   UNL     1       4.245   5.333  17.970  0.00  0.00    +0.000 N 
ATOM     14  H   UNL     1       3.564   5.331  17.220  0.00  0.00    +0.000 HD
BRANCH  12  15
ATOM     15  C   UNL     1       5.960   4.897  16.299  0.00  0.00    +0.000 A 
ATOM     16  C   UNL     1       7.143   5.310  15.667  0.00  0.00    +0.000 A 
ATOM     17  C   UNL     1       7.386   4.963  14.324  0.00  0.00    +0.000 A 
ATOM     18  C   UNL     1       6.449   4.199  13.605  0.00  0.00    +0.000 A 
ATOM     19  C   UNL     1       5.285   3.767  14.256  0.00  0.00    +0.000 A 
ATOM     20  C   UNL     1       5.043   4.118  15.588  0.00  0.00    +0.000 A 
BRANCH  18  21
ATOM     21  C   UNL     1       6.650   3.863  12.145  0.00  0.00    +0.000 C 
ATOM     22  F   UNL     1       5.490   3.764  11.438  0.00  0.00    +0.000 F 
ATOM     23  F   UNL     1       7.408   4.788  11.493  0.00  0.00    +0.000 F 
ATOM     24  F   UNL     1       7.291   2.672  11.973  0.00  0.00    +0.000 F 
ENDBRANCH  18  21
ENDBRANCH  12  15
ENDBRANCH   1  13
BRANCH  10  25
ATOM     25  O   UNL     1       2.205   7.267  18.134  0.00  0.00    +0.000 OA
BRANCH  25  26
ATOM     26  C   UNL     1       2.411   8.470  17.390  0.00  0.00    +0.000 C 
BRANCH  26  27
ATOM     27  C   UNL     1       1.524   9.557  17.936  0.00  0.00    +0.000 A 
ATOM     28  C   UNL     1       0.147   9.338  18.096  0.00  0.00    +0.000 A 
ATOM     29  C   UNL     1      -0.674  10.336  18.622  0.00  0.00    +0.000 A 
ATOM     30  C   UNL     1      -0.127  11.560  18.998  0.00  0.00    +0.000 A 
ATOM     31  C   UNL     1       1.242  11.784  18.859  0.00  0.00    +0.000 A 
ATOM     32  C   UNL     1       2.065  10.787  18.334  0.00  0.00    +0.000 A 
ENDBRANCH  26  27
ENDBRANCH  25  26
ENDBRANCH  10  25
TORSDOF 6
ENDMDL
MODEL 3
REMARK VINA RESULT:      -8.0      0.555      1.289
REMARK  Name = 
REMARK  6 active torsions:
REMARK  status: ('A' for Active; 'I' for Inactive)
REMARK    1  A    between atoms: C_2  and  C_22
REMARK    2  A    between atoms: N_3  and  C_4
REMARK    3  A    between atoms: C_13  and  O_14
REMARK    4  A    between atoms: O_14  and  C_15
REMARK    5  A    between atoms: C_15  and  C_16
REMARK    6  A    between atoms: C_25  and  C_26
REMARK                            x       y       z     vdW  Elec       q    Type
REMARK                         _______ _______ _______ _____ _____    ______ ____
ROOT
ATOM      1  C   UNL     1       3.683   5.843  19.199  0.00  0.00    +0.000 C 
ATOM      2  C   UNL     1       2.842   4.676  19.704  0.00  0.00    +0.000 A 
ATOM      3  C   UNL     1       3.308   3.362  19.519  0.00  0.00    +0.000 A 
ATOM      4  C   UNL     1       2.492   2.273  19.809  0.00  0.00    +0.000 A 
ATOM      5  C   UNL     1       1.207   2.482  20.300  0.00  0.00    +0.000 A 
ATOM      6  C   UNL     1       0.775   3.776  20.588  0.00  0.00    +0.000 A 
ATOM      7  C   UNL     1       1.606   4.877  20.341  0.00  0.00    +0.000 A 
ATOM      8  C   UNL     1       1.144   6.253  20.750  0.00  0.00    +0.000 C 
ATOM      9  C   UNL     1       2.279   7.274  20.707  0.00  0.00    +0.000 C 
ATOM     10  C   UNL     1       2.966   7.227  19.334  0.00  0.00    +0.000 C 
ENDROOT
BRANCH   1  13
ATOM     11  O   UNL     1       6.307   5.294  18.314  0.00  0.00    +0.000 OA
ATOM     12  C   UNL     1       5.395   5.304  17.493  0.00  0.00    +0.000 C 
ATOM     13  N   UNL     1       4.091   5.568  17.822  0.00  0.00    +0.000 N 
ATOM     14  H   UNL     1       3.444   5.855  17.097  0.00  0.00    +0.000 HD
BRANCH  12  15
ATOM     15  C   UNL     1       5.678   5.009  16.063  0.00  0.00    +0.000 A 
ATOM     16  C   UNL     1       4.705   4.505  15.187  0.00  0.00    +0.000 A 
ATOM     17  C   UNL     1       5.061   4.121  13.881  0.00  0.00    +0.000 A 
ATOM     18  C   UNL     1       6.391   4.239  13.441  0.00  0.00    +0.000 A 
ATOM     19  C   UNL     1       7.349   4.772  14.315  0.00  0.00    +0.000 A 
ATOM     20  C   UNL     1       6.994   5.148  15.614  0.00  0.00    +0.000 A 
BRANCH  18  21
ATOM     21  C   UNL     1       6.818   3.776  12.066  0.00  0.00    +0.000 C 
ATOM     22  F   UNL     1       7.508   4.716  11.360  0.00  0.00    +0.000 F 
ATOM     23  F   UNL     1       7.620   2.676  12.108  0.00  0.00    +0.000 F 
ATOM     24  F   UNL     1       5.756   3.431  11.284  0.00  0.00    +0.000 F 
ENDBRANCH  18  21
ENDBRANCH  12  15
ENDBRANCH   1  13
BRANCH  10  25
ATOM     25  O   UNL     1       2.003   7.404  18.271  0.00  0.00    +0.000 OA
BRANCH  25  26
ATOM     26  C   UNL     1       2.051   8.698  17.667  0.00  0.00    +0.000 C 
BRANCH  26  27
ATOM     27  C   UNL     1       0.926   9.545  18.201  0.00  0.00    +0.000 A 
ATOM     28  C   UNL     1      -0.360   9.449  17.649  0.00  0.00    +0.000 A 
ATOM     29  C   UNL     1      -1.410  10.215  18.155  0.00  0.00    +0.000 A 
ATOM     30  C   UNL     1      -1.186  11.082  19.222  0.00  0.00    +0.000 A 
ATOM     31  C   UNL     1       0.084  11.175  19.790  0.00  0.00    +0.000 A 
ATOM     32  C   UNL     1       1.135  10.408  19.285  0.00  0.00    +0.000 A 
ENDBRANCH  26  27
ENDBRANCH  25  26
ENDBRANCH  10  25
TORSDOF 6
ENDMDL
MODEL 4
REMARK VINA RESULT:      -8.0      0.513      1.151
REMARK  Name = 
REMARK  6 active torsions:
REMARK  status: ('A' for Active; 'I' for Inactive)
REMARK    1  A    between atoms: C_2  and  C_22
REMARK    2  A    between atoms: N_3  and  C_4
REMARK    3  A    between atoms: C_13  and  O_14
REMARK    4  A    between atoms: O_14  and  C_15
REMARK    5  A    between atoms: C_15  and  C_16
REMARK    6  A    between atoms: C_25  and  C_26
REMARK                            x       y       z     vdW  Elec       q    Type
REMARK                         _______ _______ _______ _____ _____    ______ ____
ROOT
ATOM      1  C   UNL     1       3.723   5.848  19.179  0.00  0.00    +0.000 C 
ATOM      2  C   UNL     1       2.889   4.681  19.694  0.00  0.00    +0.000 A 
ATOM      3  C   UNL     1       3.358   3.368  19.515  0.00  0.00    +0.000 A 
ATOM      4  C   UNL     1       2.547   2.277  19.815  0.00  0.00    +0.000 A 
ATOM      5  C   UNL     1       1.264   2.485  20.311  0.00  0.00    +0.000 A 
ATOM      6  C   UNL     1       0.829   3.779  20.593  0.00  0.00    +0.000 A 
ATOM      7  C   UNL     1       1.655   4.882  20.336  0.00  0.00    +0.000 A 
ATOM      8  C   UNL     1       1.191   6.259  20.739  0.00  0.00    +0.000 C 
ATOM      9  C   UNL     1       2.321   7.283  20.685  0.00  0.00    +0.000 C 
ATOM     10  C   UNL     1       3.002   7.230  19.309  0.00  0.00    +0.000 C 
ENDROOT
BRANCH   1  13
ATOM     11  O   UNL     1       6.344   5.300  18.285  0.00  0.00    +0.000 OA
ATOM     12  C   UNL     1       5.429   5.303  17.468  0.00  0.00    +0.000 C 
ATOM     13  N   UNL     1       4.125   5.566  17.801  0.00  0.00    +0.000 N 
ATOM     14  H   UNL     1       3.474   5.848  17.077  0.00  0.00    +0.000 HD
BRANCH  12  15
ATOM     15  C   UNL     1       5.706   5.001  16.039  0.00  0.00    +0.000 A 
ATOM     16  C   UNL     1       4.729   4.495  15.168  0.00  0.00    +0.000 A 
ATOM     17  C   UNL     1       5.079   4.103  13.862  0.00  0.00    +0.000 A 
ATOM     18  C   UNL     1       6.409   4.217  13.417  0.00  0.00    +0.000 A 
ATOM     19  C   UNL     1       7.370   4.754  14.285  0.00  0.00    +0.000 A 
ATOM     20  C   UNL     1       7.021   5.136  15.584  0.00  0.00    +0.000 A 
BRANCH  18  21
ATOM     21  C   UNL     1       6.830   3.748  12.042  0.00  0.00    +0.000 C 
ATOM     22  F   UNL     1       7.717   2.714  12.063  0.00  0.00    +0.000 F 
ATOM     23  F   UNL     1       5.778   3.325  11.288  0.00  0.00    +0.000 F 
ATOM     24  F   UNL     1       7.430   4.736  11.321  0.00  0.00    +0.000 F 
ENDBRANCH  18  21
ENDBRANCH  12  15
ENDBRANCH   1  13
BRANCH  10  25
ATOM     25  O   UNL     1       2.034   7.398  18.249  0.00  0.00    +0.000 OA
BRANCH  25  26
ATOM     26  C   UNL     1       2.090   8.680  17.621  0.00  0.00    +0.000 C 
BRANCH  26  27
ATOM     27  C   UNL     1       0.973   9.545  18.142  0.00  0.00    +0.000 A 
ATOM     28  C   UNL     1       1.230  10.536  19.101  0.00  0.00    +0.000 A 
ATOM     29  C   UNL     1       0.201  11.353  19.571  0.00  0.00    +0.000 A 
ATOM     30  C   UNL     1      -1.094  11.191  19.083  0.00  0.00    +0.000 A 
ATOM     31  C   UNL     1      -1.359  10.219  18.119  0.00  0.00    +0.000 A 
ATOM     32  C   UNL     1      -0.330   9.402  17.647  0.00  0.00    +0.000 A 
ENDBRANCH  26  27
ENDBRANCH  25  26
ENDBRANCH  10  25
TORSDOF 6
ENDMDL
MODEL 5
REMARK VINA RESULT:      -7.9      4.568      6.298
REMARK  Name = 
REMARK  6 active torsions:
REMARK  status: ('A' for Active; 'I' for Inactive)
REMARK    1  A    between atoms: C_2  and  C_22
REMARK    2  A    between atoms: N_3  and  C_4
REMARK    3  A    between atoms: C_13  and  O_14
REMARK    4  A    between atoms: O_14  and  C_15
REMARK    5  A    between atoms: C_15  and  C_16
REMARK    6  A    between atoms: C_25  and  C_26
REMARK                            x       y       z     vdW  Elec       q    Type
REMARK                         _______ _______ _______ _____ _____    ______ ____
ROOT
ATOM      1  C   UNL     1       6.302   5.207  17.957  0.00  0.00    +0.000 C 
ATOM      2  C   UNL     1       6.150   4.699  16.528  0.00  0.00    +0.000 A 
ATOM      3  C   UNL     1       7.199   4.893  15.613  0.00  0.00    +0.000 A 
ATOM      4  C   UNL     1       7.029   4.599  14.263  0.00  0.00    +0.000 A 
ATOM      5  C   UNL     1       5.812   4.095  13.814  0.00  0.00    +0.000 A 
ATOM      6  C   UNL     1       4.802   3.798  14.728  0.00  0.00    +0.000 A 
ATOM      7  C   UNL     1       4.981   4.049  16.095  0.00  0.00    +0.000 A 
ATOM      8  C   UNL     1       3.906   3.631  17.066  0.00  0.00    +0.000 C 
ATOM      9  C   UNL     1       4.390   3.681  18.514  0.00  0.00    +0.000 C 
ATOM     10  C   UNL     1       4.998   5.060  18.808  0.00  0.00    +0.000 C 
ENDROOT
BRANCH   1  13
ATOM     11  O   UNL     1       8.544   6.240  19.326  0.00  0.00    +0.000 OA
ATOM     12  C   UNL     1       7.888   6.993  18.614  0.00  0.00    +0.000 C 
ATOM     13  N   UNL     1       6.779   6.590  17.915  0.00  0.00    +0.000 N 
ATOM     14  H   UNL     1       6.114   7.284  17.594  0.00  0.00    +0.000 HD
BRANCH  12  15
ATOM     15  C   UNL     1       8.289   8.417  18.466  0.00  0.00    +0.000 A 
ATOM     16  C   UNL     1       9.138   9.063  19.378  0.00  0.00    +0.000 A 
ATOM     17  C   UNL     1       9.378  10.445  19.263  0.00  0.00    +0.000 A 
ATOM     18  C   UNL     1       8.774  11.190  18.235  0.00  0.00    +0.000 A 
ATOM     19  C   UNL     1       7.952  10.528  17.312  0.00  0.00    +0.000 A 
ATOM     20  C   UNL     1       7.710   9.156  17.431  0.00  0.00    +0.000 A 
BRANCH  18  21
ATOM     21  C   UNL     1       8.961  12.687  18.121  0.00  0.00    +0.000 C 
ATOM     22  F   UNL     1       9.029  13.325  19.323  0.00  0.00    +0.000 F 
ATOM     23  F   UNL     1      10.099  13.023  17.453  0.00  0.00    +0.000 F 
ATOM     24  F   UNL     1       7.942  13.284  17.441  0.00  0.00    +0.000 F 
ENDBRANCH  18  21
ENDBRANCH  12  15
ENDBRANCH   1  13
BRANCH  10  25
ATOM     25  O   UNL     1       4.062   6.114  18.487  0.00  0.00    +0.000 OA
BRANCH  25  26
ATOM     26  C   UNL     1       2.978   6.217  19.412  0.00  0.00    +0.000 C 
BRANCH  26  27
ATOM     27  C   UNL     1       2.300   7.552  19.245  0.00  0.00    +0.000 A 
ATOM     28  C   UNL     1       2.340   8.219  18.012  0.00  0.00    +0.000 A 
ATOM     29  C   UNL     1       1.695   9.446  17.847  0.00  0.00    +0.000 A 
ATOM     30  C   UNL     1       1.000  10.014  18.911  0.00  0.00    +0.000 A 
ATOM     31  C   UNL     1       0.940   9.353  20.138  0.00  0.00    +0.000 A 
ATOM     32  C   UNL     1       1.583   8.126  20.304  0.00  0.00    +0.000 A 
ENDBRANCH  26  27
ENDBRANCH  25  26
ENDBRANCH  10  25
TORSDOF 6
ENDMDL
MODEL 6
REMARK VINA RESULT:      -7.9      4.567      6.319
REMARK  Name = 
REMARK  6 active torsions:
REMARK  status: ('A' for Active; 'I' for Inactive)
REMARK    1  A    between atoms: C_2  and  C_22
REMARK    2  A    between atoms: N_3  and  C_4
REMARK    3  A    between atoms: C_13  and  O_14
REMARK    4  A    between atoms: O_14  and  C_15
REMARK    5  A    between atoms: C_15  and  C_16
REMARK    6  A    between atoms: C_25  and  C_26
REMARK                            x       y       z     vdW  Elec       q    Type
REMARK                         _______ _______ _______ _____ _____    ______ ____
ROOT
ATOM      1  C   UNL     1       6.312   5.216  17.957  0.00  0.00    +0.000 C 
ATOM      2  C   UNL     1       6.171   4.703  16.529  0.00  0.00    +0.000 A 
ATOM      3  C   UNL     1       7.225   4.899  15.619  0.00  0.00    +0.000 A 
ATOM      4  C   UNL     1       7.063   4.601  14.269  0.00  0.00    +0.000 A 
ATOM      5  C   UNL     1       5.852   4.090  13.815  0.00  0.00    +0.000 A 
ATOM      6  C   UNL     1       4.838   3.790  14.724  0.00  0.00    +0.000 A 
ATOM      7  C   UNL     1       5.008   4.046  16.091  0.00  0.00    +0.000 A 
ATOM      8  C   UNL     1       3.929   3.625  17.058  0.00  0.00    +0.000 C 
ATOM      9  C   UNL     1       4.405   3.682  18.507  0.00  0.00    +0.000 C 
ATOM     10  C   UNL     1       5.004   5.065  18.801  0.00  0.00    +0.000 C 
ENDROOT
BRANCH   1  13
ATOM     11  O   UNL     1       8.584   6.247  19.277  0.00  0.00    +0.000 OA
ATOM     12  C   UNL     1       7.907   7.003  18.588  0.00  0.00    +0.000 C 
ATOM     13  N   UNL     1       6.782   6.601  17.914  0.00  0.00    +0.000 N 
ATOM     14  H   UNL     1       6.107   7.294  17.615  0.00  0.00    +0.000 HD
BRANCH  12  15
ATOM     15  C   UNL     1       8.299   8.430  18.441  0.00  0.00    +0.000 A 
ATOM     16  C   UNL     1       9.131   9.085  19.361  0.00  0.00    +0.000 A 
ATOM     17  C   UNL     1       9.362  10.469  19.245  0.00  0.00    +0.000 A 
ATOM     18  C   UNL     1       8.765  11.207  18.208  0.00  0.00    +0.000 A 
ATOM     19  C   UNL     1       7.960  10.535  17.276  0.00  0.00    +0.000 A 
ATOM     20  C   UNL     1       7.727   9.162  17.397  0.00  0.00    +0.000 A 
BRANCH  18  21
ATOM     21  C   UNL     1       8.942  12.704  18.092  0.00  0.00    +0.000 C 
ATOM     22  F   UNL     1       9.953  13.074  17.258  0.00  0.00    +0.000 F 
ATOM     23  F   UNL     1       7.825  13.330  17.629  0.00  0.00    +0.000 F 
ATOM     24  F   UNL     1       9.221  13.285  19.293  0.00  0.00    +0.000 F 
ENDBRANCH  18  21
ENDBRANCH  12  15
ENDBRANCH   1  13
BRANCH  10  25
ATOM     25  O   UNL     1       4.065   6.113  18.472  0.00  0.00    +0.000 OA
BRANCH  25  26
ATOM     26  C   UNL     1       3.008   6.254  19.423  0.00  0.00    +0.000 C 
BRANCH  26  27
ATOM     27  C   UNL     1       2.298   7.562  19.197  0.00  0.00    +0.000 A 
ATOM     28  C   UNL     1       1.603   8.184  20.245  0.00  0.00    +0.000 A 
ATOM     29  C   UNL     1       0.962   9.407  20.045  0.00  0.00    +0.000 A 
ATOM     30  C   UNL     1       1.013  10.023  18.796  0.00  0.00    +0.000 A 
ATOM     31  C   UNL     1       1.713   9.423  17.751  0.00  0.00    +0.000 A 
ATOM     32  C   UNL     1       2.357   8.200  17.950  0.00  0.00    +0.000 A 
ENDBRANCH  26  27
ENDBRANCH  25  26
ENDBRANCH  10  25
TORSDOF 6
ENDMDL
MODEL 7
REMARK VINA RESULT:      -7.8      3.884      6.115
REMARK  Name = 
REMARK  6 active torsions:
REMARK  status: ('A' for Active; 'I' for Inactive)
REMARK    1  A    between atoms: C_2  and  C_22
REMARK    2  A    between atoms: N_3  and  C_4
REMARK    3  A    between atoms: C_13  and  O_14
REMARK    4  A    between atoms: O_14  and  C_15
REMARK    5  A    between atoms: C_15  and  C_16
REMARK    6  A    between atoms: C_25  and  C_26
REMARK                            x       y       z     vdW  Elec       q    Type
REMARK                         _______ _______ _______ _____ _____    ______ ____
ROOT
ATOM      1  C   UNL     1       1.111   9.834  19.471  0.00  0.00    +0.000 C 
ATOM      2  C   UNL     1       0.527  10.071  20.859  0.00  0.00    +0.000 A 
ATOM      3  C   UNL     1       1.152   9.491  21.977  0.00  0.00    +0.000 A 
ATOM      4  C   UNL     1       0.552   9.542  23.231  0.00  0.00    +0.000 A 
ATOM      5  C   UNL     1      -0.672  10.186  23.387  0.00  0.00    +0.000 A 
ATOM      6  C   UNL     1      -1.247  10.857  22.308  0.00  0.00    +0.000 A 
ATOM      7  C   UNL     1      -0.628  10.848  21.051  0.00  0.00    +0.000 A 
ATOM      8  C   UNL     1      -1.228  11.660  19.931  0.00  0.00    +0.000 C 
ATOM      9  C   UNL     1      -0.273  11.798  18.748  0.00  0.00    +0.000 C 
ATOM     10  C   UNL     1       0.222  10.408  18.319  0.00  0.00    +0.000 C 
ENDROOT
BRANCH   1  13
ATOM     11  O   UNL     1       3.051   8.667  17.785  0.00  0.00    +0.000 OA
ATOM     12  C   UNL     1       2.340   7.933  18.465  0.00  0.00    +0.000 C 
ATOM     13  N   UNL     1       1.365   8.402  19.307  0.00  0.00    +0.000 N 
ATOM     14  H   UNL     1       0.626   7.778  19.608  0.00  0.00    +0.000 HD
BRANCH  12  15
ATOM     15  C   UNL     1       2.522   6.459  18.408  0.00  0.00    +0.000 A 
ATOM     16  C   UNL     1       1.591   5.604  17.799  0.00  0.00    +0.000 A 
ATOM     17  C   UNL     1       1.747   4.208  17.890  0.00  0.00    +0.000 A 
ATOM     18  C   UNL     1       2.836   3.657  18.589  0.00  0.00    +0.000 A 
ATOM     19  C   UNL     1       3.776   4.522  19.168  0.00  0.00    +0.000 A 
ATOM     20  C   UNL     1       3.616   5.908  19.081  0.00  0.00    +0.000 A 
BRANCH  18  21
ATOM     21  C   UNL     1       2.999   2.163  18.759  0.00  0.00    +0.000 C 
ATOM     22  F   UNL     1       1.868   1.532  19.181  0.00  0.00    +0.000 F 
ATOM     23  F   UNL     1       3.367   1.542  17.605  0.00  0.00    +0.000 F 
ATOM     24  F   UNL     1       3.961   1.849  19.672  0.00  0.00    +0.000 F 
ENDBRANCH  18  21
ENDBRANCH  12  15
ENDBRANCH   1  13
BRANCH  10  25
ATOM     25  O   UNL     1      -0.890   9.526  18.049  0.00  0.00    +0.000 OA
BRANCH  25  26
ATOM     26  C   UNL     1      -1.549   9.799  16.811  0.00  0.00    +0.000 C 
BRANCH  26  27
ATOM     27  C   UNL     1      -2.935  10.321  17.083  0.00  0.00    +0.000 A 
ATOM     28  C   UNL     1      -3.453  11.386  16.330  0.00  0.00    +0.000 A 
ATOM     29  C   UNL     1      -4.745  11.858  16.565  0.00  0.00    +0.000 A 
ATOM     30  C   UNL     1      -5.532  11.269  17.551  0.00  0.00    +0.000 A 
ATOM     31  C   UNL     1      -5.035  10.201  18.295  0.00  0.00    +0.000 A 
ATOM     32  C   UNL     1      -3.743   9.725  18.060  0.00  0.00    +0.000 A 
ENDBRANCH  26  27
ENDBRANCH  25  26
ENDBRANCH  10  25
TORSDOF 6
ENDMDL
MODEL 8
REMARK VINA RESULT:      -7.8      6.196      9.914
REMARK  Name = 
REMARK  6 active torsions:
REMARK  status: ('A' for Active; 'I' for Inactive)
REMARK    1  A    between atoms: C_2  and  C_22
REMARK    2  A    between atoms: N_3  and  C_4
REMARK    3  A    between atoms: C_13  and  O_14
REMARK    4  A    between atoms: O_14  and  C_15
REMARK    5  A    between atoms: C_15  and  C_16
REMARK    6  A    between atoms: C_25  and  C_26
REMARK                            x       y       z     vdW  Elec       q    Type
REMARK                         _______ _______ _______ _____ _____    ______ ____
ROOT
ATOM      1  C   UNL     1      -4.089  13.470  20.747  0.00  0.00    +0.000 C 
ATOM      2  C   UNL     1      -4.562  13.197  22.170  0.00  0.00    +0.000 A 
ATOM      3  C   UNL     1      -3.612  12.914  23.168  0.00  0.00    +0.000 A 
ATOM      4  C   UNL     1      -4.015  12.491  24.432  0.00  0.00    +0.000 A 
ATOM      5  C   UNL     1      -5.370  12.360  24.718  0.00  0.00    +0.000 A 
ATOM      6  C   UNL     1      -6.321  12.741  23.771  0.00  0.00    +0.000 A 
ATOM      7  C   UNL     1      -5.925  13.210  22.511  0.00  0.00    +0.000 A 
ATOM      8  C   UNL     1      -6.975  13.700  21.547  0.00  0.00    +0.000 C 
ATOM      9  C   UNL     1      -6.363  14.462  20.373  0.00  0.00    +0.000 C 
ATOM     10  C   UNL     1      -5.262  13.612  19.722  0.00  0.00    +0.000 C 
ENDROOT
BRANCH   1  13
ATOM     11  O   UNL     1      -1.348  13.832  20.181  0.00  0.00    +0.000 OA
ATOM     12  C   UNL     1      -1.822  12.703  20.110  0.00  0.00    +0.000 C 
ATOM     13  N   UNL     1      -3.142  12.426  20.358  0.00  0.00    +0.000 N 
ATOM     14  H   UNL     1      -3.544  11.565  20.006  0.00  0.00    +0.000 HD
BRANCH  12  15
ATOM     15  C   UNL     1      -0.953  11.551  19.752  0.00  0.00    +0.000 A 
ATOM     16  C   UNL     1      -0.562  10.578  20.685  0.00  0.00    +0.000 A 
ATOM     17  C   UNL     1       0.367   9.584  20.323  0.00  0.00    +0.000 A 
ATOM     18  C   UNL     1       0.909   9.554  19.026  0.00  0.00    +0.000 A 
ATOM     19  C   UNL     1       0.488  10.513  18.094  0.00  0.00    +0.000 A 
ATOM     20  C   UNL     1      -0.431  11.502  18.457  0.00  0.00    +0.000 A 
BRANCH  18  21
ATOM     21  C   UNL     1       1.955   8.539  18.625  0.00  0.00    +0.000 C 
ATOM     22  F   UNL     1       1.525   7.647  17.690  0.00  0.00    +0.000 F 
ATOM     23  F   UNL     1       3.074   9.116  18.105  0.00  0.00    +0.000 F 
ATOM     24  F   UNL     1       2.381   7.791  19.682  0.00  0.00    +0.000 F 
ENDBRANCH  18  21
ENDBRANCH  12  15
ENDBRANCH   1  13
BRANCH  10  25
ATOM     25  O   UNL     1      -5.769  12.311  19.350  0.00  0.00    +0.000 OA
BRANCH  25  26
ATOM     26  C   UNL     1      -5.964  12.154  17.943  0.00  0.00    +0.000 C 
BRANCH  26  27
ATOM     27  C   UNL     1      -4.842  11.332  17.368  0.00  0.00    +0.000 A 
ATOM     28  C   UNL     1      -4.294  11.653  16.116  0.00  0.00    +0.000 A 
ATOM     29  C   UNL     1      -3.240  10.906  15.590  0.00  0.00    +0.000 A 
ATOM     30  C   UNL     1      -2.719   9.834  16.310  0.00  0.00    +0.000 A 
ATOM     31  C   UNL     1      -3.244   9.514  17.562  0.00  0.00    +0.000 A 
ATOM     32  C   UNL     1      -4.298  10.261  18.091  0.00  0.00    +0.000 A 
ENDBRANCH  26  27
ENDBRANCH  25  26
ENDBRANCH  10  25
TORSDOF 6
ENDMDL
MODEL 9
REMARK VINA RESULT:      -7.8      4.598      7.142
REMARK  Name = 
REMARK  6 active torsions:
REMARK  status: ('A' for Active; 'I' for Inactive)
REMARK    1  A    between atoms: C_2  and  C_22
REMARK    2  A    between atoms: N_3  and  C_4
REMARK    3  A    between atoms: C_13  and  O_14
REMARK    4  A    between atoms: O_14  and  C_15
REMARK    5  A    between atoms: C_15  and  C_16
REMARK    6  A    between atoms: C_25  and  C_26
REMARK                            x       y       z     vdW  Elec       q    Type
REMARK                         _______ _______ _______ _____ _____    ______ ____
ROOT
ATOM      1  C   UNL     1       6.495   5.190  17.658  0.00  0.00    +0.000 C 
ATOM      2  C   UNL     1       6.410   4.730  16.207  0.00  0.00    +0.000 A 
ATOM      3  C   UNL     1       7.454   5.048  15.321  0.00  0.00    +0.000 A 
ATOM      4  C   UNL     1       7.331   4.798  13.958  0.00  0.00    +0.000 A 
ATOM      5  C   UNL     1       6.169   4.213  13.465  0.00  0.00    +0.000 A 
ATOM      6  C   UNL     1       5.173   3.795  14.347  0.00  0.00    +0.000 A 
ATOM      7  C   UNL     1       5.307   4.003  15.726  0.00  0.00    +0.000 A 
ATOM      8  C   UNL     1       4.255   3.457  16.658  0.00  0.00    +0.000 C 
ATOM      9  C   UNL     1       4.710   3.487  18.115  0.00  0.00    +0.000 C 
ATOM     10  C   UNL     1       5.194   4.900  18.476  0.00  0.00    +0.000 C 
ENDROOT
BRANCH   1  13
ATOM     11  O   UNL     1       8.495   6.378  19.257  0.00  0.00    +0.000 OA
ATOM     12  C   UNL     1       7.850   7.088  18.492  0.00  0.00    +0.000 C 
ATOM     13  N   UNL     1       6.854   6.608  17.681  0.00  0.00    +0.000 N 
ATOM     14  H   UNL     1       6.168   7.250  17.302  0.00  0.00    +0.000 HD
BRANCH  12  15
ATOM     15  C   UNL     1       8.142   8.543  18.402  0.00  0.00    +0.000 A 
ATOM     16  C   UNL     1       7.567   9.372  17.427  0.00  0.00    +0.000 A 
ATOM     17  C   UNL     1       7.979  10.712  17.306  0.00  0.00    +0.000 A 
ATOM     18  C   UNL     1       8.967  11.234  18.160  0.00  0.00    +0.000 A 
ATOM     19  C   UNL     1       9.512  10.404  19.151  0.00  0.00    +0.000 A 
ATOM     20  C   UNL     1       9.106   9.072  19.265  0.00  0.00    +0.000 A 
BRANCH  18  21
ATOM     21  C   UNL     1       9.477  12.650  18.016  0.00  0.00    +0.000 C 
ATOM     22  F   UNL     1       8.519  13.543  17.639  0.00  0.00    +0.000 F 
ATOM     23  F   UNL     1      10.008  13.136  19.171  0.00  0.00    +0.000 F 
ATOM     24  F   UNL     1      10.465  12.751  17.082  0.00  0.00    +0.000 F 
ENDBRANCH  18  21
ENDBRANCH  12  15
ENDBRANCH   1  13
BRANCH  10  25
ATOM     25  O   UNL     1       4.179   5.884  18.179  0.00  0.00    +0.000 OA
BRANCH  25  26
ATOM     26  C   UNL     1       3.388   6.250  19.312  0.00  0.00    +0.000 C 
BRANCH  26  27
ATOM     27  C   UNL     1       2.527   5.085  19.722  0.00  0.00    +0.000 A 
ATOM     28  C   UNL     1       1.625   4.513  18.812  0.00  0.00    +0.000 A 
ATOM     29  C   UNL     1       0.840   3.420  19.182  0.00  0.00    +0.000 A 
ATOM     30  C   UNL     1       0.953   2.884  20.462  0.00  0.00    +0.000 A 
ATOM     31  C   UNL     1       1.858   3.433  21.370  0.00  0.00    +0.000 A 
ATOM     32  C   UNL     1       2.644   4.526  21.002  0.00  0.00    +0.000 A 
ENDBRANCH  26  27
ENDBRANCH  25  26
ENDBRANCH  10  25
TORSDOF 6
ENDMDL
