MODEL 1
REMARK VINA RESULT:      -7.1      0.000      0.000
REMARK  Name = 
REMARK  8 active torsions:
REMARK  status: ('A' for Active; 'I' for Inactive)
REMARK    1  A    between atoms: C_1  and  C_2
REMARK    2  A    between atoms: C_4  and  C_5
REMARK    3  A    between atoms: C_5  and  O_6
REMARK    4  A    between atoms: O_6  and  C_7
REMARK    5  A    between atoms: C_9  and  C_10
REMARK    6  A    between atoms: C_16  and  N_17
REMARK    7  A    between atoms: N_20  and  C_21
REMARK    8  A    between atoms: C_24  and  C_25
REMARK                            x       y       z     vdW  Elec       q    Type
REMARK                         _______ _______ _______ _____ _____    ______ ____
ROOT
ATOM      1  C   UNL     1       2.136   8.992  18.048  0.00  0.00    +0.000 A 
ATOM      2  C   UNL     1       2.895   7.977  17.513  0.00  0.00    +0.000 A 
ATOM      3  C   UNL     1       3.045   7.015  18.546  0.00  0.00    +0.000 A 
ATOM      4  N   UNL     1       2.419   7.422  19.665  0.00  0.00    +0.000 NA
ATOM      5  N   UNL     1       1.789   8.571  19.323  0.00  0.00    +0.000 N 
ENDROOT
BRANCH   3   6
ATOM      6  C   UNL     1       3.742   5.722  18.402  0.00  0.00    +0.000 C 
ATOM      7  O   UNL     1       4.939   5.659  18.693  0.00  0.00    +0.000 OA
ATOM      8  N   UNL     1       3.037   4.592  17.974  0.00  0.00    +0.000 N 
ATOM      9  C   UNL     1       1.590   4.500  17.780  0.00  0.00    +0.000 C 
ATOM     10  C   UNL     1       0.983   3.411  18.658  0.00  0.00    +0.000 C 
ATOM     11  C   UNL     1       1.699   2.074  18.495  0.00  0.00    +0.000 C 
ATOM     12  C   UNL     1       3.214   2.230  18.700  0.00  0.00    +0.000 C 
ATOM     13  C   UNL     1       3.764   3.336  17.775  0.00  0.00    +0.000 C 
BRANCH  12  14
ATOM     14  N   UNL     1       3.875   0.941  18.476  0.00  0.00    +0.000 NA
ATOM     15  H   UNL     1       4.111   0.835  17.490  0.00  0.00    +0.000 HD
ATOM     16  H   UNL     1       3.223   0.186  18.689  0.00  0.00    +0.000 HD
ENDBRANCH  12  14
ENDBRANCH   3   6
BRANCH   5  17
ATOM     17  C   UNL     1       0.906   9.199  20.240  0.00  0.00    +0.000 A 
ATOM     18  C   UNL     1      -0.251   9.837  19.766  0.00  0.00    +0.000 A 
ATOM     19  C   UNL     1      -1.111  10.475  20.665  0.00  0.00    +0.000 A 
ATOM     20  C   UNL     1      -0.797  10.523  22.028  0.00  0.00    +0.000 A 
ATOM     21  C   UNL     1       0.361   9.893  22.497  0.00  0.00    +0.000 A 
ATOM     22  C   UNL     1       1.204   9.219  21.609  0.00  0.00    +0.000 A 
BRANCH  20  23
ATOM     23  C   UNL     1      -1.647  11.226  22.942  0.00  0.00    +0.000 C 
ATOM     24  N   UNL     1      -2.342  11.799  23.672  0.00  0.00    +0.000 NA
ENDBRANCH  20  23
ENDBRANCH   5  17
BRANCH   1  25
ATOM     25  O   UNL     1       1.742  10.178  17.584  0.00  0.00    +0.000 OA
BRANCH  25  26
ATOM     26  C   UNL     1       2.630  11.274  17.798  0.00  0.00    +0.000 C 
BRANCH  26  30
ATOM     27  C   UNL     1       0.672  14.170  21.516  0.00  0.00    +0.000 C 
ATOM     28  C   UNL     1       1.007  13.469  20.258  0.00  0.00    +0.000 A 
ATOM     29  C   UNL     1       2.099  12.618  19.998  0.00  0.00    +0.000 A 
ATOM     30  C   UNL     1       1.906  12.202  18.703  0.00  0.00    +0.000 A 
ATOM     31  O   UNL     1       0.791  12.790  18.206  0.00  0.00    +0.000 OA
ATOM     32  N   UNL     1       0.222  13.592  19.181  0.00  0.00    +0.000 NA
ENDBRANCH  26  30
ENDBRANCH  25  26
ENDBRANCH   1  25
TORSDOF 7
ENDMDL
MODEL 2
REMARK VINA RESULT:      -7.1      2.401      8.710
REMARK  Name = 
REMARK  8 active torsions:
REMARK  status: ('A' for Active; 'I' for Inactive)
REMARK    1  A    between atoms: C_1  and  C_2
REMARK    2  A    between atoms: C_4  and  C_5
REMARK    3  A    between atoms: C_5  and  O_6
REMARK    4  A    between atoms: O_6  and  C_7
REMARK    5  A    between atoms: C_9  and  C_10
REMARK    6  A    between atoms: C_16  and  N_17
REMARK    7  A    between atoms: N_20  and  C_21
REMARK    8  A    between atoms: C_24  and  C_25
REMARK                            x       y       z     vdW  Elec       q    Type
REMARK                         _______ _______ _______ _____ _____    ______ ____
ROOT
ATOM      1  C   UNL     1       1.513   6.396  20.733  0.00  0.00    +0.000 A 
ATOM      2  C   UNL     1       0.684   7.371  21.235  0.00  0.00    +0.000 A 
ATOM      3  C   UNL     1       1.174   8.601  20.726  0.00  0.00    +0.000 A 
ATOM      4  N   UNL     1       2.259   8.396  19.958  0.00  0.00    +0.000 NA
ATOM      5  N   UNL     1       2.396   7.051  19.887  0.00  0.00    +0.000 N 
ENDROOT
BRANCH   3   6
ATOM      6  C   UNL     1       0.553   9.921  20.959  0.00  0.00    +0.000 C 
ATOM      7  O   UNL     1       1.023  10.650  21.835  0.00  0.00    +0.000 OA
ATOM      8  N   UNL     1      -0.528  10.333  20.171  0.00  0.00    +0.000 N 
ATOM      9  C   UNL     1      -1.049   9.641  18.992  0.00  0.00    +0.000 C 
ATOM     10  C   UNL     1      -0.995  10.536  17.758  0.00  0.00    +0.000 C 
ATOM     11  C   UNL     1      -1.650  11.891  18.001  0.00  0.00    +0.000 C 
ATOM     12  C   UNL     1      -1.073  12.568  19.254  0.00  0.00    +0.000 C 
ATOM     13  C   UNL     1      -1.170  11.616  20.464  0.00  0.00    +0.000 C 
BRANCH  12  14
ATOM     14  N   UNL     1      -1.766  13.837  19.491  0.00  0.00    +0.000 NA
ATOM     15  H   UNL     1      -2.001  13.930  20.479  0.00  0.00    +0.000 HD
ATOM     16  H   UNL     1      -2.656  13.834  18.992  0.00  0.00    +0.000 HD
ENDBRANCH  12  14
ENDBRANCH   3   6
BRANCH   5  17
ATOM     17  C   UNL     1       3.369   6.478  19.027  0.00  0.00    +0.000 A 
ATOM     18  C   UNL     1       4.331   5.602  19.551  0.00  0.00    +0.000 A 
ATOM     19  C   UNL     1       5.304   5.053  18.709  0.00  0.00    +0.000 A 
ATOM     20  C   UNL     1       5.351   5.413  17.357  0.00  0.00    +0.000 A 
ATOM     21  C   UNL     1       4.395   6.293  16.839  0.00  0.00    +0.000 A 
ATOM     22  C   UNL     1       3.396   6.813  17.667  0.00  0.00    +0.000 A 
BRANCH  20  23
ATOM     23  C   UNL     1       6.382   4.898  16.507  0.00  0.00    +0.000 C 
ATOM     24  N   UNL     1       7.219   4.492  15.814  0.00  0.00    +0.000 NA
ENDBRANCH  20  23
ENDBRANCH   5  17
BRANCH   1  25
ATOM     25  O   UNL     1       1.592   5.078  20.924  0.00  0.00    +0.000 OA
BRANCH  25  26
ATOM     26  C   UNL     1       0.685   4.270  20.175  0.00  0.00    +0.000 C 
BRANCH  26  30
ATOM     27  C   UNL     1       4.007   1.166  17.857  0.00  0.00    +0.000 C 
ATOM     28  C   UNL     1       2.942   2.123  18.225  0.00  0.00    +0.000 A 
ATOM     29  C   UNL     1       2.497   2.478  19.514  0.00  0.00    +0.000 A 
ATOM     30  C   UNL     1       1.535   3.433  19.290  0.00  0.00    +0.000 A 
ATOM     31  O   UNL     1       1.388   3.617  17.955  0.00  0.00    +0.000 OA
ATOM     32  N   UNL     1       2.270   2.791  17.279  0.00  0.00    +0.000 NA
ENDBRANCH  26  30
ENDBRANCH  25  26
ENDBRANCH   1  25
TORSDOF 7
ENDMDL
MODEL 3
REMARK VINA RESULT:      -7.0      2.140      8.859
REMARK  Name = 
REMARK  8 active torsions:
REMARK  status: ('A' for Active; 'I' for Inactive)
REMARK    1  A    between atoms: C_1  and  C_2
REMARK    2  A    between atoms: C_4  and  C_5
REMARK    3  A    between atoms: C_5  and  O_6
REMARK    4  A    between atoms: O_6  and  C_7
REMARK    5  A    between atoms: C_9  and  C_10
REMARK    6  A    between atoms: C_16  and  N_17
REMARK    7  A    between atoms: N_20  and  C_21
REMARK    8  A    between atoms: C_24  and  C_25
REMARK                            x       y       z     vdW  Elec       q    Type
REMARK                         _______ _______ _______ _____ _____    ______ ____
ROOT
ATOM      1  C   UNL     1       1.624   6.638  20.434  0.00  0.00    +0.000 A 
ATOM      2  C   UNL     1       0.682   7.608  20.685  0.00  0.00    +0.000 A 
ATOM      3  C   UNL     1       1.060   8.732  19.907  0.00  0.00    +0.000 A 
ATOM      4  N   UNL     1       2.187   8.473  19.219  0.00  0.00    +0.000 NA
ATOM      5  N   UNL     1       2.464   7.171  19.467  0.00  0.00    +0.000 N 
ENDROOT
BRANCH   3   6
ATOM      6  C   UNL     1       0.299   9.994  19.818  0.00  0.00    +0.000 C 
ATOM      7  O   UNL     1      -0.130  10.350  18.718  0.00  0.00    +0.000 OA
ATOM      8  N   UNL     1       0.050  10.743  20.974  0.00  0.00    +0.000 N 
ATOM      9  C   UNL     1       0.344  10.334  22.347  0.00  0.00    +0.000 C 
ATOM     10  C   UNL     1      -0.921  10.312  23.199  0.00  0.00    +0.000 C 
ATOM     11  C   UNL     1      -1.696  11.623  23.113  0.00  0.00    +0.000 C 
ATOM     12  C   UNL     1      -1.968  12.009  21.651  0.00  0.00    +0.000 C 
ATOM     13  C   UNL     1      -0.649  12.025  20.851  0.00  0.00    +0.000 C 
BRANCH  12  14
ATOM     14  N   UNL     1      -2.659  13.301  21.605  0.00  0.00    +0.000 NA
ATOM     15  H   UNL     1      -1.997  14.045  21.386  0.00  0.00    +0.000 HD
ATOM     16  H   UNL     1      -3.028  13.520  22.530  0.00  0.00    +0.000 HD
ENDBRANCH  12  14
ENDBRANCH   3   6
BRANCH   5  17
ATOM     17  C   UNL     1       3.521   6.523  18.774  0.00  0.00    +0.000 A 
ATOM     18  C   UNL     1       4.412   5.700  19.478  0.00  0.00    +0.000 A 
ATOM     19  C   UNL     1       5.466   5.078  18.802  0.00  0.00    +0.000 A 
ATOM     20  C   UNL     1       5.664   5.313  17.437  0.00  0.00    +0.000 A 
ATOM     21  C   UNL     1       4.779   6.141  16.739  0.00  0.00    +0.000 A 
ATOM     22  C   UNL     1       3.700   6.734  17.401  0.00  0.00    +0.000 A 
BRANCH  20  23
ATOM     23  C   UNL     1       6.778   4.723  16.755  0.00  0.00    +0.000 C 
ATOM     24  N   UNL     1       7.683   4.242  16.214  0.00  0.00    +0.000 NA
ENDBRANCH  20  23
ENDBRANCH   5  17
BRANCH   1  25
ATOM     25  O   UNL     1       1.832   5.418  20.929  0.00  0.00    +0.000 OA
BRANCH  25  26
ATOM     26  C   UNL     1       0.904   4.405  20.541  0.00  0.00    +0.000 C 
BRANCH  26  30
ATOM     27  C   UNL     1       3.943   1.161  18.034  0.00  0.00    +0.000 C 
ATOM     28  C   UNL     1       2.926   2.143  18.468  0.00  0.00    +0.000 A 
ATOM     29  C   UNL     1       2.630   2.571  19.778  0.00  0.00    +0.000 A 
ATOM     30  C   UNL     1       1.648   3.517  19.613  0.00  0.00    +0.000 A 
ATOM     31  O   UNL     1       1.350   3.628  18.295  0.00  0.00    +0.000 OA
ATOM     32  N   UNL     1       2.150   2.761  17.570  0.00  0.00    +0.000 NA
ENDBRANCH  26  30
ENDBRANCH  25  26
ENDBRANCH   1  25
TORSDOF 7
ENDMDL
MODEL 4
REMARK VINA RESULT:      -6.9      2.153      3.808
REMARK  Name = 
REMARK  8 active torsions:
REMARK  status: ('A' for Active; 'I' for Inactive)
REMARK    1  A    between atoms: C_1  and  C_2
REMARK    2  A    between atoms: C_4  and  C_5
REMARK    3  A    between atoms: C_5  and  O_6
REMARK    4  A    between atoms: O_6  and  C_7
REMARK    5  A    between atoms: C_9  and  C_10
REMARK    6  A    between atoms: C_16  and  N_17
REMARK    7  A    between atoms: N_20  and  C_21
REMARK    8  A    between atoms: C_24  and  C_25
REMARK                            x       y       z     vdW  Elec       q    Type
REMARK                         _______ _______ _______ _____ _____    ______ ____
ROOT
ATOM      1  C   UNL     1       1.240   9.253  21.240  0.00  0.00    +0.000 A 
ATOM      2  C   UNL     1       1.782   8.008  21.025  0.00  0.00    +0.000 A 
ATOM      3  C   UNL     1       1.924   7.881  19.619  0.00  0.00    +0.000 A 
ATOM      4  N   UNL     1       1.482   8.989  18.997  0.00  0.00    +0.000 NA
ATOM      5  N   UNL     1       1.162   9.851  19.991  0.00  0.00    +0.000 N 
ENDROOT
BRANCH   3   6
ATOM      6  C   UNL     1       2.525   6.721  18.931  0.00  0.00    +0.000 C 
ATOM      7  O   UNL     1       3.345   6.924  18.033  0.00  0.00    +0.000 OA
ATOM      8  N   UNL     1       2.182   5.422  19.324  0.00  0.00    +0.000 N 
ATOM      9  C   UNL     1       1.372   5.057  20.485  0.00  0.00    +0.000 C 
ATOM     10  C   UNL     1       2.148   4.153  21.437  0.00  0.00    +0.000 C 
ATOM     11  C   UNL     1       2.754   2.949  20.723  0.00  0.00    +0.000 C 
ATOM     12  C   UNL     1       3.585   3.388  19.508  0.00  0.00    +0.000 C 
ATOM     13  C   UNL     1       2.740   4.287  18.582  0.00  0.00    +0.000 C 
BRANCH  12  14
ATOM     14  N   UNL     1       4.101   2.207  18.812  0.00  0.00    +0.000 NA
ATOM     15  H   UNL     1       4.789   2.484  18.112  0.00  0.00    +0.000 HD
ATOM     16  H   UNL     1       3.342   1.761  18.296  0.00  0.00    +0.000 HD
ENDBRANCH  12  14
ENDBRANCH   3   6
BRANCH   5  17
ATOM     17  C   UNL     1       0.793  11.187  19.683  0.00  0.00    +0.000 A 
ATOM     18  C   UNL     1       1.736  12.217  19.813  0.00  0.00    +0.000 A 
ATOM     19  C   UNL     1       1.369  13.537  19.532  0.00  0.00    +0.000 A 
ATOM     20  C   UNL     1       0.051  13.840  19.170  0.00  0.00    +0.000 A 
ATOM     21  C   UNL     1      -0.890  12.811  19.048  0.00  0.00    +0.000 A 
ATOM     22  C   UNL     1      -0.518  11.486  19.289  0.00  0.00    +0.000 A 
BRANCH  20  23
ATOM     23  C   UNL     1      -0.342  15.198  18.938  0.00  0.00    +0.000 C 
ATOM     24  N   UNL     1      -0.648  16.299  18.747  0.00  0.00    +0.000 NA
ENDBRANCH  20  23
ENDBRANCH   5  17
BRANCH   1  25
ATOM     25  O   UNL     1       0.819   9.889  22.334  0.00  0.00    +0.000 OA
BRANCH  25  26
ATOM     26  C   UNL     1      -0.557   9.726  22.677  0.00  0.00    +0.000 C 
BRANCH  26  30
ATOM     27  C   UNL     1      -3.114  14.069  23.477  0.00  0.00    +0.000 C 
ATOM     28  C   UNL     1      -2.115  13.008  23.231  0.00  0.00    +0.000 A 
ATOM     29  C   UNL     1      -2.306  11.612  23.234  0.00  0.00    +0.000 A 
ATOM     30  C   UNL     1      -1.077  11.099  22.900  0.00  0.00    +0.000 A 
ATOM     31  O   UNL     1      -0.196  12.117  22.738  0.00  0.00    +0.000 OA
ATOM     32  N   UNL     1      -0.844  13.322  22.948  0.00  0.00    +0.000 NA
ENDBRANCH  26  30
ENDBRANCH  25  26
ENDBRANCH   1  25
TORSDOF 7
ENDMDL
MODEL 5
REMARK VINA RESULT:      -6.8      2.267      8.906
REMARK  Name = 
REMARK  8 active torsions:
REMARK  status: ('A' for Active; 'I' for Inactive)
REMARK    1  A    between atoms: C_1  and  C_2
REMARK    2  A    between atoms: C_4  and  C_5
REMARK    3  A    between atoms: C_5  and  O_6
REMARK    4  A    between atoms: O_6  and  C_7
REMARK    5  A    between atoms: C_9  and  C_10
REMARK    6  A    between atoms: C_16  and  N_17
REMARK    7  A    between atoms: N_20  and  C_21
REMARK    8  A    between atoms: C_24  and  C_25
REMARK                            x       y       z     vdW  Elec       q    Type
REMARK                         _______ _______ _______ _____ _____    ______ ____
ROOT
ATOM      1  C   UNL     1       2.269   6.995  19.992  0.00  0.00    +0.000 A 
ATOM      2  C   UNL     1       1.351   7.950  20.361  0.00  0.00    +0.000 A 
ATOM      3  C   UNL     1       1.323   8.894  19.301  0.00  0.00    +0.000 A 
ATOM      4  N   UNL     1       2.188   8.542  18.332  0.00  0.00    +0.000 NA
ATOM      5  N   UNL     1       2.681   7.341  18.714  0.00  0.00    +0.000 N 
ENDROOT
BRANCH   3   6
ATOM      6  C   UNL     1       0.431  10.069  19.238  0.00  0.00    +0.000 C 
ATOM      7  O   UNL     1      -0.153  10.313  18.180  0.00  0.00    +0.000 OA
ATOM      8  N   UNL     1       0.239  10.861  20.375  0.00  0.00    +0.000 N 
ATOM      9  C   UNL     1       0.726  10.569  21.723  0.00  0.00    +0.000 C 
ATOM     10  C   UNL     1      -0.426  10.479  22.719  0.00  0.00    +0.000 C 
ATOM     11  C   UNL     1      -1.336  11.703  22.658  0.00  0.00    +0.000 C 
ATOM     12  C   UNL     1      -1.809  11.969  21.221  0.00  0.00    +0.000 C 
ATOM     13  C   UNL     1      -0.597  12.060  20.271  0.00  0.00    +0.000 C 
BRANCH  12  14
ATOM     14  N   UNL     1      -2.629  13.183  21.191  0.00  0.00    +0.000 NA
ATOM     15  H   UNL     1      -3.342  13.107  20.465  0.00  0.00    +0.000 HD
ATOM     16  H   UNL     1      -2.046  13.977  20.927  0.00  0.00    +0.000 HD
ENDBRANCH  12  14
ENDBRANCH   3   6
BRANCH   5  17
ATOM     17  C   UNL     1       3.525   6.606  17.839  0.00  0.00    +0.000 A 
ATOM     18  C   UNL     1       4.633   7.234  17.252  0.00  0.00    +0.000 A 
ATOM     19  C   UNL     1       5.453   6.519  16.373  0.00  0.00    +0.000 A 
ATOM     20  C   UNL     1       5.143   5.195  16.039  0.00  0.00    +0.000 A 
ATOM     21  C   UNL     1       4.032   4.575  16.620  0.00  0.00    +0.000 A 
ATOM     22  C   UNL     1       3.232   5.271  17.530  0.00  0.00    +0.000 A 
BRANCH  20  23
ATOM     23  C   UNL     1       5.948   4.480  15.094  0.00  0.00    +0.000 C 
ATOM     24  N   UNL     1       6.604   3.912  14.326  0.00  0.00    +0.000 NA
ENDBRANCH  20  23
ENDBRANCH   5  17
BRANCH   1  25
ATOM     25  O   UNL     1       2.767   5.923  20.610  0.00  0.00    +0.000 OA
BRANCH  25  26
ATOM     26  C   UNL     1       1.831   4.920  21.003  0.00  0.00    +0.000 C 
BRANCH  26  30
ATOM     27  C   UNL     1       3.864   0.953  18.519  0.00  0.00    +0.000 C 
ATOM     28  C   UNL     1       2.996   1.991  19.115  0.00  0.00    +0.000 A 
ATOM     29  C   UNL     1       3.347   2.999  20.034  0.00  0.00    +0.000 A 
ATOM     30  C   UNL     1       2.187   3.712  20.217  0.00  0.00    +0.000 A 
ATOM     31  O   UNL     1       1.196   3.150  19.482  0.00  0.00    +0.000 OA
ATOM     32  N   UNL     1       1.700   2.063  18.789  0.00  0.00    +0.000 NA
ENDBRANCH  26  30
ENDBRANCH  25  26
ENDBRANCH   1  25
TORSDOF 7
ENDMDL
MODEL 6
REMARK VINA RESULT:      -6.8      1.777      3.369
REMARK  Name = 
REMARK  8 active torsions:
REMARK  status: ('A' for Active; 'I' for Inactive)
REMARK    1  A    between atoms: C_1  and  C_2
REMARK    2  A    between atoms: C_4  and  C_5
REMARK    3  A    between atoms: C_5  and  O_6
REMARK    4  A    between atoms: O_6  and  C_7
REMARK    5  A    between atoms: C_9  and  C_10
REMARK    6  A    between atoms: C_16  and  N_17
REMARK    7  A    between atoms: N_20  and  C_21
REMARK    8  A    between atoms: C_24  and  C_25
REMARK                            x       y       z     vdW  Elec       q    Type
REMARK                         _______ _______ _______ _____ _____    ______ ____
ROOT
ATOM      1  C   UNL     1       0.833   8.027  20.871  0.00  0.00    +0.000 A 
ATOM      2  C   UNL     1       1.506   6.829  20.833  0.00  0.00    +0.000 A 
ATOM      3  C   UNL     1       2.236   6.829  19.616  0.00  0.00    +0.000 A 
ATOM      4  N   UNL     1       2.016   7.967  18.933  0.00  0.00    +0.000 NA
ATOM      5  N   UNL     1       1.245   8.727  19.746  0.00  0.00    +0.000 N 
ENDROOT
BRANCH   3   6
ATOM      6  C   UNL     1       3.155   5.758  19.180  0.00  0.00    +0.000 C 
ATOM      7  O   UNL     1       4.365   5.905  19.365  0.00  0.00    +0.000 OA
ATOM      8  N   UNL     1       2.643   4.593  18.599  0.00  0.00    +0.000 N 
ATOM      9  C   UNL     1       1.230   4.228  18.498  0.00  0.00    +0.000 C 
ATOM     10  C   UNL     1       0.952   2.901  19.197  0.00  0.00    +0.000 C 
ATOM     11  C   UNL     1       1.895   1.796  18.732  0.00  0.00    +0.000 C 
ATOM     12  C   UNL     1       3.362   2.236  18.851  0.00  0.00    +0.000 C 
ATOM     13  C   UNL     1       3.577   3.574  18.114  0.00  0.00    +0.000 C 
BRANCH  12  14
ATOM     14  N   UNL     1       4.236   1.176  18.341  0.00  0.00    +0.000 NA
ATOM     15  H   UNL     1       5.177   1.285  18.717  0.00  0.00    +0.000 HD
ATOM     16  H   UNL     1       4.327   1.272  17.329  0.00  0.00    +0.000 HD
ENDBRANCH  12  14
ENDBRANCH   3   6
BRANCH   5  17
ATOM     17  C   UNL     1       0.941  10.068  19.392  0.00  0.00    +0.000 A 
ATOM     18  C   UNL     1       1.965  11.027  19.357  0.00  0.00    +0.000 A 
ATOM     19  C   UNL     1       1.665  12.353  19.029  0.00  0.00    +0.000 A 
ATOM     20  C   UNL     1       0.341  12.737  18.786  0.00  0.00    +0.000 A 
ATOM     21  C   UNL     1      -0.678  11.780  18.830  0.00  0.00    +0.000 A 
ATOM     22  C   UNL     1      -0.380  10.446  19.117  0.00  0.00    +0.000 A 
BRANCH  20  23
ATOM     23  C   UNL     1       0.025  14.106  18.508  0.00  0.00    +0.000 C 
ATOM     24  N   UNL     1      -0.236  15.215  18.294  0.00  0.00    +0.000 NA
ENDBRANCH  20  23
ENDBRANCH   5  17
BRANCH   1  25
ATOM     25  O   UNL     1      -0.056   8.548  21.718  0.00  0.00    +0.000 OA
BRANCH  25  26
ATOM     26  C   UNL     1       0.469   9.310  22.804  0.00  0.00    +0.000 C 
BRANCH  26  30
ATOM     27  C   UNL     1      -2.781  13.242  22.968  0.00  0.00    +0.000 C 
ATOM     28  C   UNL     1      -1.626  12.330  22.828  0.00  0.00    +0.000 A 
ATOM     29  C   UNL     1      -1.547  10.963  23.164  0.00  0.00    +0.000 A 
ATOM     30  C   UNL     1      -0.279  10.593  22.789  0.00  0.00    +0.000 A 
ATOM     31  O   UNL     1       0.374  11.671  22.290  0.00  0.00    +0.000 OA
ATOM     32  N   UNL     1      -0.470  12.769  22.316  0.00  0.00    +0.000 NA
ENDBRANCH  26  30
ENDBRANCH  25  26
ENDBRANCH   1  25
TORSDOF 7
ENDMDL
MODEL 7
REMARK VINA RESULT:      -6.7      3.378      8.595
REMARK  Name = 
REMARK  8 active torsions:
REMARK  status: ('A' for Active; 'I' for Inactive)
REMARK    1  A    between atoms: C_1  and  C_2
REMARK    2  A    between atoms: C_4  and  C_5
REMARK    3  A    between atoms: C_5  and  O_6
REMARK    4  A    between atoms: O_6  and  C_7
REMARK    5  A    between atoms: C_9  and  C_10
REMARK    6  A    between atoms: C_16  and  N_17
REMARK    7  A    between atoms: N_20  and  C_21
REMARK    8  A    between atoms: C_24  and  C_25
REMARK                            x       y       z     vdW  Elec       q    Type
REMARK                         _______ _______ _______ _____ _____    ______ ____
ROOT
ATOM      1  C   UNL     1      -0.405  11.912  20.072  0.00  0.00    +0.000 A 
ATOM      2  C   UNL     1      -0.234  13.220  20.460  0.00  0.00    +0.000 A 
ATOM      3  C   UNL     1       1.147  13.363  20.756  0.00  0.00    +0.000 A 
ATOM      4  N   UNL     1       1.793  12.198  20.570  0.00  0.00    +0.000 NA
ATOM      5  N   UNL     1       0.865  11.353  20.062  0.00  0.00    +0.000 N 
ENDROOT
BRANCH   3   6
ATOM      6  C   UNL     1       1.800  14.625  21.158  0.00  0.00    +0.000 C 
ATOM      7  O   UNL     1       1.982  14.841  22.358  0.00  0.00    +0.000 OA
ATOM      8  N   UNL     1       2.225  15.533  20.182  0.00  0.00    +0.000 N 
ATOM      9  C   UNL     1       2.232  15.306  18.737  0.00  0.00    +0.000 C 
ATOM     10  C   UNL     1       3.639  15.443  18.164  0.00  0.00    +0.000 C 
ATOM     11  C   UNL     1       4.302  16.755  18.572  0.00  0.00    +0.000 C 
ATOM     12  C   UNL     1       4.259  16.945  20.096  0.00  0.00    +0.000 C 
ATOM     13  C   UNL     1       2.809  16.808  20.607  0.00  0.00    +0.000 C 
BRANCH  12  14
ATOM     14  N   UNL     1       4.849  18.240  20.446  0.00  0.00    +0.000 NA
ATOM     15  H   UNL     1       4.128  18.869  20.801  0.00  0.00    +0.000 HD
ATOM     16  H   UNL     1       5.215  18.683  19.603  0.00  0.00    +0.000 HD
ENDBRANCH  12  14
ENDBRANCH   3   6
BRANCH   5  17
ATOM     17  C   UNL     1       1.247  10.063  19.610  0.00  0.00    +0.000 A 
ATOM     18  C   UNL     1       1.351   9.007  20.527  0.00  0.00    +0.000 A 
ATOM     19  C   UNL     1       1.749   7.740  20.088  0.00  0.00    +0.000 A 
ATOM     20  C   UNL     1       2.092   7.534  18.747  0.00  0.00    +0.000 A 
ATOM     21  C   UNL     1       1.995   8.591  17.835  0.00  0.00    +0.000 A 
ATOM     22  C   UNL     1       1.560   9.849  18.260  0.00  0.00    +0.000 A 
BRANCH  20  23
ATOM     23  C   UNL     1       2.555   6.253  18.307  0.00  0.00    +0.000 C 
ATOM     24  N   UNL     1       2.936   5.213  17.961  0.00  0.00    +0.000 NA
ENDBRANCH  20  23
ENDBRANCH   5  17
BRANCH   1  25
ATOM     25  O   UNL     1      -1.478  11.187  19.755  0.00  0.00    +0.000 OA
BRANCH  25  26
ATOM     26  C   UNL     1      -2.644  11.911  19.364  0.00  0.00    +0.000 C 
BRANCH  26  30
ATOM     27  C   UNL     1      -2.930  10.067  14.615  0.00  0.00    +0.000 C 
ATOM     28  C   UNL     1      -3.162  10.667  15.945  0.00  0.00    +0.000 A 
ATOM     29  C   UNL     1      -2.275  10.738  17.038  0.00  0.00    +0.000 A 
ATOM     30  C   UNL     1      -2.969  11.434  17.996  0.00  0.00    +0.000 A 
ATOM     31  O   UNL     1      -4.204  11.735  17.525  0.00  0.00    +0.000 OA
ATOM     32  N   UNL     1      -4.332  11.251  16.234  0.00  0.00    +0.000 NA
ENDBRANCH  26  30
ENDBRANCH  25  26
ENDBRANCH   1  25
TORSDOF 7
ENDMDL
MODEL 8
REMARK VINA RESULT:      -6.7      2.494      8.394
REMARK  Name = 
REMARK  8 active torsions:
REMARK  status: ('A' for Active; 'I' for Inactive)
REMARK    1  A    between atoms: C_1  and  C_2
REMARK    2  A    between atoms: C_4  and  C_5
REMARK    3  A    between atoms: C_5  and  O_6
REMARK    4  A    between atoms: O_6  and  C_7
REMARK    5  A    between atoms: C_9  and  C_10
REMARK    6  A    between atoms: C_16  and  N_17
REMARK    7  A    between atoms: N_20  and  C_21
REMARK    8  A    between atoms: C_24  and  C_25
REMARK                            x       y       z     vdW  Elec       q    Type
REMARK                         _______ _______ _______ _____ _____    ______ ____
ROOT
ATOM      1  C   UNL     1       2.930   8.196  17.682  0.00  0.00    +0.000 A 
ATOM      2  C   UNL     1       2.408   9.412  18.054  0.00  0.00    +0.000 A 
ATOM      3  C   UNL     1       1.440   9.133  19.054  0.00  0.00    +0.000 A 
ATOM      4  N   UNL     1       1.363   7.809  19.280  0.00  0.00    +0.000 NA
ATOM      5  N   UNL     1       2.337   7.260  18.517  0.00  0.00    +0.000 N 
ENDROOT
BRANCH   3   6
ATOM      6  C   UNL     1       0.664  10.152  19.789  0.00  0.00    +0.000 C 
ATOM      7  O   UNL     1       1.231  10.811  20.663  0.00  0.00    +0.000 OA
ATOM      8  N   UNL     1      -0.679  10.374  19.465  0.00  0.00    +0.000 N 
ATOM      9  C   UNL     1      -1.402   9.791  18.334  0.00  0.00    +0.000 C 
ATOM     10  C   UNL     1      -1.955  10.876  17.415  0.00  0.00    +0.000 C 
ATOM     11  C   UNL     1      -2.767  11.918  18.178  0.00  0.00    +0.000 C 
ATOM     12  C   UNL     1      -1.965  12.489  19.357  0.00  0.00    +0.000 C 
ATOM     13  C   UNL     1      -1.447  11.343  20.251  0.00  0.00    +0.000 C 
BRANCH  12  14
ATOM     14  N   UNL     1      -2.796  13.439  20.102  0.00  0.00    +0.000 NA
ATOM     15  H   UNL     1      -3.780  13.295  19.879  0.00  0.00    +0.000 HD
ATOM     16  H   UNL     1      -2.577  14.388  19.798  0.00  0.00    +0.000 HD
ENDBRANCH  12  14
ENDBRANCH   3   6
BRANCH   5  17
ATOM     17  C   UNL     1       2.632   5.875  18.625  0.00  0.00    +0.000 A 
ATOM     18  C   UNL     1       3.614   5.441  19.528  0.00  0.00    +0.000 A 
ATOM     19  C   UNL     1       3.921   4.080  19.621  0.00  0.00    +0.000 A 
ATOM     20  C   UNL     1       3.289   3.156  18.781  0.00  0.00    +0.000 A 
ATOM     21  C   UNL     1       2.315   3.592  17.876  0.00  0.00    +0.000 A 
ATOM     22  C   UNL     1       1.975   4.946  17.807  0.00  0.00    +0.000 A 
BRANCH  20  23
ATOM     23  C   UNL     1       3.644   1.769  18.834  0.00  0.00    +0.000 C 
ATOM     24  N   UNL     1       3.931   0.648  18.889  0.00  0.00    +0.000 NA
ENDBRANCH  20  23
ENDBRANCH   5  17
BRANCH   1  25
ATOM     25  O   UNL     1       3.805   7.826  16.746  0.00  0.00    +0.000 OA
BRANCH  25  26
ATOM     26  C   UNL     1       5.148   7.608  17.178  0.00  0.00    +0.000 C 
BRANCH  26  30
ATOM     27  C   UNL     1       6.223   3.827  13.925  0.00  0.00    +0.000 C 
ATOM     28  C   UNL     1       6.235   4.958  14.876  0.00  0.00    +0.000 A 
ATOM     29  C   UNL     1       5.137   5.674  15.394  0.00  0.00    +0.000 A 
ATOM     30  C   UNL     1       5.698   6.578  16.262  0.00  0.00    +0.000 A 
ATOM     31  O   UNL     1       7.047   6.439  16.243  0.00  0.00    +0.000 OA
ATOM     32  N   UNL     1       7.390   5.421  15.369  0.00  0.00    +0.000 NA
ENDBRANCH  26  30
ENDBRANCH  25  26
ENDBRANCH   1  25
TORSDOF 7
ENDMDL
MODEL 9
REMARK VINA RESULT:      -6.7      2.228      8.248
REMARK  Name = 
REMARK  8 active torsions:
REMARK  status: ('A' for Active; 'I' for Inactive)
REMARK    1  A    between atoms: C_1  and  C_2
REMARK    2  A    between atoms: C_4  and  C_5
REMARK    3  A    between atoms: C_5  and  O_6
REMARK    4  A    between atoms: O_6  and  C_7
REMARK    5  A    between atoms: C_9  and  C_10
REMARK    6  A    between atoms: C_16  and  N_17
REMARK    7  A    between atoms: N_20  and  C_21
REMARK    8  A    between atoms: C_24  and  C_25
REMARK                            x       y       z     vdW  Elec       q    Type
REMARK                         _______ _______ _______ _____ _____    ______ ____
ROOT
ATOM      1  C   UNL     1       3.075   8.228  17.506  0.00  0.00    +0.000 A 
ATOM      2  C   UNL     1       2.571   9.472  17.808  0.00  0.00    +0.000 A 
ATOM      3  C   UNL     1       1.545   9.257  18.764  0.00  0.00    +0.000 A 
ATOM      4  N   UNL     1       1.415   7.945  19.031  0.00  0.00    +0.000 NA
ATOM      5  N   UNL     1       2.411   7.341  18.340  0.00  0.00    +0.000 N 
ENDROOT
BRANCH   3   6
ATOM      6  C   UNL     1       0.763  10.324  19.420  0.00  0.00    +0.000 C 
ATOM      7  O   UNL     1       0.124  11.108  18.715  0.00  0.00    +0.000 OA
ATOM      8  N   UNL     1       0.734  10.410  20.817  0.00  0.00    +0.000 N 
ATOM      9  C   UNL     1       1.294   9.436  21.753  0.00  0.00    +0.000 C 
ATOM     10  C   UNL     1       0.219   8.883  22.683  0.00  0.00    +0.000 C 
ATOM     11  C   UNL     1      -0.576   9.990  23.368  0.00  0.00    +0.000 C 
ATOM     12  C   UNL     1      -1.132  10.987  22.340  0.00  0.00    +0.000 C 
ATOM     13  C   UNL     1       0.006  11.516  21.443  0.00  0.00    +0.000 C 
BRANCH  12  14
ATOM     14  N   UNL     1      -1.837  12.068  23.036  0.00  0.00    +0.000 NA
ATOM     15  H   UNL     1      -1.635  12.962  22.590  0.00  0.00    +0.000 HD
ATOM     16  H   UNL     1      -1.480  12.145  23.989  0.00  0.00    +0.000 HD
ENDBRANCH  12  14
ENDBRANCH   3   6
BRANCH   5  17
ATOM     17  C   UNL     1       2.657   5.953  18.512  0.00  0.00    +0.000 A 
ATOM     18  C   UNL     1       3.608   5.526  19.451  0.00  0.00    +0.000 A 
ATOM     19  C   UNL     1       3.868   4.161  19.607  0.00  0.00    +0.000 A 
ATOM     20  C   UNL     1       3.220   3.223  18.795  0.00  0.00    +0.000 A 
ATOM     21  C   UNL     1       2.277   3.652  17.854  0.00  0.00    +0.000 A 
ATOM     22  C   UNL     1       1.984   5.012  17.722  0.00  0.00    +0.000 A 
BRANCH  20  23
ATOM     23  C   UNL     1       3.527   1.829  18.913  0.00  0.00    +0.000 C 
ATOM     24  N   UNL     1       3.776   0.702  19.021  0.00  0.00    +0.000 NA
ENDBRANCH  20  23
ENDBRANCH   5  17
BRANCH   1  25
ATOM     25  O   UNL     1       3.986   7.800  16.631  0.00  0.00    +0.000 OA
BRANCH  25  26
ATOM     26  C   UNL     1       5.247   7.401  17.167  0.00  0.00    +0.000 C 
BRANCH  26  30
ATOM     27  C   UNL     1       6.321   3.796  13.719  0.00  0.00    +0.000 C 
ATOM     28  C   UNL     1       6.333   4.873  14.731  0.00  0.00    +0.000 A 
ATOM     29  C   UNL     1       5.236   5.568  15.279  0.00  0.00    +0.000 A 
ATOM     30  C   UNL     1       5.797   6.418  16.200  0.00  0.00    +0.000 A 
ATOM     31  O   UNL     1       7.145   6.270  16.184  0.00  0.00    +0.000 OA
ATOM     32  N   UNL     1       7.488   5.299  15.258  0.00  0.00    +0.000 NA
ENDBRANCH  26  30
ENDBRANCH  25  26
ENDBRANCH   1  25
TORSDOF 7
ENDMDL
