MODEL 1
REMARK VINA RESULT:      -7.0      0.000      0.000
REMARK  Name = 
REMARK  12 active torsions:
REMARK  status: ('A' for Active; 'I' for Inactive)
REMARK    1  A    between atoms: C_6  and  C_7
REMARK    2  A    between atoms: C_6  and  C_8
REMARK    3  A    between atoms: C_8  and  O_10
REMARK    4  A    between atoms: O_10  and  C_11
REMARK    5  A    between atoms: C_13  and  C_14
REMARK    6  A    between atoms: C_14  and  O_15
REMARK    7  A    between atoms: C_16  and  O_17
REMARK    8  A    between atoms: C_18  and  O_19
REMARK    9  A    between atoms: C_23  and  C_24
REMARK   10  A    between atoms: C_25  and  C_26
REMARK   11  A    between atoms: C_26  and  C_27
REMARK   12  A    between atoms: C_27  and  C_28
REMARK                            x       y       z     vdW  Elec       q    Type
REMARK                         _______ _______ _______ _____ _____    ______ ____
ROOT
ATOM      1  C   UNL     1      -1.591   9.780  17.311  0.00  0.00    +0.000 C 
ATOM      2  C   UNL     1      -1.131  10.823  18.032  0.00  0.00    +0.000 C 
ATOM      3  C   UNL     1      -2.144  11.877  18.435  0.00  0.00    +0.000 C 
ATOM      4  C   UNL     1      -1.762  12.889  19.529  0.00  0.00    +0.000 C 
ATOM      5  C   UNL     1      -0.405  13.537  19.254  0.00  0.00    +0.000 C 
ATOM      6  C   UNL     1       0.083  14.793  20.192  0.00  0.00    +0.000 C 
ATOM      7  C   UNL     1      -1.078  15.777  20.426  0.00  0.00    +0.000 C 
ATOM      8  C   UNL     1       1.200  15.475  19.351  0.00  0.00    +0.000 C 
ATOM      9  C   UNL     1       2.316  14.499  18.939  0.00  0.00    +0.000 C 
ATOM     10  C   UNL     1       1.838  13.177  18.334  0.00  0.00    +0.000 C 
ATOM     11  C   UNL     1       0.689  12.430  19.086  0.00  0.00    +0.000 C 
ATOM     12  C   UNL     1       0.993  11.919  20.495  0.00  0.00    +0.000 C 
ATOM     13  C   UNL     1       0.360  11.082  18.218  0.00  0.00    +0.000 C 
ENDROOT
BRANCH   6  14
ATOM     14  C   UNL     1       0.641  14.600  21.671  0.00  0.00    +0.000 C 
ATOM     15  O   UNL     1       1.762  14.185  21.940  0.00  0.00    +0.000 OA
BRANCH  14  16
ATOM     16  O   UNL     1      -0.261  14.984  22.619  0.00  0.00    +0.000 OA
BRANCH  16  17
ATOM     17  C   UNL     1      -0.938  14.047  23.483  0.00  0.00    +0.000 C 
ATOM     18  O   UNL     1      -0.461  12.697  23.312  0.00  0.00    +0.000 OA
ATOM     19  C   UNL     1      -1.586  11.915  22.862  0.00  0.00    +0.000 C 
ATOM     20  C   UNL     1      -2.781  12.537  23.560  0.00  0.00    +0.000 C 
ATOM     21  C   UNL     1      -2.474  14.025  23.398  0.00  0.00    +0.000 C 
BRANCH  20  22
ATOM     22  O   UNL     1      -4.030  12.153  23.008  0.00  0.00    +0.000 OA
ATOM     23  H   UNL     1      -4.494  11.588  23.653  0.00  0.00    +0.000 HD
ENDBRANCH  20  22
BRANCH  21  24
ATOM     24  O   UNL     1      -3.090  14.821  24.422  0.00  0.00    +0.000 OA
ATOM     25  H   UNL     1      -2.710  15.719  24.409  0.00  0.00    +0.000 HD
ENDBRANCH  21  24
BRANCH  19  26
ATOM     26  C   UNL     1      -1.344  10.442  23.171  0.00  0.00    +0.000 C 
BRANCH  26  27
ATOM     27  O   UNL     1       0.040  10.252  23.488  0.00  0.00    +0.000 OA
ATOM     28  H   UNL     1       0.240  10.923  24.170  0.00  0.00    +0.000 HD
ENDBRANCH  26  27
ENDBRANCH  19  26
ENDBRANCH  16  17
ENDBRANCH  14  16
ENDBRANCH   6  14
BRANCH  13  29
ATOM     29  C   UNL     1       1.221   9.842  18.800  0.00  0.00    +0.000 C 
BRANCH  29  30
ATOM     30  C   UNL     1       1.931   8.808  17.920  0.00  0.00    +0.000 C 
BRANCH  30  31
ATOM     31  C   UNL     1       2.482   7.599  18.642  0.00  0.00    +0.000 C 
ATOM     32  C   UNL     1       2.133   6.939  19.752  0.00  0.00    +0.000 C 
ATOM     33  C   UNL     1       2.904   5.686  19.890  0.00  0.00    +0.000 C 
ATOM     34  O   UNL     1       3.795   5.690  18.779  0.00  0.00    +0.000 OA
ATOM     35  C   UNL     1       3.563   6.805  18.031  0.00  0.00    +0.000 C 
ATOM     36  O   UNL     1       4.135   7.097  17.001  0.00  0.00    +0.000 OA
ENDBRANCH  30  31
ENDBRANCH  29  30
ENDBRANCH  13  29
TORSDOF 10
ENDMDL
MODEL 2
REMARK VINA RESULT:      -7.0      3.080      5.098
REMARK  Name = 
REMARK  12 active torsions:
REMARK  status: ('A' for Active; 'I' for Inactive)
REMARK    1  A    between atoms: C_6  and  C_7
REMARK    2  A    between atoms: C_6  and  C_8
REMARK    3  A    between atoms: C_8  and  O_10
REMARK    4  A    between atoms: O_10  and  C_11
REMARK    5  A    between atoms: C_13  and  C_14
REMARK    6  A    between atoms: C_14  and  O_15
REMARK    7  A    between atoms: C_16  and  O_17
REMARK    8  A    between atoms: C_18  and  O_19
REMARK    9  A    between atoms: C_23  and  C_24
REMARK   10  A    between atoms: C_25  and  C_26
REMARK   11  A    between atoms: C_26  and  C_27
REMARK   12  A    between atoms: C_27  and  C_28
REMARK                            x       y       z     vdW  Elec       q    Type
REMARK                         _______ _______ _______ _____ _____    ______ ____
ROOT
ATOM      1  C   UNL     1       1.885  10.299  17.976  0.00  0.00    +0.000 C 
ATOM      2  C   UNL     1       1.195  11.137  18.777  0.00  0.00    +0.000 C 
ATOM      3  C   UNL     1       1.752  12.536  18.946  0.00  0.00    +0.000 C 
ATOM      4  C   UNL     1       0.848  13.624  19.552  0.00  0.00    +0.000 C 
ATOM      5  C   UNL     1       0.190  13.156  20.850  0.00  0.00    +0.000 C 
ATOM      6  C   UNL     1      -0.645  14.241  21.757  0.00  0.00    +0.000 C 
ATOM      7  C   UNL     1       0.125  15.571  21.854  0.00  0.00    +0.000 C 
ATOM      8  C   UNL     1      -0.731  13.569  23.158  0.00  0.00    +0.000 C 
ATOM      9  C   UNL     1      -1.342  12.158  23.105  0.00  0.00    +0.000 C 
ATOM     10  C   UNL     1      -0.760  11.232  22.035  0.00  0.00    +0.000 C 
ATOM     11  C   UNL     1      -0.597  11.826  20.598  0.00  0.00    +0.000 C 
ATOM     12  C   UNL     1      -1.875  12.225  19.859  0.00  0.00    +0.000 C 
ATOM     13  C   UNL     1       0.066  10.647  19.676  0.00  0.00    +0.000 C 
ENDROOT
BRANCH   6  14
ATOM     14  C   UNL     1      -2.105  14.745  21.371  0.00  0.00    +0.000 C 
ATOM     15  O   UNL     1      -2.370  15.401  20.371  0.00  0.00    +0.000 OA
BRANCH  14  16
ATOM     16  O   UNL     1      -3.049  14.334  22.266  0.00  0.00    +0.000 OA
BRANCH  16  17
ATOM     17  C   UNL     1      -4.454  14.261  21.945  0.00  0.00    +0.000 C 
ATOM     18  O   UNL     1      -5.276  14.065  23.114  0.00  0.00    +0.000 OA
ATOM     19  C   UNL     1      -5.956  12.806  22.934  0.00  0.00    +0.000 C 
ATOM     20  C   UNL     1      -6.201  12.720  21.439  0.00  0.00    +0.000 C 
ATOM     21  C   UNL     1      -4.863  13.215  20.893  0.00  0.00    +0.000 C 
BRANCH  20  22
ATOM     22  O   UNL     1      -6.549  11.420  20.989  0.00  0.00    +0.000 OA
ATOM     23  H   UNL     1      -7.231  11.058  21.585  0.00  0.00    +0.000 HD
ENDBRANCH  20  22
BRANCH  21  24
ATOM     24  O   UNL     1      -4.988  13.781  19.579  0.00  0.00    +0.000 OA
ATOM     25  H   UNL     1      -5.028  14.753  19.646  0.00  0.00    +0.000 HD
ENDBRANCH  21  24
BRANCH  19  26
ATOM     26  C   UNL     1      -7.208  12.770  23.803  0.00  0.00    +0.000 C 
BRANCH  26  27
ATOM     27  O   UNL     1      -7.651  11.413  23.928  0.00  0.00    +0.000 OA
ATOM     28  H   UNL     1      -7.712  11.079  23.012  0.00  0.00    +0.000 HD
ENDBRANCH  26  27
ENDBRANCH  19  26
ENDBRANCH  16  17
ENDBRANCH  14  16
ENDBRANCH   6  14
BRANCH  13  29
ATOM     29  C   UNL     1      -1.109   9.815  18.938  0.00  0.00    +0.000 C 
BRANCH  29  30
ATOM     30  C   UNL     1      -1.403   9.901  17.437  0.00  0.00    +0.000 C 
BRANCH  30  31
ATOM     31  C   UNL     1      -2.799  10.351  17.067  0.00  0.00    +0.000 C 
ATOM     32  C   UNL     1      -3.865  10.749  17.770  0.00  0.00    +0.000 C 
ATOM     33  C   UNL     1      -4.920  11.280  16.881  0.00  0.00    +0.000 C 
ATOM     34  O   UNL     1      -4.401  11.105  15.567  0.00  0.00    +0.000 OA
ATOM     35  C   UNL     1      -3.154  10.562  15.652  0.00  0.00    +0.000 C 
ATOM     36  O   UNL     1      -2.426  10.311  14.714  0.00  0.00    +0.000 OA
ENDBRANCH  30  31
ENDBRANCH  29  30
ENDBRANCH  13  29
TORSDOF 10
ENDMDL
MODEL 3
REMARK VINA RESULT:      -7.0      2.134      4.455
REMARK  Name = 
REMARK  12 active torsions:
REMARK  status: ('A' for Active; 'I' for Inactive)
REMARK    1  A    between atoms: C_6  and  C_7
REMARK    2  A    between atoms: C_6  and  C_8
REMARK    3  A    between atoms: C_8  and  O_10
REMARK    4  A    between atoms: O_10  and  C_11
REMARK    5  A    between atoms: C_13  and  C_14
REMARK    6  A    between atoms: C_14  and  O_15
REMARK    7  A    between atoms: C_16  and  O_17
REMARK    8  A    between atoms: C_18  and  O_19
REMARK    9  A    between atoms: C_23  and  C_24
REMARK   10  A    between atoms: C_25  and  C_26
REMARK   11  A    between atoms: C_26  and  C_27
REMARK   12  A    between atoms: C_27  and  C_28
REMARK                            x       y       z     vdW  Elec       q    Type
REMARK                         _______ _______ _______ _____ _____    ______ ____
ROOT
ATOM      1  C   UNL     1       1.471   7.323  21.241  0.00  0.00    +0.000 C 
ATOM      2  C   UNL     1       0.949   8.529  20.935  0.00  0.00    +0.000 C 
ATOM      3  C   UNL     1       0.309   9.306  22.068  0.00  0.00    +0.000 C 
ATOM      4  C   UNL     1       0.013  10.802  21.865  0.00  0.00    +0.000 C 
ATOM      5  C   UNL     1      -0.735  11.059  20.557  0.00  0.00    +0.000 C 
ATOM      6  C   UNL     1      -1.325  12.563  20.258  0.00  0.00    +0.000 C 
ATOM      7  C   UNL     1      -1.989  13.144  21.521  0.00  0.00    +0.000 C 
ATOM      8  C   UNL     1      -2.392  12.333  19.150  0.00  0.00    +0.000 C 
ATOM      9  C   UNL     1      -1.827  11.599  17.921  0.00  0.00    +0.000 C 
ATOM     10  C   UNL     1      -1.006  10.345  18.228  0.00  0.00    +0.000 C 
ATOM     11  C   UNL     1       0.071  10.462  19.355  0.00  0.00    +0.000 C 
ATOM     12  C   UNL     1       1.237  11.421  19.110  0.00  0.00    +0.000 C 
ATOM     13  C   UNL     1       0.768   8.987  19.492  0.00  0.00    +0.000 C 
ENDROOT
BRANCH   6  14
ATOM     14  C   UNL     1      -0.402  13.775  19.796  0.00  0.00    +0.000 C 
ATOM     15  O   UNL     1      -0.375  14.231  18.660  0.00  0.00    +0.000 OA
BRANCH  14  16
ATOM     16  O   UNL     1       0.340  14.282  20.822  0.00  0.00    +0.000 OA
BRANCH  16  17
ATOM     17  C   UNL     1       1.783  14.305  20.810  0.00  0.00    +0.000 C 
ATOM     18  O   UNL     1       2.342  14.479  22.128  0.00  0.00    +0.000 OA
ATOM     19  C   UNL     1       3.088  15.713  22.100  0.00  0.00    +0.000 C 
ATOM     20  C   UNL     1       3.650  15.783  20.692  0.00  0.00    +0.000 C 
ATOM     21  C   UNL     1       2.443  15.331  19.871  0.00  0.00    +0.000 C 
BRANCH  20  22
ATOM     22  O   UNL     1       4.131  17.068  20.330  0.00  0.00    +0.000 OA
ATOM     23  H   UNL     1       4.686  16.978  19.534  0.00  0.00    +0.000 HD
ENDBRANCH  20  22
BRANCH  21  24
ATOM     24  O   UNL     1       2.827  14.754  18.613  0.00  0.00    +0.000 OA
ATOM     25  H   UNL     1       2.233  14.010  18.402  0.00  0.00    +0.000 HD
ENDBRANCH  21  24
BRANCH  19  26
ATOM     26  C   UNL     1       4.126  15.710  23.217  0.00  0.00    +0.000 C 
BRANCH  26  27
ATOM     27  O   UNL     1       4.512  14.359  23.493  0.00  0.00    +0.000 OA
ATOM     28  H   UNL     1       4.352  14.238  24.450  0.00  0.00    +0.000 HD
ENDBRANCH  26  27
ENDBRANCH  19  26
ENDBRANCH  16  17
ENDBRANCH  14  16
ENDBRANCH   6  14
BRANCH  13  29
ATOM     29  C   UNL     1       2.093   8.929  18.565  0.00  0.00    +0.000 C 
BRANCH  29  30
ATOM     30  C   UNL     1       2.310   7.900  17.451  0.00  0.00    +0.000 C 
BRANCH  30  31
ATOM     31  C   UNL     1       2.863   6.563  17.891  0.00  0.00    +0.000 C 
ATOM     32  C   UNL     1       2.309   5.423  18.320  0.00  0.00    +0.000 C 
ATOM     33  C   UNL     1       3.317   4.347  18.419  0.00  0.00    +0.000 C 
ATOM     34  O   UNL     1       4.545   4.973  18.062  0.00  0.00    +0.000 OA
ATOM     35  C   UNL     1       4.301   6.276  17.746  0.00  0.00    +0.000 C 
ATOM     36  O   UNL     1       5.131   7.081  17.374  0.00  0.00    +0.000 OA
ENDBRANCH  30  31
ENDBRANCH  29  30
ENDBRANCH  13  29
TORSDOF 10
ENDMDL
MODEL 4
REMARK VINA RESULT:      -7.0      2.248      4.853
REMARK  Name = 
REMARK  12 active torsions:
REMARK  status: ('A' for Active; 'I' for Inactive)
REMARK    1  A    between atoms: C_6  and  C_7
REMARK    2  A    between atoms: C_6  and  C_8
REMARK    3  A    between atoms: C_8  and  O_10
REMARK    4  A    between atoms: O_10  and  C_11
REMARK    5  A    between atoms: C_13  and  C_14
REMARK    6  A    between atoms: C_14  and  O_15
REMARK    7  A    between atoms: C_16  and  O_17
REMARK    8  A    between atoms: C_18  and  O_19
REMARK    9  A    between atoms: C_23  and  C_24
REMARK   10  A    between atoms: C_25  and  C_26
REMARK   11  A    between atoms: C_26  and  C_27
REMARK   12  A    between atoms: C_27  and  C_28
REMARK                            x       y       z     vdW  Elec       q    Type
REMARK                         _______ _______ _______ _____ _____    ______ ____
ROOT
ATOM      1  C   UNL     1       1.787   7.201  20.964  0.00  0.00    +0.000 C 
ATOM      2  C   UNL     1       1.169   8.356  20.645  0.00  0.00    +0.000 C 
ATOM      3  C   UNL     1       0.466   9.090  21.770  0.00  0.00    +0.000 C 
ATOM      4  C   UNL     1       0.050  10.555  21.551  0.00  0.00    +0.000 C 
ATOM      5  C   UNL     1      -0.715  10.737  20.240  0.00  0.00    +0.000 C 
ATOM      6  C   UNL     1      -1.424  12.185  19.925  0.00  0.00    +0.000 C 
ATOM      7  C   UNL     1      -2.136  12.723  21.181  0.00  0.00    +0.000 C 
ATOM      8  C   UNL     1      -2.468  11.857  18.819  0.00  0.00    +0.000 C 
ATOM      9  C   UNL     1      -1.844  11.160  17.598  0.00  0.00    +0.000 C 
ATOM     10  C   UNL     1      -0.923   9.979  17.919  0.00  0.00    +0.000 C 
ATOM     11  C   UNL     1       0.138  10.195  19.045  0.00  0.00    +0.000 C 
ATOM     12  C   UNL     1       1.223  11.244  18.790  0.00  0.00    +0.000 C 
ATOM     13  C   UNL     1       0.953   8.784  19.198  0.00  0.00    +0.000 C 
ENDROOT
BRANCH   6  14
ATOM     14  C   UNL     1      -0.602  13.463  19.451  0.00  0.00    +0.000 C 
ATOM     15  O   UNL     1      -0.441  13.789  18.281  0.00  0.00    +0.000 OA
BRANCH  14  16
ATOM     16  O   UNL     1      -0.119  14.188  20.501  0.00  0.00    +0.000 OA
BRANCH  16  17
ATOM     17  C   UNL     1       1.154  14.865  20.466  0.00  0.00    +0.000 C 
ATOM     18  O   UNL     1       1.171  15.957  19.523  0.00  0.00    +0.000 OA
ATOM     19  C   UNL     1       2.181  15.640  18.543  0.00  0.00    +0.000 C 
ATOM     20  C   UNL     1       3.248  14.900  19.327  0.00  0.00    +0.000 C 
ATOM     21  C   UNL     1       2.390  13.988  20.203  0.00  0.00    +0.000 C 
BRANCH  20  22
ATOM     22  O   UNL     1       4.173  14.196  18.513  0.00  0.00    +0.000 OA
ATOM     23  H   UNL     1       4.907  14.797  18.286  0.00  0.00    +0.000 HD
ENDBRANCH  20  22
BRANCH  21  24
ATOM     24  O   UNL     1       3.061  13.610  21.415  0.00  0.00    +0.000 OA
ATOM     25  H   UNL     1       3.020  12.641  21.521  0.00  0.00    +0.000 HD
ENDBRANCH  21  24
BRANCH  19  26
ATOM     26  C   UNL     1       2.647  16.919  17.855  0.00  0.00    +0.000 C 
BRANCH  26  27
ATOM     27  O   UNL     1       4.017  17.161  18.197  0.00  0.00    +0.000 OA
ATOM     28  H   UNL     1       4.212  16.539  18.925  0.00  0.00    +0.000 HD
ENDBRANCH  26  27
ENDBRANCH  19  26
ENDBRANCH  16  17
ENDBRANCH  14  16
ENDBRANCH   6  14
BRANCH  13  29
ATOM     29  C   UNL     1       2.280   8.824  18.272  0.00  0.00    +0.000 C 
BRANCH  29  30
ATOM     30  C   UNL     1       2.631   7.750  17.237  0.00  0.00    +0.000 C 
BRANCH  30  31
ATOM     31  C   UNL     1       3.494   6.614  17.738  0.00  0.00    +0.000 C 
ATOM     32  C   UNL     1       4.771   6.516  18.124  0.00  0.00    +0.000 C 
ATOM     33  C   UNL     1       5.045   5.194  18.724  0.00  0.00    +0.000 C 
ATOM     34  O   UNL     1       3.815   4.486  18.606  0.00  0.00    +0.000 OA
ATOM     35  C   UNL     1       2.889   5.302  18.030  0.00  0.00    +0.000 C 
ATOM     36  O   UNL     1       1.730   5.013  17.811  0.00  0.00    +0.000 OA
ENDBRANCH  30  31
ENDBRANCH  29  30
ENDBRANCH  13  29
TORSDOF 10
ENDMDL
MODEL 5
REMARK VINA RESULT:      -7.0      3.463     10.789
REMARK  Name = 
REMARK  12 active torsions:
REMARK  status: ('A' for Active; 'I' for Inactive)
REMARK    1  A    between atoms: C_6  and  C_7
REMARK    2  A    between atoms: C_6  and  C_8
REMARK    3  A    between atoms: C_8  and  O_10
REMARK    4  A    between atoms: O_10  and  C_11
REMARK    5  A    between atoms: C_13  and  C_14
REMARK    6  A    between atoms: C_14  and  O_15
REMARK    7  A    between atoms: C_16  and  O_17
REMARK    8  A    between atoms: C_18  and  O_19
REMARK    9  A    between atoms: C_23  and  C_24
REMARK   10  A    between atoms: C_25  and  C_26
REMARK   11  A    between atoms: C_26  and  C_27
REMARK   12  A    between atoms: C_27  and  C_28
REMARK                            x       y       z     vdW  Elec       q    Type
REMARK                         _______ _______ _______ _____ _____    ______ ____
ROOT
ATOM      1  C   UNL     1       0.470   7.878  21.121  0.00  0.00    +0.000 C 
ATOM      2  C   UNL     1       1.276   6.991  20.504  0.00  0.00    +0.000 C 
ATOM      3  C   UNL     1       1.161   5.543  20.937  0.00  0.00    +0.000 C 
ATOM      4  C   UNL     1       1.787   4.453  20.050  0.00  0.00    +0.000 C 
ATOM      5  C   UNL     1       3.234   4.783  19.684  0.00  0.00    +0.000 C 
ATOM      6  C   UNL     1       4.141   3.647  18.918  0.00  0.00    +0.000 C 
ATOM      7  C   UNL     1       3.924   2.262  19.555  0.00  0.00    +0.000 C 
ATOM      8  C   UNL     1       5.605   4.119  19.150  0.00  0.00    +0.000 C 
ATOM      9  C   UNL     1       5.846   5.566  18.686  0.00  0.00    +0.000 C 
ATOM     10  C   UNL     1       4.808   6.587  19.159  0.00  0.00    +0.000 C 
ATOM     11  C   UNL     1       3.304   6.190  19.004  0.00  0.00    +0.000 C 
ATOM     12  C   UNL     1       2.777   5.999  17.580  0.00  0.00    +0.000 C 
ATOM     13  C   UNL     1       2.427   7.434  19.607  0.00  0.00    +0.000 C 
ENDROOT
BRANCH   6  14
ATOM     14  C   UNL     1       3.980   3.315  17.369  0.00  0.00    +0.000 C 
ATOM     15  O   UNL     1       2.931   2.965  16.841  0.00  0.00    +0.000 OA
BRANCH  14  16
ATOM     16  O   UNL     1       5.139   3.499  16.676  0.00  0.00    +0.000 OA
BRANCH  16  17
ATOM     17  C   UNL     1       5.220   4.306  15.482  0.00  0.00    +0.000 C 
ATOM     18  O   UNL     1       5.128   3.517  14.278  0.00  0.00    +0.000 OA
ATOM     19  C   UNL     1       6.366   3.708  13.564  0.00  0.00    +0.000 C 
ATOM     20  C   UNL     1       6.758   5.142  13.864  0.00  0.00    +0.000 C 
ATOM     21  C   UNL     1       6.447   5.225  15.358  0.00  0.00    +0.000 C 
BRANCH  20  22
ATOM     22  O   UNL     1       8.108   5.445  13.549  0.00  0.00    +0.000 OA
ATOM     23  H   UNL     1       8.156   6.372  13.249  0.00  0.00    +0.000 HD
ENDBRANCH  20  22
BRANCH  21  24
ATOM     24  O   UNL     1       6.169   6.569  15.781  0.00  0.00    +0.000 OA
ATOM     25  H   UNL     1       5.220   6.655  15.989  0.00  0.00    +0.000 HD
ENDBRANCH  21  24
BRANCH  19  26
ATOM     26  C   UNL     1       6.163   3.383  12.088  0.00  0.00    +0.000 C 
BRANCH  26  27
ATOM     27  O   UNL     1       6.937   2.224  11.754  0.00  0.00    +0.000 OA
ATOM     28  H   UNL     1       6.888   2.157  10.780  0.00  0.00    +0.000 HD
ENDBRANCH  26  27
ENDBRANCH  19  26
ENDBRANCH  16  17
ENDBRANCH  14  16
ENDBRANCH   6  14
BRANCH  13  29
ATOM     29  C   UNL     1       2.036   8.449  18.410  0.00  0.00    +0.000 C 
BRANCH  29  30
ATOM     30  C   UNL     1       1.821   9.954  18.603  0.00  0.00    +0.000 C 
BRANCH  30  31
ATOM     31  C   UNL     1       0.385  10.423  18.558  0.00  0.00    +0.000 C 
ATOM     32  C   UNL     1      -0.712  10.003  17.916  0.00  0.00    +0.000 C 
ATOM     33  C   UNL     1      -1.915  10.711  18.401  0.00  0.00    +0.000 C 
ATOM     34  O   UNL     1      -1.421  11.641  19.359  0.00  0.00    +0.000 OA
ATOM     35  C   UNL     1      -0.071  11.488  19.469  0.00  0.00    +0.000 C 
ATOM     36  O   UNL     1       0.652  12.111  20.220  0.00  0.00    +0.000 OA
ENDBRANCH  30  31
ENDBRANCH  29  30
ENDBRANCH  13  29
TORSDOF 10
ENDMDL
MODEL 6
REMARK VINA RESULT:      -6.8      2.251      4.777
REMARK  Name = 
REMARK  12 active torsions:
REMARK  status: ('A' for Active; 'I' for Inactive)
REMARK    1  A    between atoms: C_6  and  C_7
REMARK    2  A    between atoms: C_6  and  C_8
REMARK    3  A    between atoms: C_8  and  O_10
REMARK    4  A    between atoms: O_10  and  C_11
REMARK    5  A    between atoms: C_13  and  C_14
REMARK    6  A    between atoms: C_14  and  O_15
REMARK    7  A    between atoms: C_16  and  O_17
REMARK    8  A    between atoms: C_18  and  O_19
REMARK    9  A    between atoms: C_23  and  C_24
REMARK   10  A    between atoms: C_25  and  C_26
REMARK   11  A    between atoms: C_26  and  C_27
REMARK   12  A    between atoms: C_27  and  C_28
REMARK                            x       y       z     vdW  Elec       q    Type
REMARK                         _______ _______ _______ _____ _____    ______ ____
ROOT
ATOM      1  C   UNL     1       1.781   7.053  20.892  0.00  0.00    +0.000 C 
ATOM      2  C   UNL     1       1.217   8.259  20.679  0.00  0.00    +0.000 C 
ATOM      3  C   UNL     1       0.573   8.935  21.873  0.00  0.00    +0.000 C 
ATOM      4  C   UNL     1       0.228  10.431  21.779  0.00  0.00    +0.000 C 
ATOM      5  C   UNL     1      -0.550  10.755  20.504  0.00  0.00    +0.000 C 
ATOM      6  C   UNL     1      -1.191  12.256  20.320  0.00  0.00    +0.000 C 
ATOM      7  C   UNL     1      -1.851  12.726  21.629  0.00  0.00    +0.000 C 
ATOM      8  C   UNL     1      -2.269  12.070  19.214  0.00  0.00    +0.000 C 
ATOM      9  C   UNL     1      -1.702  11.442  17.929  0.00  0.00    +0.000 C 
ATOM     10  C   UNL     1      -0.838  10.196  18.135  0.00  0.00    +0.000 C 
ATOM     11  C   UNL     1       0.253  10.269  19.252  0.00  0.00    +0.000 C 
ATOM     12  C   UNL     1       1.385  11.280  19.057  0.00  0.00    +0.000 C 
ATOM     13  C   UNL     1       0.998   8.811  19.275  0.00  0.00    +0.000 C 
ENDROOT
BRANCH   6  14
ATOM     14  C   UNL     1      -0.313  13.526  19.930  0.00  0.00    +0.000 C 
ATOM     15  O   UNL     1      -0.567  14.286  19.003  0.00  0.00    +0.000 OA
BRANCH  14  16
ATOM     16  O   UNL     1       0.746  13.703  20.771  0.00  0.00    +0.000 OA
BRANCH  16  17
ATOM     17  C   UNL     1       1.743  14.727  20.573  0.00  0.00    +0.000 C 
ATOM     18  O   UNL     1       2.210  14.784  19.209  0.00  0.00    +0.000 OA
ATOM     19  C   UNL     1       3.623  14.495  19.245  0.00  0.00    +0.000 C 
ATOM     20  C   UNL     1       4.098  15.096  20.555  0.00  0.00    +0.000 C 
ATOM     21  C   UNL     1       2.972  14.675  21.497  0.00  0.00    +0.000 C 
BRANCH  20  22
ATOM     22  O   UNL     1       5.378  14.641  20.963  0.00  0.00    +0.000 OA
ATOM     23  H   UNL     1       5.594  15.050  21.822  0.00  0.00    +0.000 HD
ENDBRANCH  20  22
BRANCH  21  24
ATOM     24  O   UNL     1       2.847  15.557  22.624  0.00  0.00    +0.000 OA
ATOM     25  H   UNL     1       3.664  15.525  23.154  0.00  0.00    +0.000 HD
ENDBRANCH  21  24
BRANCH  19  26
ATOM     26  C   UNL     1       4.291  15.050  17.993  0.00  0.00    +0.000 C 
BRANCH  26  27
ATOM     27  O   UNL     1       5.630  14.547  17.915  0.00  0.00    +0.000 OA
ATOM     28  H   UNL     1       5.549  13.583  18.056  0.00  0.00    +0.000 HD
ENDBRANCH  26  27
ENDBRANCH  19  26
ENDBRANCH  16  17
ENDBRANCH  14  16
ENDBRANCH   6  14
BRANCH  13  29
ATOM     29  C   UNL     1       2.308   8.860  18.326  0.00  0.00    +0.000 C 
BRANCH  29  30
ATOM     30  C   UNL     1       2.623   7.814  17.252  0.00  0.00    +0.000 C 
BRANCH  30  31
ATOM     31  C   UNL     1       3.526   6.680  17.684  0.00  0.00    +0.000 C 
ATOM     32  C   UNL     1       4.820   6.594  18.010  0.00  0.00    +0.000 C 
ATOM     33  C   UNL     1       5.141   5.262  18.564  0.00  0.00    +0.000 C 
ATOM     34  O   UNL     1       3.919   4.537  18.482  0.00  0.00    +0.000 OA
ATOM     35  C   UNL     1       2.955   5.352  17.969  0.00  0.00    +0.000 C 
ATOM     36  O   UNL     1       1.792   5.049  17.795  0.00  0.00    +0.000 OA
ENDBRANCH  30  31
ENDBRANCH  29  30
ENDBRANCH  13  29
TORSDOF 10
ENDMDL
MODEL 7
REMARK VINA RESULT:      -6.8      2.388      4.959
REMARK  Name = 
REMARK  12 active torsions:
REMARK  status: ('A' for Active; 'I' for Inactive)
REMARK    1  A    between atoms: C_6  and  C_7
REMARK    2  A    between atoms: C_6  and  C_8
REMARK    3  A    between atoms: C_8  and  O_10
REMARK    4  A    between atoms: O_10  and  C_11
REMARK    5  A    between atoms: C_13  and  C_14
REMARK    6  A    between atoms: C_14  and  O_15
REMARK    7  A    between atoms: C_16  and  O_17
REMARK    8  A    between atoms: C_18  and  O_19
REMARK    9  A    between atoms: C_23  and  C_24
REMARK   10  A    between atoms: C_25  and  C_26
REMARK   11  A    between atoms: C_26  and  C_27
REMARK   12  A    between atoms: C_27  and  C_28
REMARK                            x       y       z     vdW  Elec       q    Type
REMARK                         _______ _______ _______ _____ _____    ______ ____
ROOT
ATOM      1  C   UNL     1       1.984   6.803  20.715  0.00  0.00    +0.000 C 
ATOM      2  C   UNL     1       1.416   8.007  20.498  0.00  0.00    +0.000 C 
ATOM      3  C   UNL     1       0.775   8.688  21.691  0.00  0.00    +0.000 C 
ATOM      4  C   UNL     1       0.426  10.183  21.590  0.00  0.00    +0.000 C 
ATOM      5  C   UNL     1      -0.357  10.498  20.315  0.00  0.00    +0.000 C 
ATOM      6  C   UNL     1      -1.001  11.997  20.126  0.00  0.00    +0.000 C 
ATOM      7  C   UNL     1      -1.658  12.473  21.435  0.00  0.00    +0.000 C 
ATOM      8  C   UNL     1      -2.084  11.802  19.025  0.00  0.00    +0.000 C 
ATOM      9  C   UNL     1      -1.521  11.168  17.741  0.00  0.00    +0.000 C 
ATOM     10  C   UNL     1      -0.653   9.925  17.951  0.00  0.00    +0.000 C 
ATOM     11  C   UNL     1       0.443  10.006  19.063  0.00  0.00    +0.000 C 
ATOM     12  C   UNL     1       1.571  11.019  18.858  0.00  0.00    +0.000 C 
ATOM     13  C   UNL     1       1.190   8.551  19.092  0.00  0.00    +0.000 C 
ENDROOT
BRANCH   6  14
ATOM     14  C   UNL     1      -0.128  13.267  19.726  0.00  0.00    +0.000 C 
ATOM     15  O   UNL     1      -0.415  14.051  18.829  0.00  0.00    +0.000 OA
BRANCH  14  16
ATOM     16  O   UNL     1       0.970  13.412  20.521  0.00  0.00    +0.000 OA
BRANCH  16  17
ATOM     17  C   UNL     1       1.741  14.630  20.577  0.00  0.00    +0.000 C 
ATOM     18  O   UNL     1       1.986  15.188  19.270  0.00  0.00    +0.000 OA
ATOM     19  C   UNL     1       3.417  15.198  19.087  0.00  0.00    +0.000 C 
ATOM     20  C   UNL     1       3.973  15.463  20.474  0.00  0.00    +0.000 C 
ATOM     21  C   UNL     1       3.084  14.556  21.324  0.00  0.00    +0.000 C 
BRANCH  20  22
ATOM     22  O   UNL     1       5.357  15.179  20.600  0.00  0.00    +0.000 OA
ATOM     23  H   UNL     1       5.475  14.211  20.613  0.00  0.00    +0.000 HD
ENDBRANCH  20  22
BRANCH  21  24
ATOM     24  O   UNL     1       2.982  15.014  22.682  0.00  0.00    +0.000 OA
ATOM     25  H   UNL     1       2.458  14.377  23.202  0.00  0.00    +0.000 HD
ENDBRANCH  21  24
BRANCH  19  26
ATOM     26  C   UNL     1       3.791  16.228  18.027  0.00  0.00    +0.000 C 
BRANCH  26  27
ATOM     27  O   UNL     1       4.741  17.146  18.582  0.00  0.00    +0.000 OA
ATOM     28  H   UNL     1       5.548  17.036  18.042  0.00  0.00    +0.000 HD
ENDBRANCH  26  27
ENDBRANCH  19  26
ENDBRANCH  16  17
ENDBRANCH  14  16
ENDBRANCH   6  14
BRANCH  13  29
ATOM     29  C   UNL     1       2.497   8.597  18.138  0.00  0.00    +0.000 C 
BRANCH  29  30
ATOM     30  C   UNL     1       2.867   7.491  17.144  0.00  0.00    +0.000 C 
BRANCH  30  31
ATOM     31  C   UNL     1       4.121   6.711  17.468  0.00  0.00    +0.000 C 
ATOM     32  C   UNL     1       4.532   6.009  18.530  0.00  0.00    +0.000 C 
ATOM     33  C   UNL     1       5.774   5.268  18.230  0.00  0.00    +0.000 C 
ATOM     34  O   UNL     1       6.101   5.643  16.896  0.00  0.00    +0.000 OA
ATOM     35  C   UNL     1       5.141   6.490  16.427  0.00  0.00    +0.000 C 
ATOM     36  O   UNL     1       5.107   6.973  15.314  0.00  0.00    +0.000 OA
ENDBRANCH  30  31
ENDBRANCH  29  30
ENDBRANCH  13  29
TORSDOF 10
ENDMDL
MODEL 8
REMARK VINA RESULT:      -6.7      2.716      5.373
REMARK  Name = 
REMARK  12 active torsions:
REMARK  status: ('A' for Active; 'I' for Inactive)
REMARK    1  A    between atoms: C_6  and  C_7
REMARK    2  A    between atoms: C_6  and  C_8
REMARK    3  A    between atoms: C_8  and  O_10
REMARK    4  A    between atoms: O_10  and  C_11
REMARK    5  A    between atoms: C_13  and  C_14
REMARK    6  A    between atoms: C_14  and  O_15
REMARK    7  A    between atoms: C_16  and  O_17
REMARK    8  A    between atoms: C_18  and  O_19
REMARK    9  A    between atoms: C_23  and  C_24
REMARK   10  A    between atoms: C_25  and  C_26
REMARK   11  A    between atoms: C_26  and  C_27
REMARK   12  A    between atoms: C_27  and  C_28
REMARK                            x       y       z     vdW  Elec       q    Type
REMARK                         _______ _______ _______ _____ _____    ______ ____
ROOT
ATOM      1  C   UNL     1       2.283   6.270  20.240  0.00  0.00    +0.000 C 
ATOM      2  C   UNL     1       1.801   7.517  20.065  0.00  0.00    +0.000 C 
ATOM      3  C   UNL     1       1.422   8.287  21.315  0.00  0.00    +0.000 C 
ATOM      4  C   UNL     1       1.200   9.805  21.209  0.00  0.00    +0.000 C 
ATOM      5  C   UNL     1       0.256  10.162  20.062  0.00  0.00    +0.000 C 
ATOM      6  C   UNL     1      -0.270  11.711  19.914  0.00  0.00    +0.000 C 
ATOM      7  C   UNL     1      -0.664  12.282  21.290  0.00  0.00    +0.000 C 
ATOM      8  C   UNL     1      -1.528  11.594  19.005  0.00  0.00    +0.000 C 
ATOM      9  C   UNL     1      -1.237  10.876  17.676  0.00  0.00    +0.000 C 
ATOM     10  C   UNL     1      -0.464   9.561  17.797  0.00  0.00    +0.000 C 
ATOM     11  C   UNL     1       0.798   9.564  18.721  0.00  0.00    +0.000 C 
ATOM     12  C   UNL     1       1.967  10.457  18.301  0.00  0.00    +0.000 C 
ATOM     13  C   UNL     1       1.404   8.044  18.691  0.00  0.00    +0.000 C 
ENDROOT
BRANCH   6  14
ATOM     14  C   UNL     1       0.640  12.880  19.332  0.00  0.00    +0.000 C 
ATOM     15  O   UNL     1       0.306  13.632  18.425  0.00  0.00    +0.000 OA
BRANCH  14  16
ATOM     16  O   UNL     1       1.834  12.980  19.983  0.00  0.00    +0.000 OA
BRANCH  16  17
ATOM     17  C   UNL     1       2.757  14.069  19.767  0.00  0.00    +0.000 C 
ATOM     18  O   UNL     1       2.352  15.276  20.445  0.00  0.00    +0.000 OA
ATOM     19  C   UNL     1       2.137  16.271  19.423  0.00  0.00    +0.000 C 
ATOM     20  C   UNL     1       3.169  15.947  18.359  0.00  0.00    +0.000 C 
ATOM     21  C   UNL     1       3.065  14.424  18.302  0.00  0.00    +0.000 C 
BRANCH  20  22
ATOM     22  O   UNL     1       2.922  16.579  17.112  0.00  0.00    +0.000 OA
ATOM     23  H   UNL     1       3.727  17.059  16.843  0.00  0.00    +0.000 HD
ENDBRANCH  20  22
BRANCH  21  24
ATOM     24  O   UNL     1       4.279  13.814  17.834  0.00  0.00    +0.000 OA
ATOM     25  H   UNL     1       4.609  13.190  18.507  0.00  0.00    +0.000 HD
ENDBRANCH  21  24
BRANCH  19  26
ATOM     26  C   UNL     1       2.244  17.664  20.033  0.00  0.00    +0.000 C 
BRANCH  26  27
ATOM     27  O   UNL     1       1.792  18.629  19.077  0.00  0.00    +0.000 OA
ATOM     28  H   UNL     1       1.154  19.189  19.561  0.00  0.00    +0.000 HD
ENDBRANCH  26  27
ENDBRANCH  19  26
ENDBRANCH  16  17
ENDBRANCH  14  16
ENDBRANCH   6  14
BRANCH  13  29
ATOM     29  C   UNL     1       2.541   7.939  17.543  0.00  0.00    +0.000 C 
BRANCH  29  30
ATOM     30  C   UNL     1       3.983   7.494  17.808  0.00  0.00    +0.000 C 
BRANCH  30  31
ATOM     31  C   UNL     1       4.359   6.134  17.267  0.00  0.00    +0.000 C 
ATOM     32  C   UNL     1       4.115   4.877  17.657  0.00  0.00    +0.000 C 
ATOM     33  C   UNL     1       4.553   3.908  16.631  0.00  0.00    +0.000 C 
ATOM     34  O   UNL     1       5.140   4.708  15.610  0.00  0.00    +0.000 OA
ATOM     35  C   UNL     1       5.035   6.021  15.962  0.00  0.00    +0.000 C 
ATOM     36  O   UNL     1       5.413   6.964  15.298  0.00  0.00    +0.000 OA
ENDBRANCH  30  31
ENDBRANCH  29  30
ENDBRANCH  13  29
TORSDOF 10
ENDMDL
MODEL 9
REMARK VINA RESULT:      -6.7      1.436      2.171
REMARK  Name = 
REMARK  12 active torsions:
REMARK  status: ('A' for Active; 'I' for Inactive)
REMARK    1  A    between atoms: C_6  and  C_7
REMARK    2  A    between atoms: C_6  and  C_8
REMARK    3  A    between atoms: C_8  and  O_10
REMARK    4  A    between atoms: O_10  and  C_11
REMARK    5  A    between atoms: C_13  and  C_14
REMARK    6  A    between atoms: C_14  and  O_15
REMARK    7  A    between atoms: C_16  and  O_17
REMARK    8  A    between atoms: C_18  and  O_19
REMARK    9  A    between atoms: C_23  and  C_24
REMARK   10  A    between atoms: C_25  and  C_26
REMARK   11  A    between atoms: C_26  and  C_27
REMARK   12  A    between atoms: C_27  and  C_28
REMARK                            x       y       z     vdW  Elec       q    Type
REMARK                         _______ _______ _______ _____ _____    ______ ____
ROOT
ATOM      1  C   UNL     1      -1.574   9.504  17.263  0.00  0.00    +0.000 C 
ATOM      2  C   UNL     1      -1.129  10.563  17.970  0.00  0.00    +0.000 C 
ATOM      3  C   UNL     1      -1.814  11.892  17.717  0.00  0.00    +0.000 C 
ATOM      4  C   UNL     1      -1.596  13.038  18.719  0.00  0.00    +0.000 C 
ATOM      5  C   UNL     1      -0.113  13.255  19.019  0.00  0.00    +0.000 C 
ATOM      6  C   UNL     1       0.338  14.565  19.902  0.00  0.00    +0.000 C 
ATOM      7  C   UNL     1      -0.429  15.818  19.441  0.00  0.00    +0.000 C 
ATOM      8  C   UNL     1       1.854  14.721  19.589  0.00  0.00    +0.000 C 
ATOM      9  C   UNL     1       2.656  13.439  19.871  0.00  0.00    +0.000 C 
ATOM     10  C   UNL     1       2.058  12.153  19.295  0.00  0.00    +0.000 C 
ATOM     11  C   UNL     1       0.529  11.920  19.522  0.00  0.00    +0.000 C 
ATOM     12  C   UNL     1       0.058  11.742  20.967  0.00  0.00    +0.000 C 
ATOM     13  C   UNL     1       0.157  10.506  18.786  0.00  0.00    +0.000 C 
ENDROOT
BRANCH   6  14
ATOM     14  C   UNL     1       0.159  14.643  21.481  0.00  0.00    +0.000 C 
ATOM     15  O   UNL     1       1.073  14.835  22.274  0.00  0.00    +0.000 OA
BRANCH  14  16
ATOM     16  O   UNL     1      -1.143  14.509  21.863  0.00  0.00    +0.000 OA
BRANCH  16  17
ATOM     17  C   UNL     1      -1.533  14.055  23.176  0.00  0.00    +0.000 C 
ATOM     18  O   UNL     1      -2.679  13.181  23.139  0.00  0.00    +0.000 OA
ATOM     19  C   UNL     1      -3.719  13.832  23.897  0.00  0.00    +0.000 C 
ATOM     20  C   UNL     1      -2.980  14.564  25.001  0.00  0.00    +0.000 C 
ATOM     21  C   UNL     1      -1.799  15.147  24.227  0.00  0.00    +0.000 C 
BRANCH  20  22
ATOM     22  O   UNL     1      -3.764  15.545  25.662  0.00  0.00    +0.000 OA
ATOM     23  H   UNL     1      -4.204  15.127  26.425  0.00  0.00    +0.000 HD
ENDBRANCH  20  22
BRANCH  21  24
ATOM     24  O   UNL     1      -0.661  15.385  25.070  0.00  0.00    +0.000 OA
ATOM     25  H   UNL     1      -0.465  16.340  25.090  0.00  0.00    +0.000 HD
ENDBRANCH  21  24
BRANCH  19  26
ATOM     26  C   UNL     1      -4.735  12.796  24.368  0.00  0.00    +0.000 C 
BRANCH  26  27
ATOM     27  O   UNL     1      -4.511  12.519  25.755  0.00  0.00    +0.000 OA
ATOM     28  H   UNL     1      -3.570  12.262  25.815  0.00  0.00    +0.000 HD
ENDBRANCH  26  27
ENDBRANCH  19  26
ENDBRANCH  16  17
ENDBRANCH  14  16
ENDBRANCH   6  14
BRANCH  13  29
ATOM     29  C   UNL     1       0.256   9.298  19.858  0.00  0.00    +0.000 C 
BRANCH  29  30
ATOM     30  C   UNL     1       1.574   8.650  20.294  0.00  0.00    +0.000 C 
BRANCH  30  31
ATOM     31  C   UNL     1       2.189   7.685  19.305  0.00  0.00    +0.000 C 
ATOM     32  C   UNL     1       2.779   7.826  18.112  0.00  0.00    +0.000 C 
ATOM     33  C   UNL     1       3.392   6.557  17.670  0.00  0.00    +0.000 C 
ATOM     34  O   UNL     1       3.060   5.623  18.693  0.00  0.00    +0.000 OA
ATOM     35  C   UNL     1       2.354   6.266  19.665  0.00  0.00    +0.000 C 
ATOM     36  O   UNL     1       1.942   5.762  20.690  0.00  0.00    +0.000 OA
ENDBRANCH  30  31
ENDBRANCH  29  30
ENDBRANCH  13  29
TORSDOF 10
ENDMDL
