MODEL 1
REMARK VINA RESULT:      -7.3      0.000      0.000
REMARK  Name = 
REMARK  6 active torsions:
REMARK  status: ('A' for Active; 'I' for Inactive)
REMARK    1  A    between atoms: C_1  and  N_2
REMARK    2  A    between atoms: C_5  and  C_6
REMARK    3  A    between atoms: C_7  and  C_8
REMARK    4  A    between atoms: N_11  and  C_12
REMARK    5  A    between atoms: C_15  and  O_16
REMARK    6  A    between atoms: C_21  and  C_22
REMARK                            x       y       z     vdW  Elec       q    Type
REMARK                         _______ _______ _______ _____ _____    ______ ____
ROOT
ATOM      1  C   UNL     1       1.395   9.421  19.063  0.00  0.00    +0.000 A 
ATOM      2  N   UNL     1       2.161   9.011  18.010  0.00  0.00    +0.000 NA
ATOM      3  C   UNL     1       2.812   7.841  18.121  0.00  0.00    +0.000 A 
ATOM      4  N   UNL     1       3.616   7.408  17.069  0.00  0.00    +0.000 N 
ATOM      5  N   UNL     1       2.704   7.050  19.200  0.00  0.00    +0.000 NA
ATOM      6  C   UNL     1       1.909   7.452  20.201  0.00  0.00    +0.000 A 
ATOM      7  C   UNL     1       1.210   8.633  20.187  0.00  0.00    +0.000 A 
ATOM      8  H   UNL     1       3.515   7.967  16.236  0.00  0.00    +0.000 HD
ENDROOT
BRANCH   1  15
ATOM      9  C   UNL     1      -0.603  15.302  19.161  0.00  0.00    +0.000 C 
ATOM     10  N   UNL     1       0.564  14.528  18.796  0.00  0.00    +0.000 N 
ATOM     11  C   UNL     1       0.432  13.186  18.722  0.00  0.00    +0.000 A 
ATOM     12  N   UNL     1      -0.695  12.540  18.551  0.00  0.00    +0.000 NA
ATOM     13  C   UNL     1      -0.492  11.165  18.594  0.00  0.00    +0.000 A 
ATOM     14  C   UNL     1      -1.682  10.302  18.375  0.00  0.00    +0.000 C 
ATOM     15  C   UNL     1       0.812  10.766  18.874  0.00  0.00    +0.000 A 
ATOM     16  S   UNL     1       1.806  12.180  18.874  0.00  0.00    +0.000 S 
ATOM     17  H   UNL     1       1.434  14.864  19.193  0.00  0.00    +0.000 HD
ENDBRANCH   1  15
BRANCH   4  18
ATOM     18  C   UNL     1       4.734   6.558  17.143  0.00  0.00    +0.000 A 
ATOM     19  C   UNL     1       6.010   7.090  17.372  0.00  0.00    +0.000 A 
ATOM     20  C   UNL     1       7.144   6.266  17.346  0.00  0.00    +0.000 A 
ATOM     21  C   UNL     1       7.002   4.902  17.101  0.00  0.00    +0.000 A 
ATOM     22  C   UNL     1       5.751   4.353  16.882  0.00  0.00    +0.000 A 
ATOM     23  C   UNL     1       4.629   5.180  16.898  0.00  0.00    +0.000 A 
BRANCH  21  24
ATOM     24  O   UNL     1       8.075   4.064  17.054  0.00  0.00    +0.000 OA
ATOM     25  H   UNL     1       8.021   3.448  17.801  0.00  0.00    +0.000 HD
ENDBRANCH  21  24
ENDBRANCH   4  18
BRANCH   7  26
ATOM     26  C   UNL     1       0.347   8.917  21.282  0.00  0.00    +0.000 C 
ATOM     27  N   UNL     1      -0.395   9.136  22.149  0.00  0.00    +0.000 NA
ENDBRANCH   7  26
TORSDOF 4
ENDMDL
MODEL 2
REMARK VINA RESULT:      -7.0      3.880      8.077
REMARK  Name = 
REMARK  6 active torsions:
REMARK  status: ('A' for Active; 'I' for Inactive)
REMARK    1  A    between atoms: C_1  and  N_2
REMARK    2  A    between atoms: C_5  and  C_6
REMARK    3  A    between atoms: C_7  and  C_8
REMARK    4  A    between atoms: N_11  and  C_12
REMARK    5  A    between atoms: C_15  and  O_16
REMARK    6  A    between atoms: C_21  and  C_22
REMARK                            x       y       z     vdW  Elec       q    Type
REMARK                         _______ _______ _______ _____ _____    ______ ____
ROOT
ATOM      1  C   UNL     1       2.603   6.629  19.066  0.00  0.00    +0.000 A 
ATOM      2  N   UNL     1       2.437   7.883  18.552  0.00  0.00    +0.000 NA
ATOM      3  C   UNL     1       1.646   8.739  19.219  0.00  0.00    +0.000 A 
ATOM      4  N   UNL     1       1.444  10.019  18.706  0.00  0.00    +0.000 N 
ATOM      5  N   UNL     1       1.052   8.424  20.381  0.00  0.00    +0.000 NA
ATOM      6  C   UNL     1       1.268   7.204  20.890  0.00  0.00    +0.000 A 
ATOM      7  C   UNL     1       2.052   6.256  20.281  0.00  0.00    +0.000 A 
ATOM      8  H   UNL     1       2.049  10.235  17.929  0.00  0.00    +0.000 HD
ENDROOT
BRANCH   1  15
ATOM      9  C   UNL     1       6.204   3.755  14.901  0.00  0.00    +0.000 C 
ATOM     10  N   UNL     1       6.308   4.504  16.134  0.00  0.00    +0.000 N 
ATOM     11  C   UNL     1       5.174   4.727  16.834  0.00  0.00    +0.000 A 
ATOM     12  N   UNL     1       4.075   4.021  16.746  0.00  0.00    +0.000 NA
ATOM     13  C   UNL     1       3.072   4.559  17.545  0.00  0.00    +0.000 A 
ATOM     14  C   UNL     1       1.774   3.835  17.575  0.00  0.00    +0.000 C 
ATOM     15  C   UNL     1       3.406   5.742  18.199  0.00  0.00    +0.000 A 
ATOM     16  S   UNL     1       5.088   6.034  17.933  0.00  0.00    +0.000 S 
ATOM     17  H   UNL     1       6.966   5.275  16.104  0.00  0.00    +0.000 HD
ENDBRANCH   1  15
BRANCH   4  18
ATOM     18  C   UNL     1       0.330  10.853  18.907  0.00  0.00    +0.000 A 
ATOM     19  C   UNL     1       0.411  11.938  19.790  0.00  0.00    +0.000 A 
ATOM     20  C   UNL     1      -0.720  12.714  20.077  0.00  0.00    +0.000 A 
ATOM     21  C   UNL     1      -1.937  12.413  19.470  0.00  0.00    +0.000 A 
ATOM     22  C   UNL     1      -2.039  11.353  18.586  0.00  0.00    +0.000 A 
ATOM     23  C   UNL     1      -0.913  10.578  18.315  0.00  0.00    +0.000 A 
BRANCH  21  24
ATOM     24  O   UNL     1      -3.066  13.130  19.726  0.00  0.00    +0.000 OA
ATOM     25  H   UNL     1      -2.914  13.680  20.510  0.00  0.00    +0.000 HD
ENDBRANCH  21  24
ENDBRANCH   4  18
BRANCH   7  26
ATOM     26  C   UNL     1       2.256   5.019  20.954  0.00  0.00    +0.000 C 
ATOM     27  N   UNL     1       2.382   4.018  21.529  0.00  0.00    +0.000 NA
ENDBRANCH   7  26
TORSDOF 4
ENDMDL
MODEL 3
REMARK VINA RESULT:      -7.0      3.939      8.180
REMARK  Name = 
REMARK  6 active torsions:
REMARK  status: ('A' for Active; 'I' for Inactive)
REMARK    1  A    between atoms: C_1  and  N_2
REMARK    2  A    between atoms: C_5  and  C_6
REMARK    3  A    between atoms: C_7  and  C_8
REMARK    4  A    between atoms: N_11  and  C_12
REMARK    5  A    between atoms: C_15  and  O_16
REMARK    6  A    between atoms: C_21  and  C_22
REMARK                            x       y       z     vdW  Elec       q    Type
REMARK                         _______ _______ _______ _____ _____    ______ ____
ROOT
ATOM      1  C   UNL     1       2.591   6.334  19.279  0.00  0.00    +0.000 A 
ATOM      2  N   UNL     1       2.438   7.609  18.816  0.00  0.00    +0.000 NA
ATOM      3  C   UNL     1       1.638   8.440  19.505  0.00  0.00    +0.000 A 
ATOM      4  N   UNL     1       1.450   9.741  19.044  0.00  0.00    +0.000 N 
ATOM      5  N   UNL     1       1.024   8.078  20.643  0.00  0.00    +0.000 NA
ATOM      6  C   UNL     1       1.227   6.836  21.103  0.00  0.00    +0.000 A 
ATOM      7  C   UNL     1       2.018   5.912  20.468  0.00  0.00    +0.000 A 
ATOM      8  H   UNL     1       2.069   9.987  18.288  0.00  0.00    +0.000 HD
ENDROOT
BRANCH   1  15
ATOM      9  C   UNL     1       6.336   3.631  15.126  0.00  0.00    +0.000 C 
ATOM     10  N   UNL     1       6.385   4.248  16.434  0.00  0.00    +0.000 N 
ATOM     11  C   UNL     1       5.213   4.481  17.065  0.00  0.00    +0.000 A 
ATOM     12  N   UNL     1       4.082   3.867  16.821  0.00  0.00    +0.000 NA
ATOM     13  C   UNL     1       3.053   4.395  17.593  0.00  0.00    +0.000 A 
ATOM     14  C   UNL     1       1.714   3.765  17.450  0.00  0.00    +0.000 C 
ATOM     15  C   UNL     1       3.405   5.481  18.389  0.00  0.00    +0.000 A 
ATOM     16  S   UNL     1       5.119   5.677  18.283  0.00  0.00    +0.000 S 
ATOM     17  H   UNL     1       7.090   4.969  16.534  0.00  0.00    +0.000 HD
ENDBRANCH   1  15
BRANCH   4  18
ATOM     18  C   UNL     1       0.336  10.570  19.261  0.00  0.00    +0.000 A 
ATOM     19  C   UNL     1      -0.821  10.415  18.486  0.00  0.00    +0.000 A 
ATOM     20  C   UNL     1      -1.899  11.301  18.623  0.00  0.00    +0.000 A 
ATOM     21  C   UNL     1      -1.826  12.341  19.546  0.00  0.00    +0.000 A 
ATOM     22  C   UNL     1      -0.698  12.508  20.329  0.00  0.00    +0.000 A 
ATOM     23  C   UNL     1       0.375  11.631  20.180  0.00  0.00    +0.000 A 
BRANCH  21  24
ATOM     24  O   UNL     1      -2.842  13.233  19.706  0.00  0.00    +0.000 OA
ATOM     25  H   UNL     1      -2.731  13.681  20.559  0.00  0.00    +0.000 HD
ENDBRANCH  21  24
ENDBRANCH   4  18
BRANCH   7  26
ATOM     26  C   UNL     1       2.206   4.646  21.091  0.00  0.00    +0.000 C 
ATOM     27  N   UNL     1       2.316   3.618  21.619  0.00  0.00    +0.000 NA
ENDBRANCH   7  26
TORSDOF 4
ENDMDL
MODEL 4
REMARK VINA RESULT:      -6.9      1.623      2.075
REMARK  Name = 
REMARK  6 active torsions:
REMARK  status: ('A' for Active; 'I' for Inactive)
REMARK    1  A    between atoms: C_1  and  N_2
REMARK    2  A    between atoms: C_5  and  C_6
REMARK    3  A    between atoms: C_7  and  C_8
REMARK    4  A    between atoms: N_11  and  C_12
REMARK    5  A    between atoms: C_15  and  O_16
REMARK    6  A    between atoms: C_21  and  C_22
REMARK                            x       y       z     vdW  Elec       q    Type
REMARK                         _______ _______ _______ _____ _____    ______ ____
ROOT
ATOM      1  C   UNL     1       0.896  10.419  19.671  0.00  0.00    +0.000 A 
ATOM      2  N   UNL     1       1.390   9.626  18.676  0.00  0.00    +0.000 NA
ATOM      3  C   UNL     1       1.727   8.363  18.984  0.00  0.00    +0.000 A 
ATOM      4  N   UNL     1       2.251   7.538  17.991  0.00  0.00    +0.000 N 
ATOM      5  N   UNL     1       1.558   7.845  20.210  0.00  0.00    +0.000 NA
ATOM      6  C   UNL     1       1.027   8.628  21.159  0.00  0.00    +0.000 A 
ATOM      7  C   UNL     1       0.659   9.933  20.947  0.00  0.00    +0.000 A 
ATOM      8  H   UNL     1       2.192   7.940  17.068  0.00  0.00    +0.000 HD
ENDROOT
BRANCH   1  15
ATOM      9  C   UNL     1       0.164  16.531  18.842  0.00  0.00    +0.000 C 
ATOM     10  N   UNL     1       1.203  15.525  18.845  0.00  0.00    +0.000 N 
ATOM     11  C   UNL     1       0.824  14.228  18.833  0.00  0.00    +0.000 A 
ATOM     12  N   UNL     1      -0.335  13.777  18.423  0.00  0.00    +0.000 NA
ATOM     13  C   UNL     1      -0.431  12.403  18.613  0.00  0.00    +0.000 A 
ATOM     14  C   UNL     1      -1.684  11.746  18.155  0.00  0.00    +0.000 C 
ATOM     15  C   UNL     1       0.660  11.814  19.246  0.00  0.00    +0.000 A 
ATOM     16  S   UNL     1       1.890  13.018  19.403  0.00  0.00    +0.000 S 
ATOM     17  H   UNL     1       2.003  15.745  19.428  0.00  0.00    +0.000 HD
ENDBRANCH   1  15
BRANCH   4  18
ATOM     18  C   UNL     1       3.113   6.440  18.161  0.00  0.00    +0.000 A 
ATOM     19  C   UNL     1       2.589   5.165  18.414  0.00  0.00    +0.000 A 
ATOM     20  C   UNL     1       3.438   4.083  18.687  0.00  0.00    +0.000 A 
ATOM     21  C   UNL     1       4.817   4.273  18.696  0.00  0.00    +0.000 A 
ATOM     22  C   UNL     1       5.358   5.520  18.439  0.00  0.00    +0.000 A 
ATOM     23  C   UNL     1       4.508   6.594  18.180  0.00  0.00    +0.000 A 
BRANCH  21  24
ATOM     24  O   UNL     1       5.681   3.255  18.967  0.00  0.00    +0.000 OA
ATOM     25  H   UNL     1       5.938   3.306  19.901  0.00  0.00    +0.000 HD
ENDBRANCH  21  24
ENDBRANCH   4  18
BRANCH   7  26
ATOM     26  C   UNL     1       0.046  10.642  22.018  0.00  0.00    +0.000 C 
ATOM     27  N   UNL     1      -0.412  11.217  22.917  0.00  0.00    +0.000 NA
ENDBRANCH   7  26
TORSDOF 4
ENDMDL
MODEL 5
REMARK VINA RESULT:      -6.9      3.812      8.150
REMARK  Name = 
REMARK  6 active torsions:
REMARK  status: ('A' for Active; 'I' for Inactive)
REMARK    1  A    between atoms: C_1  and  N_2
REMARK    2  A    between atoms: C_5  and  C_6
REMARK    3  A    between atoms: C_7  and  C_8
REMARK    4  A    between atoms: N_11  and  C_12
REMARK    5  A    between atoms: C_15  and  O_16
REMARK    6  A    between atoms: C_21  and  C_22
REMARK                            x       y       z     vdW  Elec       q    Type
REMARK                         _______ _______ _______ _____ _____    ______ ____
ROOT
ATOM      1  C   UNL     1       3.228   6.560  18.428  0.00  0.00    +0.000 A 
ATOM      2  N   UNL     1       2.864   7.808  18.010  0.00  0.00    +0.000 NA
ATOM      3  C   UNL     1       1.951   8.475  18.734  0.00  0.00    +0.000 A 
ATOM      4  N   UNL     1       1.548   9.742  18.319  0.00  0.00    +0.000 N 
ATOM      5  N   UNL     1       1.420   7.983  19.864  0.00  0.00    +0.000 NA
ATOM      6  C   UNL     1       1.828   6.776  20.280  0.00  0.00    +0.000 A 
ATOM      7  C   UNL     1       2.749   6.013  19.607  0.00  0.00    +0.000 A 
ATOM      8  H   UNL     1       2.107  10.110  17.565  0.00  0.00    +0.000 HD
ENDROOT
BRANCH   1  15
ATOM      9  C   UNL     1       7.084   4.564  13.986  0.00  0.00    +0.000 C 
ATOM     10  N   UNL     1       7.094   5.357  15.196  0.00  0.00    +0.000 N 
ATOM     11  C   UNL     1       6.005   5.305  15.993  0.00  0.00    +0.000 A 
ATOM     12  N   UNL     1       5.122   4.338  16.014  0.00  0.00    +0.000 NA
ATOM     13  C   UNL     1       4.086   4.629  16.894  0.00  0.00    +0.000 A 
ATOM     14  C   UNL     1       3.027   3.597  17.050  0.00  0.00    +0.000 C 
ATOM     15  C   UNL     1       4.156   5.879  17.502  0.00  0.00    +0.000 A 
ATOM     16  S   UNL     1       5.677   6.584  17.081  0.00  0.00    +0.000 S 
ATOM     17  H   UNL     1       7.526   6.270  15.098  0.00  0.00    +0.000 HD
ENDBRANCH   1  15
BRANCH   4  18
ATOM     18  C   UNL     1       0.317  10.372  18.574  0.00  0.00    +0.000 A 
ATOM     19  C   UNL     1      -0.826  10.006  17.852  0.00  0.00    +0.000 A 
ATOM     20  C   UNL     1      -2.034  10.697  18.025  0.00  0.00    +0.000 A 
ATOM     21  C   UNL     1      -2.103  11.752  18.931  0.00  0.00    +0.000 A 
ATOM     22  C   UNL     1      -0.990  12.125  19.663  0.00  0.00    +0.000 A 
ATOM     23  C   UNL     1       0.211  11.442  19.478  0.00  0.00    +0.000 A 
BRANCH  21  24
ATOM     24  O   UNL     1      -3.251  12.460  19.125  0.00  0.00    +0.000 OA
ATOM     25  H   UNL     1      -3.038  13.270  19.614  0.00  0.00    +0.000 HD
ENDBRANCH  21  24
ENDBRANCH   4  18
BRANCH   7  26
ATOM     26  C   UNL     1       3.149   4.776  20.185  0.00  0.00    +0.000 C 
ATOM     27  N   UNL     1       3.437   3.744  20.635  0.00  0.00    +0.000 NA
ENDBRANCH   7  26
TORSDOF 4
ENDMDL
MODEL 6
REMARK VINA RESULT:      -6.8      0.579      1.127
REMARK  Name = 
REMARK  6 active torsions:
REMARK  status: ('A' for Active; 'I' for Inactive)
REMARK    1  A    between atoms: C_1  and  N_2
REMARK    2  A    between atoms: C_5  and  C_6
REMARK    3  A    between atoms: C_7  and  C_8
REMARK    4  A    between atoms: N_11  and  C_12
REMARK    5  A    between atoms: C_15  and  O_16
REMARK    6  A    between atoms: C_21  and  C_22
REMARK                            x       y       z     vdW  Elec       q    Type
REMARK                         _______ _______ _______ _____ _____    ______ ____
ROOT
ATOM      1  C   UNL     1       1.188   9.754  19.301  0.00  0.00    +0.000 A 
ATOM      2  N   UNL     1       1.876   9.255  18.232  0.00  0.00    +0.000 NA
ATOM      3  C   UNL     1       2.477   8.062  18.370  0.00  0.00    +0.000 A 
ATOM      4  N   UNL     1       3.201   7.538  17.300  0.00  0.00    +0.000 N 
ATOM      5  N   UNL     1       2.393   7.332  19.493  0.00  0.00    +0.000 NA
ATOM      6  C   UNL     1       1.674   7.821  20.512  0.00  0.00    +0.000 A 
ATOM      7  C   UNL     1       1.030   9.033  20.473  0.00  0.00    +0.000 A 
ATOM      8  H   UNL     1       3.079   8.059  16.446  0.00  0.00    +0.000 HD
ENDROOT
BRANCH   1  15
ATOM      9  C   UNL     1      -0.712  15.667  19.295  0.00  0.00    +0.000 C 
ATOM     10  N   UNL     1       0.482  14.882  19.072  0.00  0.00    +0.000 N 
ATOM     11  C   UNL     1       0.341  13.544  18.941  0.00  0.00    +0.000 A 
ATOM     12  N   UNL     1      -0.761  12.925  18.598  0.00  0.00    +0.000 NA
ATOM     13  C   UNL     1      -0.588  11.546  18.628  0.00  0.00    +0.000 A 
ATOM     14  C   UNL     1      -1.749  10.713  18.221  0.00  0.00    +0.000 C 
ATOM     15  C   UNL     1       0.659  11.115  19.073  0.00  0.00    +0.000 A 
ATOM     16  S   UNL     1       1.665  12.508  19.251  0.00  0.00    +0.000 S 
ATOM     17  H   UNL     1       1.294  15.190  19.595  0.00  0.00    +0.000 HD
ENDBRANCH   1  15
BRANCH   4  18
ATOM     18  C   UNL     1       4.280   6.640  17.359  0.00  0.00    +0.000 A 
ATOM     19  C   UNL     1       4.047   5.264  17.493  0.00  0.00    +0.000 A 
ATOM     20  C   UNL     1       5.114   4.369  17.656  0.00  0.00    +0.000 A 
ATOM     21  C   UNL     1       6.421   4.849  17.675  0.00  0.00    +0.000 A 
ATOM     22  C   UNL     1       6.677   6.201  17.534  0.00  0.00    +0.000 A 
ATOM     23  C   UNL     1       5.611   7.087  17.384  0.00  0.00    +0.000 A 
BRANCH  21  24
ATOM     24  O   UNL     1       7.489   4.020  17.842  0.00  0.00    +0.000 OA
ATOM     25  H   UNL     1       7.719   3.631  16.983  0.00  0.00    +0.000 HD
ENDBRANCH  21  24
ENDBRANCH   4  18
BRANCH   7  26
ATOM     26  C   UNL     1       0.244   9.413  21.596  0.00  0.00    +0.000 C 
ATOM     27  N   UNL     1      -0.438   9.720  22.485  0.00  0.00    +0.000 NA
ENDBRANCH   7  26
TORSDOF 4
ENDMDL
MODEL 7
REMARK VINA RESULT:      -6.8      3.768      8.065
REMARK  Name = 
REMARK  6 active torsions:
REMARK  status: ('A' for Active; 'I' for Inactive)
REMARK    1  A    between atoms: C_1  and  N_2
REMARK    2  A    between atoms: C_5  and  C_6
REMARK    3  A    between atoms: C_7  and  C_8
REMARK    4  A    between atoms: N_11  and  C_12
REMARK    5  A    between atoms: C_15  and  O_16
REMARK    6  A    between atoms: C_21  and  C_22
REMARK                            x       y       z     vdW  Elec       q    Type
REMARK                         _______ _______ _______ _____ _____    ______ ____
ROOT
ATOM      1  C   UNL     1       3.224   6.793  18.311  0.00  0.00    +0.000 A 
ATOM      2  N   UNL     1       2.878   8.024  17.832  0.00  0.00    +0.000 NA
ATOM      3  C   UNL     1       1.965   8.734  18.517  0.00  0.00    +0.000 A 
ATOM      4  N   UNL     1       1.580   9.985  18.040  0.00  0.00    +0.000 N 
ATOM      5  N   UNL     1       1.420   8.300  19.664  0.00  0.00    +0.000 NA
ATOM      6  C   UNL     1       1.811   7.109  20.138  0.00  0.00    +0.000 A 
ATOM      7  C   UNL     1       2.729   6.306  19.509  0.00  0.00    +0.000 A 
ATOM      8  H   UNL     1       2.150  10.311  17.276  0.00  0.00    +0.000 HD
ENDROOT
BRANCH   1  15
ATOM      9  C   UNL     1       7.112   4.562  14.011  0.00  0.00    +0.000 C 
ATOM     10  N   UNL     1       7.119   5.394  15.194  0.00  0.00    +0.000 N 
ATOM     11  C   UNL     1       6.015   5.394  15.972  0.00  0.00    +0.000 A 
ATOM     12  N   UNL     1       5.108   4.450  16.006  0.00  0.00    +0.000 NA
ATOM     13  C   UNL     1       4.063   4.793  16.857  0.00  0.00    +0.000 A 
ATOM     14  C   UNL     1       2.977   3.793  17.026  0.00  0.00    +0.000 C 
ATOM     15  C   UNL     1       4.153   6.061  17.425  0.00  0.00    +0.000 A 
ATOM     16  S   UNL     1       5.698   6.715  17.011  0.00  0.00    +0.000 S 
ATOM     17  H   UNL     1       7.574   6.293  15.075  0.00  0.00    +0.000 HD
ENDBRANCH   1  15
BRANCH   4  18
ATOM     18  C   UNL     1       0.355  10.639  18.255  0.00  0.00    +0.000 A 
ATOM     19  C   UNL     1       0.306  11.810  19.024  0.00  0.00    +0.000 A 
ATOM     20  C   UNL     1      -0.922  12.414  19.332  0.00  0.00    +0.000 A 
ATOM     21  C   UNL     1      -2.105  11.853  18.860  0.00  0.00    +0.000 A 
ATOM     22  C   UNL     1      -2.081  10.703  18.090  0.00  0.00    +0.000 A 
ATOM     23  C   UNL     1      -0.859  10.101  17.798  0.00  0.00    +0.000 A 
BRANCH  21  24
ATOM     24  O   UNL     1      -3.322  12.397  19.142  0.00  0.00    +0.000 OA
ATOM     25  H   UNL     1      -3.933  11.684  19.386  0.00  0.00    +0.000 HD
ENDBRANCH  21  24
ENDBRANCH   4  18
BRANCH   7  26
ATOM     26  C   UNL     1       3.110   5.093  20.147  0.00  0.00    +0.000 C 
ATOM     27  N   UNL     1       3.439   4.086  20.625  0.00  0.00    +0.000 NA
ENDBRANCH   7  26
TORSDOF 4
ENDMDL
MODEL 8
REMARK VINA RESULT:      -6.7      1.241      1.357
REMARK  Name = 
REMARK  6 active torsions:
REMARK  status: ('A' for Active; 'I' for Inactive)
REMARK    1  A    between atoms: C_1  and  N_2
REMARK    2  A    between atoms: C_5  and  C_6
REMARK    3  A    between atoms: C_7  and  C_8
REMARK    4  A    between atoms: N_11  and  C_12
REMARK    5  A    between atoms: C_15  and  O_16
REMARK    6  A    between atoms: C_21  and  C_22
REMARK                            x       y       z     vdW  Elec       q    Type
REMARK                         _______ _______ _______ _____ _____    ______ ____
ROOT
ATOM      1  C   UNL     1       0.852  10.051  19.957  0.00  0.00    +0.000 A 
ATOM      2  N   UNL     1       1.344   9.485  18.816  0.00  0.00    +0.000 NA
ATOM      3  C   UNL     1       1.903   8.267  18.906  0.00  0.00    +0.000 A 
ATOM      4  N   UNL     1       2.429   7.674  17.760  0.00  0.00    +0.000 N 
ATOM      5  N   UNL     1       1.957   7.576  20.055  0.00  0.00    +0.000 NA
ATOM      6  C   UNL     1       1.426   8.133  21.152  0.00  0.00    +0.000 A 
ATOM      7  C   UNL     1       0.841   9.374  21.165  0.00  0.00    +0.000 A 
ATOM      8  H   UNL     1       2.203   8.174  16.915  0.00  0.00    +0.000 HD
ENDROOT
BRANCH   1  15
ATOM      9  C   UNL     1      -1.015  15.972  20.126  0.00  0.00    +0.000 C 
ATOM     10  N   UNL     1       0.194  15.190  19.995  0.00  0.00    +0.000 N 
ATOM     11  C   UNL     1       0.065  13.866  19.757  0.00  0.00    +0.000 A 
ATOM     12  N   UNL     1      -0.989  13.284  19.242  0.00  0.00    +0.000 NA
ATOM     13  C   UNL     1      -0.825  11.904  19.199  0.00  0.00    +0.000 A 
ATOM     14  C   UNL     1      -1.932  11.113  18.600  0.00  0.00    +0.000 C 
ATOM     15  C   UNL     1       0.357  11.430  19.760  0.00  0.00    +0.000 A 
ATOM     16  S   UNL     1       1.339  12.796  20.152  0.00  0.00    +0.000 S 
ATOM     17  H   UNL     1       0.938  15.453  20.631  0.00  0.00    +0.000 HD
ENDBRANCH   1  15
BRANCH   4  18
ATOM     18  C   UNL     1       3.462   6.723  17.689  0.00  0.00    +0.000 A 
ATOM     19  C   UNL     1       4.769   7.122  17.378  0.00  0.00    +0.000 A 
ATOM     20  C   UNL     1       5.786   6.173  17.204  0.00  0.00    +0.000 A 
ATOM     21  C   UNL     1       5.499   4.819  17.351  0.00  0.00    +0.000 A 
ATOM     22  C   UNL     1       4.218   4.401  17.667  0.00  0.00    +0.000 A 
ATOM     23  C   UNL     1       3.209   5.349  17.828  0.00  0.00    +0.000 A 
BRANCH  21  24
ATOM     24  O   UNL     1       6.450   3.859  17.180  0.00  0.00    +0.000 OA
ATOM     25  H   UNL     1       6.024   2.988  17.215  0.00  0.00    +0.000 HD
ENDBRANCH  21  24
ENDBRANCH   4  18
BRANCH   7  26
ATOM     26  C   UNL     1       0.254   9.829  22.379  0.00  0.00    +0.000 C 
ATOM     27  N   UNL     1      -0.207  10.160  23.393  0.00  0.00    +0.000 NA
ENDBRANCH   7  26
TORSDOF 4
ENDMDL
MODEL 9
REMARK VINA RESULT:      -6.4      1.790      2.531
REMARK  Name = 
REMARK  6 active torsions:
REMARK  status: ('A' for Active; 'I' for Inactive)
REMARK    1  A    between atoms: C_1  and  N_2
REMARK    2  A    between atoms: C_5  and  C_6
REMARK    3  A    between atoms: C_7  and  C_8
REMARK    4  A    between atoms: N_11  and  C_12
REMARK    5  A    between atoms: C_15  and  O_16
REMARK    6  A    between atoms: C_21  and  C_22
REMARK                            x       y       z     vdW  Elec       q    Type
REMARK                         _______ _______ _______ _____ _____    ______ ____
ROOT
ATOM      1  C   UNL     1       0.818  10.943  19.945  0.00  0.00    +0.000 A 
ATOM      2  N   UNL     1       1.322  10.320  18.840  0.00  0.00    +0.000 NA
ATOM      3  C   UNL     1       1.600   9.008  18.928  0.00  0.00    +0.000 A 
ATOM      4  N   UNL     1       2.133   8.351  17.821  0.00  0.00    +0.000 N 
ATOM      5  N   UNL     1       1.363   8.288  20.035  0.00  0.00    +0.000 NA
ATOM      6  C   UNL     1       0.824   8.913  21.091  0.00  0.00    +0.000 A 
ATOM      7  C   UNL     1       0.513  10.249  21.104  0.00  0.00    +0.000 A 
ATOM      8  H   UNL     1       2.125   8.913  16.984  0.00  0.00    +0.000 HD
ENDROOT
BRANCH   1  15
ATOM      9  C   UNL     1      -0.081  16.843  18.223  0.00  0.00    +0.000 C 
ATOM     10  N   UNL     1      -0.832  15.671  18.615  0.00  0.00    +0.000 N 
ATOM     11  C   UNL     1      -0.152  14.639  19.160  0.00  0.00    +0.000 A 
ATOM     12  N   UNL     1       1.021  14.721  19.736  0.00  0.00    +0.000 NA
ATOM     13  C   UNL     1       1.474  13.465  20.124  0.00  0.00    +0.000 A 
ATOM     14  C   UNL     1       2.781  13.409  20.830  0.00  0.00    +0.000 C 
ATOM     15  C   UNL     1       0.649  12.401  19.769  0.00  0.00    +0.000 A 
ATOM     16  S   UNL     1      -0.808  13.061  19.115  0.00  0.00    +0.000 S 
ATOM     17  H   UNL     1      -1.581  15.418  17.979  0.00  0.00    +0.000 HD
ENDBRANCH   1  15
BRANCH   4  18
ATOM     18  C   UNL     1       2.946   7.205  17.819  0.00  0.00    +0.000 A 
ATOM     19  C   UNL     1       4.278   7.285  17.389  0.00  0.00    +0.000 A 
ATOM     20  C   UNL     1       5.068   6.131  17.286  0.00  0.00    +0.000 A 
ATOM     21  C   UNL     1       4.529   4.892  17.623  0.00  0.00    +0.000 A 
ATOM     22  C   UNL     1       3.220   4.790  18.060  0.00  0.00    +0.000 A 
ATOM     23  C   UNL     1       2.436   5.939  18.150  0.00  0.00    +0.000 A 
BRANCH  21  24
ATOM     24  O   UNL     1       5.253   3.742  17.528  0.00  0.00    +0.000 OA
ATOM     25  H   UNL     1       6.188   3.950  17.683  0.00  0.00    +0.000 HD
ENDBRANCH  21  24
ENDBRANCH   4  18
BRANCH   7  26
ATOM     26  C   UNL     1      -0.116  10.782  22.264  0.00  0.00    +0.000 C 
ATOM     27  N   UNL     1      -0.672  11.221  23.185  0.00  0.00    +0.000 NA
ENDBRANCH   7  26
TORSDOF 4
ENDMDL
