MODEL 1
REMARK VINA RESULT:      -7.5      0.000      0.000
REMARK  Name = 
REMARK  10 active torsions:
REMARK  status: ('A' for Active; 'I' for Inactive)
REMARK    1  A    between atoms: C_1  and  C_2
REMARK    2  A    between atoms: C_2  and  N_3
REMARK    3  A    between atoms: C_7  and  O_8
REMARK    4  A    between atoms: C_14  and  C_15
REMARK    5  A    between atoms: N_17  and  C_18
REMARK    6  A    between atoms: C_18  and  C_19
REMARK    7  A    between atoms: C_19  and  N_20
REMARK    8  A    between atoms: N_20  and  C_21
REMARK    9  A    between atoms: N_20  and  C_22
REMARK   10  A    between atoms: C_27  and  C_28
REMARK                            x       y       z     vdW  Elec       q    Type
REMARK                         _______ _______ _______ _____ _____    ______ ____
ROOT
ATOM      1  N   UNL     1       3.878   3.934  18.630  0.00  0.00    +0.000 N 
ATOM      2  C   UNL     1       4.627   4.178  17.482  0.00  0.00    +0.000 A 
ATOM      3  C   UNL     1       5.454   3.352  16.695  0.00  0.00    +0.000 A 
ATOM      4  C   UNL     1       6.073   3.907  15.566  0.00  0.00    +0.000 A 
ATOM      5  C   UNL     1       5.864   5.238  15.230  0.00  0.00    +0.000 A 
ATOM      6  C   UNL     1       5.044   6.049  16.002  0.00  0.00    +0.000 A 
ATOM      7  C   UNL     1       4.421   5.508  17.145  0.00  0.00    +0.000 A 
ATOM      8  C   UNL     1       3.549   6.058  18.121  0.00  0.00    +0.000 A 
ATOM      9  C   UNL     1       3.024   7.349  18.242  0.00  0.00    +0.000 A 
ATOM     10  C   UNL     1       2.161   7.730  19.279  0.00  0.00    +0.000 A 
ATOM     11  C   UNL     1       1.610   9.037  19.395  0.00  0.00    +0.000 A 
ATOM     12  N   UNL     1       0.766   9.425  20.392  0.00  0.00    +0.000 NA
ATOM     13  C   UNL     1       0.458   8.488  21.299  0.00  0.00    +0.000 A 
ATOM     14  C   UNL     1       0.947   7.188  21.269  0.00  0.00    +0.000 A 
ATOM     15  C   UNL     1       1.829   6.757  20.251  0.00  0.00    +0.000 A 
ATOM     16  C   UNL     1       2.376   5.409  20.175  0.00  0.00    +0.000 A 
ATOM     17  C   UNL     1       2.069   4.390  21.246  0.00  0.00    +0.000 C 
ATOM     18  C   UNL     1       3.225   5.089  19.066  0.00  0.00    +0.000 A 
ENDROOT
BRANCH  11  19
ATOM     19  C   UNL     1       1.907  10.137  18.389  0.00  0.00    +0.000 C 
ATOM     20  O   UNL     1       2.145   9.936  17.200  0.00  0.00    +0.000 OA
ATOM     21  N   UNL     1       1.899  11.430  18.872  0.00  0.00    +0.000 N 
ATOM     22  H   UNL     1       1.783  11.583  19.870  0.00  0.00    +0.000 HD
BRANCH  21  23
ATOM     23  C   UNL     1       2.193  12.512  17.960  0.00  0.00    +0.000 C 
BRANCH  23  24
ATOM     24  C   UNL     1       1.950  13.911  18.533  0.00  0.00    +0.000 C 
BRANCH  24  25
ATOM     25  N   UNL     1       2.839  14.966  18.004  0.00  0.00    +0.000 NA
ATOM     26  C   UNL     1       2.523  16.281  18.570  0.00  0.00    +0.000 C 
ATOM     27  C   UNL     1       4.231  14.622  18.306  0.00  0.00    +0.000 C 
ENDBRANCH  24  25
ENDBRANCH  23  24
ENDBRANCH  21  23
ENDBRANCH  11  19
BRANCH   1  29
ATOM     28  C   UNL     1       2.669   1.781  18.589  0.00  0.00    +0.000 C 
ATOM     29  C   UNL     1       3.780   2.607  19.218  0.00  0.00    +0.000 C 
ENDBRANCH   1  29
BRANCH   5  30
ATOM     30  O   UNL     1       6.448   5.801  14.134  0.00  0.00    +0.000 OA
ATOM     31  H   UNL     1       7.389   5.575  14.133  0.00  0.00    +0.000 HD
ENDBRANCH   5  30
TORSDOF 6
ENDMDL
MODEL 2
REMARK VINA RESULT:      -7.4      3.169      5.251
REMARK  Name = 
REMARK  10 active torsions:
REMARK  status: ('A' for Active; 'I' for Inactive)
REMARK    1  A    between atoms: C_1  and  C_2
REMARK    2  A    between atoms: C_2  and  N_3
REMARK    3  A    between atoms: C_7  and  O_8
REMARK    4  A    between atoms: C_14  and  C_15
REMARK    5  A    between atoms: N_17  and  C_18
REMARK    6  A    between atoms: C_18  and  C_19
REMARK    7  A    between atoms: C_19  and  N_20
REMARK    8  A    between atoms: N_20  and  C_21
REMARK    9  A    between atoms: N_20  and  C_22
REMARK   10  A    between atoms: C_27  and  C_28
REMARK                            x       y       z     vdW  Elec       q    Type
REMARK                         _______ _______ _______ _____ _____    ______ ____
ROOT
ATOM      1  N   UNL     1       3.741   4.931  18.418  0.00  0.00    +0.000 N 
ATOM      2  C   UNL     1       3.273   4.034  19.376  0.00  0.00    +0.000 A 
ATOM      3  C   UNL     1       3.561   2.678  19.626  0.00  0.00    +0.000 A 
ATOM      4  C   UNL     1       2.918   2.046  20.700  0.00  0.00    +0.000 A 
ATOM      5  C   UNL     1       2.027   2.747  21.501  0.00  0.00    +0.000 A 
ATOM      6  C   UNL     1       1.748   4.085  21.257  0.00  0.00    +0.000 A 
ATOM      7  C   UNL     1       2.380   4.733  20.176  0.00  0.00    +0.000 A 
ATOM      8  C   UNL     1       2.311   6.057  19.671  0.00  0.00    +0.000 A 
ATOM      9  C   UNL     1       1.571   7.159  20.114  0.00  0.00    +0.000 A 
ATOM     10  C   UNL     1       1.623   8.415  19.494  0.00  0.00    +0.000 A 
ATOM     11  C   UNL     1       0.886   9.543  19.953  0.00  0.00    +0.000 A 
ATOM     12  N   UNL     1       0.927  10.773  19.368  0.00  0.00    +0.000 NA
ATOM     13  C   UNL     1       1.724  10.887  18.296  0.00  0.00    +0.000 A 
ATOM     14  C   UNL     1       2.479   9.844  17.776  0.00  0.00    +0.000 A 
ATOM     15  C   UNL     1       2.454   8.555  18.357  0.00  0.00    +0.000 A 
ATOM     16  C   UNL     1       3.221   7.426  17.849  0.00  0.00    +0.000 A 
ATOM     17  C   UNL     1       4.059   7.561  16.601  0.00  0.00    +0.000 C 
ATOM     18  C   UNL     1       3.138   6.184  18.559  0.00  0.00    +0.000 A 
ENDROOT
BRANCH  11  19
ATOM     19  C   UNL     1      -0.021   9.480  21.171  0.00  0.00    +0.000 C 
ATOM     20  O   UNL     1      -0.550   8.450  21.583  0.00  0.00    +0.000 OA
ATOM     21  N   UNL     1      -0.243  10.670  21.833  0.00  0.00    +0.000 N 
ATOM     22  H   UNL     1       0.130  11.531  21.441  0.00  0.00    +0.000 HD
BRANCH  21  23
ATOM     23  C   UNL     1      -1.112  10.669  22.989  0.00  0.00    +0.000 C 
BRANCH  23  24
ATOM     24  C   UNL     1      -1.803  12.006  23.267  0.00  0.00    +0.000 C 
BRANCH  24  25
ATOM     25  N   UNL     1      -3.278  11.974  23.203  0.00  0.00    +0.000 NA
ATOM     26  C   UNL     1      -3.891  12.517  24.419  0.00  0.00    +0.000 C 
ATOM     27  C   UNL     1      -3.730  12.741  22.039  0.00  0.00    +0.000 C 
ENDBRANCH  24  25
ENDBRANCH  23  24
ENDBRANCH  21  23
ENDBRANCH  11  19
BRANCH   1  29
ATOM     28  C   UNL     1       6.172   4.810  18.003  0.00  0.00    +0.000 C 
ATOM     29  C   UNL     1       4.772   4.566  17.461  0.00  0.00    +0.000 C 
ENDBRANCH   1  29
BRANCH   5  30
ATOM     30  O   UNL     1       1.393   2.158  22.555  0.00  0.00    +0.000 OA
ATOM     31  H   UNL     1       0.875   2.830  23.021  0.00  0.00    +0.000 HD
ENDBRANCH   5  30
TORSDOF 6
ENDMDL
MODEL 3
REMARK VINA RESULT:      -6.6      2.326      7.726
REMARK  Name = 
REMARK  10 active torsions:
REMARK  status: ('A' for Active; 'I' for Inactive)
REMARK    1  A    between atoms: C_1  and  C_2
REMARK    2  A    between atoms: C_2  and  N_3
REMARK    3  A    between atoms: C_7  and  O_8
REMARK    4  A    between atoms: C_14  and  C_15
REMARK    5  A    between atoms: N_17  and  C_18
REMARK    6  A    between atoms: C_18  and  C_19
REMARK    7  A    between atoms: C_19  and  N_20
REMARK    8  A    between atoms: N_20  and  C_21
REMARK    9  A    between atoms: N_20  and  C_22
REMARK   10  A    between atoms: C_27  and  C_28
REMARK                            x       y       z     vdW  Elec       q    Type
REMARK                         _______ _______ _______ _____ _____    ______ ____
ROOT
ATOM      1  N   UNL     1       1.444   7.828  20.313  0.00  0.00    +0.000 N 
ATOM      2  C   UNL     1       1.563   9.044  19.644  0.00  0.00    +0.000 A 
ATOM      3  C   UNL     1       1.072  10.333  19.926  0.00  0.00    +0.000 A 
ATOM      4  C   UNL     1       1.385  11.376  19.042  0.00  0.00    +0.000 A 
ATOM      5  C   UNL     1       2.169  11.139  17.922  0.00  0.00    +0.000 A 
ATOM      6  C   UNL     1       2.658   9.870  17.647  0.00  0.00    +0.000 A 
ATOM      7  C   UNL     1       2.345   8.809  18.523  0.00  0.00    +0.000 A 
ATOM      8  C   UNL     1       2.678   7.429  18.525  0.00  0.00    +0.000 A 
ATOM      9  C   UNL     1       3.449   6.682  17.628  0.00  0.00    +0.000 A 
ATOM     10  C   UNL     1       3.686   5.309  17.781  0.00  0.00    +0.000 A 
ATOM     11  C   UNL     1       4.484   4.549  16.881  0.00  0.00    +0.000 A 
ATOM     12  N   UNL     1       4.730   3.215  17.016  0.00  0.00    +0.000 NA
ATOM     13  C   UNL     1       4.169   2.619  18.077  0.00  0.00    +0.000 A 
ATOM     14  C   UNL     1       3.375   3.277  19.008  0.00  0.00    +0.000 A 
ATOM     15  C   UNL     1       3.097   4.659  18.892  0.00  0.00    +0.000 A 
ATOM     16  C   UNL     1       2.267   5.396  19.835  0.00  0.00    +0.000 A 
ATOM     17  C   UNL     1       1.590   4.690  20.984  0.00  0.00    +0.000 C 
ATOM     18  C   UNL     1       2.100   6.804  19.625  0.00  0.00    +0.000 A 
ENDROOT
BRANCH  11  19
ATOM     19  C   UNL     1       5.160   5.171  15.670  0.00  0.00    +0.000 C 
ATOM     20  O   UNL     1       5.214   6.380  15.458  0.00  0.00    +0.000 OA
ATOM     21  N   UNL     1       5.741   4.297  14.774  0.00  0.00    +0.000 N 
ATOM     22  H   UNL     1       5.622   3.296  14.913  0.00  0.00    +0.000 HD
BRANCH  21  23
ATOM     23  C   UNL     1       6.383   4.836  13.596  0.00  0.00    +0.000 C 
BRANCH  23  24
ATOM     24  C   UNL     1       6.616   3.819  12.477  0.00  0.00    +0.000 C 
BRANCH  24  25
ATOM     25  N   UNL     1       5.510   2.866  12.257  0.00  0.00    +0.000 NA
ATOM     26  C   UNL     1       4.380   3.490  11.563  0.00  0.00    +0.000 C 
ATOM     27  C   UNL     1       5.999   1.727  11.476  0.00  0.00    +0.000 C 
ENDBRANCH  24  25
ENDBRANCH  23  24
ENDBRANCH  21  23
ENDBRANCH  11  19
BRANCH   1  29
ATOM     28  C   UNL     1      -0.604   8.380  21.577  0.00  0.00    +0.000 C 
ATOM     29  C   UNL     1       0.764   7.717  21.594  0.00  0.00    +0.000 C 
ENDBRANCH   1  29
BRANCH   5  30
ATOM     30  O   UNL     1       2.493  12.136  17.049  0.00  0.00    +0.000 OA
ATOM     31  H   UNL     1       2.384  12.987  17.496  0.00  0.00    +0.000 HD
ENDBRANCH   5  30
TORSDOF 6
ENDMDL
MODEL 4
REMARK VINA RESULT:      -6.5      6.202     10.723
REMARK  Name = 
REMARK  10 active torsions:
REMARK  status: ('A' for Active; 'I' for Inactive)
REMARK    1  A    between atoms: C_1  and  C_2
REMARK    2  A    between atoms: C_2  and  N_3
REMARK    3  A    between atoms: C_7  and  O_8
REMARK    4  A    between atoms: C_14  and  C_15
REMARK    5  A    between atoms: N_17  and  C_18
REMARK    6  A    between atoms: C_18  and  C_19
REMARK    7  A    between atoms: C_19  and  N_20
REMARK    8  A    between atoms: N_20  and  C_21
REMARK    9  A    between atoms: N_20  and  C_22
REMARK   10  A    between atoms: C_27  and  C_28
REMARK                            x       y       z     vdW  Elec       q    Type
REMARK                         _______ _______ _______ _____ _____    ______ ____
ROOT
ATOM      1  N   UNL     1      -5.766  13.430  20.993  0.00  0.00    +0.000 N 
ATOM      2  C   UNL     1      -4.952  13.845  22.045  0.00  0.00    +0.000 A 
ATOM      3  C   UNL     1      -5.228  14.526  23.246  0.00  0.00    +0.000 A 
ATOM      4  C   UNL     1      -4.167  14.791  24.124  0.00  0.00    +0.000 A 
ATOM      5  C   UNL     1      -2.878  14.380  23.815  0.00  0.00    +0.000 A 
ATOM      6  C   UNL     1      -2.607  13.704  22.634  0.00  0.00    +0.000 A 
ATOM      7  C   UNL     1      -3.662  13.437  21.737  0.00  0.00    +0.000 A 
ATOM      8  C   UNL     1      -3.717  12.786  20.477  0.00  0.00    +0.000 A 
ATOM      9  C   UNL     1      -2.703  12.186  19.722  0.00  0.00    +0.000 A 
ATOM     10  C   UNL     1      -2.932  11.574  18.482  0.00  0.00    +0.000 A 
ATOM     11  C   UNL     1      -1.907  10.948  17.720  0.00  0.00    +0.000 A 
ATOM     12  N   UNL     1      -2.110  10.344  16.515  0.00  0.00    +0.000 NA
ATOM     13  C   UNL     1      -3.369  10.360  16.055  0.00  0.00    +0.000 A 
ATOM     14  C   UNL     1      -4.433  10.948  16.726  0.00  0.00    +0.000 A 
ATOM     15  C   UNL     1      -4.253  11.587  17.975  0.00  0.00    +0.000 A 
ATOM     16  C   UNL     1      -5.332  12.223  18.718  0.00  0.00    +0.000 A 
ATOM     17  C   UNL     1      -6.728  12.289  18.149  0.00  0.00    +0.000 C 
ATOM     18  C   UNL     1      -5.022  12.798  19.994  0.00  0.00    +0.000 A 
ENDROOT
BRANCH  11  19
ATOM     19  C   UNL     1      -0.465  10.881  18.196  0.00  0.00    +0.000 C 
ATOM     20  O   UNL     1       0.070  11.740  18.893  0.00  0.00    +0.000 OA
ATOM     21  N   UNL     1       0.261   9.774  17.805  0.00  0.00    +0.000 N 
ATOM     22  H   UNL     1      -0.161   9.109  17.162  0.00  0.00    +0.000 HD
BRANCH  21  23
ATOM     23  C   UNL     1       1.643   9.670  18.217  0.00  0.00    +0.000 C 
BRANCH  23  24
ATOM     24  C   UNL     1       2.333   8.367  17.807  0.00  0.00    +0.000 C 
BRANCH  24  25
ATOM     25  N   UNL     1       2.661   7.456  18.922  0.00  0.00    +0.000 NA
ATOM     26  C   UNL     1       1.854   7.736  20.113  0.00  0.00    +0.000 C 
ATOM     27  C   UNL     1       2.444   6.071  18.495  0.00  0.00    +0.000 C 
ENDBRANCH  24  25
ENDBRANCH  23  24
ENDBRANCH  21  23
ENDBRANCH  11  19
BRANCH   1  29
ATOM     28  C   UNL     1      -7.915  12.457  21.723  0.00  0.00    +0.000 C 
ATOM     29  C   UNL     1      -7.209  13.606  21.021  0.00  0.00    +0.000 C 
ENDBRANCH   1  29
BRANCH   5  30
ATOM     30  O   UNL     1      -1.828  14.619  24.653  0.00  0.00    +0.000 OA
ATOM     31  H   UNL     1      -1.267  15.302  24.260  0.00  0.00    +0.000 HD
ENDBRANCH   5  30
TORSDOF 6
ENDMDL
MODEL 5
REMARK VINA RESULT:      -6.5      6.066     10.168
REMARK  Name = 
REMARK  10 active torsions:
REMARK  status: ('A' for Active; 'I' for Inactive)
REMARK    1  A    between atoms: C_1  and  C_2
REMARK    2  A    between atoms: C_2  and  N_3
REMARK    3  A    between atoms: C_7  and  O_8
REMARK    4  A    between atoms: C_14  and  C_15
REMARK    5  A    between atoms: N_17  and  C_18
REMARK    6  A    between atoms: C_18  and  C_19
REMARK    7  A    between atoms: C_19  and  N_20
REMARK    8  A    between atoms: N_20  and  C_21
REMARK    9  A    between atoms: N_20  and  C_22
REMARK   10  A    between atoms: C_27  and  C_28
REMARK                            x       y       z     vdW  Elec       q    Type
REMARK                         _______ _______ _______ _____ _____    ______ ____
ROOT
ATOM      1  N   UNL     1      -5.069  13.648  21.773  0.00  0.00    +0.000 N 
ATOM      2  C   UNL     1      -4.158  14.111  22.719  0.00  0.00    +0.000 A 
ATOM      3  C   UNL     1      -4.318  14.847  23.909  0.00  0.00    +0.000 A 
ATOM      4  C   UNL     1      -3.177  15.151  24.666  0.00  0.00    +0.000 A 
ATOM      5  C   UNL     1      -1.922  14.725  24.252  0.00  0.00    +0.000 A 
ATOM      6  C   UNL     1      -1.766  13.995  23.082  0.00  0.00    +0.000 A 
ATOM      7  C   UNL     1      -2.902  13.688  22.306  0.00  0.00    +0.000 A 
ATOM      8  C   UNL     1      -3.077  12.979  21.090  0.00  0.00    +0.000 A 
ATOM      9  C   UNL     1      -2.140  12.344  20.268  0.00  0.00    +0.000 A 
ATOM     10  C   UNL     1      -2.486  11.676  19.085  0.00  0.00    +0.000 A 
ATOM     11  C   UNL     1      -1.537  11.013  18.256  0.00  0.00    +0.000 A 
ATOM     12  N   UNL     1      -1.855  10.354  17.107  0.00  0.00    +0.000 NA
ATOM     13  C   UNL     1      -3.153  10.351  16.771  0.00  0.00    +0.000 A 
ATOM     14  C   UNL     1      -4.149  10.970  17.515  0.00  0.00    +0.000 A 
ATOM     15  C   UNL     1      -3.851  11.666  18.710  0.00  0.00    +0.000 A 
ATOM     16  C   UNL     1      -4.854  12.337  19.524  0.00  0.00    +0.000 A 
ATOM     17  C   UNL     1      -6.299  12.377  19.091  0.00  0.00    +0.000 C 
ATOM     18  C   UNL     1      -4.423  12.970  20.736  0.00  0.00    +0.000 A 
ENDROOT
BRANCH  11  19
ATOM     19  C   UNL     1      -0.056  10.968  18.593  0.00  0.00    +0.000 C 
ATOM     20  O   UNL     1       0.475  10.071  19.242  0.00  0.00    +0.000 OA
ATOM     21  N   UNL     1       0.713  12.013  18.122  0.00  0.00    +0.000 N 
ATOM     22  H   UNL     1       0.255  12.793  17.657  0.00  0.00    +0.000 HD
BRANCH  21  23
ATOM     23  C   UNL     1       2.125  12.028  18.429  0.00  0.00    +0.000 C 
BRANCH  23  24
ATOM     24  C   UNL     1       2.758  13.421  18.452  0.00  0.00    +0.000 C 
BRANCH  24  25
ATOM     25  N   UNL     1       2.199  14.345  19.460  0.00  0.00    +0.000 NA
ATOM     26  C   UNL     1       3.188  14.706  20.480  0.00  0.00    +0.000 C 
ATOM     27  C   UNL     1       1.716  15.557  18.792  0.00  0.00    +0.000 C 
ENDBRANCH  24  25
ENDBRANCH  23  24
ENDBRANCH  21  23
ENDBRANCH  11  19
BRANCH   1  29
ATOM     28  C   UNL     1      -7.142  12.683  22.704  0.00  0.00    +0.000 C 
ATOM     29  C   UNL     1      -6.503  13.826  21.933  0.00  0.00    +0.000 C 
ENDBRANCH   1  29
BRANCH   5  30
ATOM     30  O   UNL     1      -0.798  15.002  24.972  0.00  0.00    +0.000 OA
ATOM     31  H   UNL     1      -0.987  14.861  25.910  0.00  0.00    +0.000 HD
ENDBRANCH   5  30
TORSDOF 6
ENDMDL
MODEL 6
REMARK VINA RESULT:      -6.4      8.116      9.456
REMARK  Name = 
REMARK  10 active torsions:
REMARK  status: ('A' for Active; 'I' for Inactive)
REMARK    1  A    between atoms: C_1  and  C_2
REMARK    2  A    between atoms: C_2  and  N_3
REMARK    3  A    between atoms: C_7  and  O_8
REMARK    4  A    between atoms: C_14  and  C_15
REMARK    5  A    between atoms: N_17  and  C_18
REMARK    6  A    between atoms: C_18  and  C_19
REMARK    7  A    between atoms: C_19  and  N_20
REMARK    8  A    between atoms: N_20  and  C_21
REMARK    9  A    between atoms: N_20  and  C_22
REMARK   10  A    between atoms: C_27  and  C_28
REMARK                            x       y       z     vdW  Elec       q    Type
REMARK                         _______ _______ _______ _____ _____    ______ ____
ROOT
ATOM      1  N   UNL     1      -5.658  12.172  20.146  0.00  0.00    +0.000 N 
ATOM      2  C   UNL     1      -5.019  11.826  18.957  0.00  0.00    +0.000 A 
ATOM      3  C   UNL     1      -5.494  11.278  17.750  0.00  0.00    +0.000 A 
ATOM      4  C   UNL     1      -4.577  11.054  16.711  0.00  0.00    +0.000 A 
ATOM      5  C   UNL     1      -3.237  11.375  16.873  0.00  0.00    +0.000 A 
ATOM      6  C   UNL     1      -2.771  11.920  18.061  0.00  0.00    +0.000 A 
ATOM      7  C   UNL     1      -3.678  12.144  19.117  0.00  0.00    +0.000 A 
ATOM      8  C   UNL     1      -3.525  12.671  20.426  0.00  0.00    +0.000 A 
ATOM      9  C   UNL     1      -2.386  13.148  21.083  0.00  0.00    +0.000 A 
ATOM     10  C   UNL     1      -2.410  13.645  22.394  0.00  0.00    +0.000 A 
ATOM     11  C   UNL     1      -1.256  14.148  23.059  0.00  0.00    +0.000 A 
ATOM     12  N   UNL     1      -1.260  14.640  24.330  0.00  0.00    +0.000 NA
ATOM     13  C   UNL     1      -2.444  14.634  24.959  0.00  0.00    +0.000 A 
ATOM     14  C   UNL     1      -3.621  14.163  24.392  0.00  0.00    +0.000 A 
ATOM     15  C   UNL     1      -3.649  13.641  23.077  0.00  0.00    +0.000 A 
ATOM     16  C   UNL     1      -4.853  13.129  22.438  0.00  0.00    +0.000 A 
ATOM     17  C   UNL     1      -6.160  13.070  23.189  0.00  0.00    +0.000 C 
ATOM     18  C   UNL     1      -4.751  12.669  21.084  0.00  0.00    +0.000 A 
ENDROOT
BRANCH  11  19
ATOM     19  C   UNL     1       0.109  14.197  22.393  0.00  0.00    +0.000 C 
ATOM     20  O   UNL     1       0.669  13.222  21.898  0.00  0.00    +0.000 OA
ATOM     21  N   UNL     1       0.732  15.429  22.359  0.00  0.00    +0.000 N 
ATOM     22  H   UNL     1       0.301  16.213  22.842  0.00  0.00    +0.000 HD
BRANCH  21  23
ATOM     23  C   UNL     1       2.041  15.527  21.752  0.00  0.00    +0.000 C 
BRANCH  23  24
ATOM     24  C   UNL     1       2.051  16.161  20.359  0.00  0.00    +0.000 C 
BRANCH  24  25
ATOM     25  N   UNL     1       1.687  15.251  19.255  0.00  0.00    +0.000 NA
ATOM     26  C   UNL     1       0.328  15.501  18.765  0.00  0.00    +0.000 C 
ATOM     27  C   UNL     1       2.644  15.415  18.157  0.00  0.00    +0.000 C 
ENDBRANCH  24  25
ENDBRANCH  23  24
ENDBRANCH  21  23
ENDBRANCH  11  19
BRANCH   1  29
ATOM     28  C   UNL     1      -7.532  10.655  20.679  0.00  0.00    +0.000 C 
ATOM     29  C   UNL     1      -7.100  12.063  20.304  0.00  0.00    +0.000 C 
ENDBRANCH   1  29
BRANCH   5  30
ATOM     30  O   UNL     1      -2.326  11.173  15.878  0.00  0.00    +0.000 OA
ATOM     31  H   UNL     1      -1.832  11.993  15.738  0.00  0.00    +0.000 HD
ENDBRANCH   5  30
TORSDOF 6
ENDMDL
MODEL 7
REMARK VINA RESULT:      -6.4      6.182     10.334
REMARK  Name = 
REMARK  10 active torsions:
REMARK  status: ('A' for Active; 'I' for Inactive)
REMARK    1  A    between atoms: C_1  and  C_2
REMARK    2  A    between atoms: C_2  and  N_3
REMARK    3  A    between atoms: C_7  and  O_8
REMARK    4  A    between atoms: C_14  and  C_15
REMARK    5  A    between atoms: N_17  and  C_18
REMARK    6  A    between atoms: C_18  and  C_19
REMARK    7  A    between atoms: C_19  and  N_20
REMARK    8  A    between atoms: N_20  and  C_21
REMARK    9  A    between atoms: N_20  and  C_22
REMARK   10  A    between atoms: C_27  and  C_28
REMARK                            x       y       z     vdW  Elec       q    Type
REMARK                         _______ _______ _______ _____ _____    ______ ____
ROOT
ATOM      1  N   UNL     1      -5.817  13.356  20.901  0.00  0.00    +0.000 N 
ATOM      2  C   UNL     1      -5.099  13.956  21.933  0.00  0.00    +0.000 A 
ATOM      3  C   UNL     1      -5.497  14.740  23.034  0.00  0.00    +0.000 A 
ATOM      4  C   UNL     1      -4.511  15.193  23.923  0.00  0.00    +0.000 A 
ATOM      5  C   UNL     1      -3.177  14.866  23.722  0.00  0.00    +0.000 A 
ATOM      6  C   UNL     1      -2.786  14.089  22.641  0.00  0.00    +0.000 A 
ATOM      7  C   UNL     1      -3.765  13.632  21.734  0.00  0.00    +0.000 A 
ATOM      8  C   UNL     1      -3.696  12.842  20.557  0.00  0.00    +0.000 A 
ATOM      9  C   UNL     1      -2.596  12.254  19.923  0.00  0.00    +0.000 A 
ATOM     10  C   UNL     1      -2.705  11.490  18.753  0.00  0.00    +0.000 A 
ATOM     11  C   UNL     1      -1.590  10.876  18.115  0.00  0.00    +0.000 A 
ATOM     12  N   UNL     1      -1.676  10.126  16.981  0.00  0.00    +0.000 NA
ATOM     13  C   UNL     1      -2.905   9.980  16.464  0.00  0.00    +0.000 A 
ATOM     14  C   UNL     1      -4.050  10.542  17.014  0.00  0.00    +0.000 A 
ATOM     15  C   UNL     1      -3.992  11.330  18.188  0.00  0.00    +0.000 A 
ATOM     16  C   UNL     1      -5.159  11.947  18.803  0.00  0.00    +0.000 A 
ATOM     17  C   UNL     1      -6.523  11.826  18.166  0.00  0.00    +0.000 C 
ATOM     18  C   UNL     1      -4.968  12.686  20.016  0.00  0.00    +0.000 A 
ENDROOT
BRANCH  11  19
ATOM     19  C   UNL     1      -0.177  10.990  18.661  0.00  0.00    +0.000 C 
ATOM     20  O   UNL     1       0.308  10.217  19.484  0.00  0.00    +0.000 OA
ATOM     21  N   UNL     1       0.584  12.037  18.182  0.00  0.00    +0.000 N 
ATOM     22  H   UNL     1       0.151  12.720  17.565  0.00  0.00    +0.000 HD
BRANCH  21  23
ATOM     23  C   UNL     1       1.930  12.202  18.683  0.00  0.00    +0.000 C 
BRANCH  23  24
ATOM     24  C   UNL     1       2.578  13.545  18.337  0.00  0.00    +0.000 C 
BRANCH  24  25
ATOM     25  N   UNL     1       2.891  14.405  19.497  0.00  0.00    +0.000 NA
ATOM     26  C   UNL     1       2.654  13.715  20.769  0.00  0.00    +0.000 C 
ATOM     27  C   UNL     1       4.292  14.828  19.421  0.00  0.00    +0.000 C 
ENDBRANCH  24  25
ENDBRANCH  23  24
ENDBRANCH  21  23
ENDBRANCH  11  19
BRANCH   1  29
ATOM     28  C   UNL     1      -7.915  12.270  21.618  0.00  0.00    +0.000 C 
ATOM     29  C   UNL     1      -7.269  13.407  20.842  0.00  0.00    +0.000 C 
ENDBRANCH   1  29
BRANCH   5  30
ATOM     30  O   UNL     1      -2.199  15.288  24.574  0.00  0.00    +0.000 OA
ATOM     31  H   UNL     1      -1.541  14.584  24.665  0.00  0.00    +0.000 HD
ENDBRANCH   5  30
TORSDOF 6
ENDMDL
MODEL 8
REMARK VINA RESULT:      -6.4      2.807      9.195
REMARK  Name = 
REMARK  10 active torsions:
REMARK  status: ('A' for Active; 'I' for Inactive)
REMARK    1  A    between atoms: C_1  and  C_2
REMARK    2  A    between atoms: C_2  and  N_3
REMARK    3  A    between atoms: C_7  and  O_8
REMARK    4  A    between atoms: C_14  and  C_15
REMARK    5  A    between atoms: N_17  and  C_18
REMARK    6  A    between atoms: C_18  and  C_19
REMARK    7  A    between atoms: C_19  and  N_20
REMARK    8  A    between atoms: N_20  and  C_21
REMARK    9  A    between atoms: N_20  and  C_22
REMARK   10  A    between atoms: C_27  and  C_28
REMARK                            x       y       z     vdW  Elec       q    Type
REMARK                         _______ _______ _______ _____ _____    ______ ____
ROOT
ATOM      1  N   UNL     1       0.500  15.240  21.200  0.00  0.00    +0.000 N 
ATOM      2  C   UNL     1       1.311  15.499  20.098  0.00  0.00    +0.000 A 
ATOM      3  C   UNL     1       1.771  16.697  19.518  0.00  0.00    +0.000 A 
ATOM      4  C   UNL     1       2.604  16.620  18.393  0.00  0.00    +0.000 A 
ATOM      5  C   UNL     1       2.972  15.387  17.872  0.00  0.00    +0.000 A 
ATOM      6  C   UNL     1       2.523  14.206  18.447  0.00  0.00    +0.000 A 
ATOM      7  C   UNL     1       1.678  14.267  19.574  0.00  0.00    +0.000 A 
ATOM      8  C   UNL     1       1.061  13.270  20.373  0.00  0.00    +0.000 A 
ATOM      9  C   UNL     1       1.112  11.875  20.281  0.00  0.00    +0.000 A 
ATOM     10  C   UNL     1       0.437  11.024  21.167  0.00  0.00    +0.000 A 
ATOM     11  C   UNL     1       0.501   9.604  21.087  0.00  0.00    +0.000 A 
ATOM     12  N   UNL     1      -0.144   8.761  21.942  0.00  0.00    +0.000 NA
ATOM     13  C   UNL     1      -0.872   9.343  22.904  0.00  0.00    +0.000 A 
ATOM     14  C   UNL     1      -0.996  10.718  23.060  0.00  0.00    +0.000 A 
ATOM     15  C   UNL     1      -0.344  11.620  22.186  0.00  0.00    +0.000 A 
ATOM     16  C   UNL     1      -0.444  13.068  22.300  0.00  0.00    +0.000 A 
ATOM     17  C   UNL     1      -1.324  13.701  23.350  0.00  0.00    +0.000 C 
ATOM     18  C   UNL     1       0.304  13.868  21.375  0.00  0.00    +0.000 A 
ENDROOT
BRANCH  11  19
ATOM     19  C   UNL     1       1.323   8.886  20.030  0.00  0.00    +0.000 C 
ATOM     20  O   UNL     1       1.505   9.312  18.892  0.00  0.00    +0.000 OA
ATOM     21  N   UNL     1       1.889   7.684  20.404  0.00  0.00    +0.000 N 
ATOM     22  H   UNL     1       1.668   7.297  21.318  0.00  0.00    +0.000 HD
BRANCH  21  23
ATOM     23  C   UNL     1       2.666   6.951  19.430  0.00  0.00    +0.000 C 
BRANCH  23  24
ATOM     24  C   UNL     1       2.579   5.429  19.561  0.00  0.00    +0.000 C 
BRANCH  24  25
ATOM     25  N   UNL     1       3.874   4.741  19.740  0.00  0.00    +0.000 NA
ATOM     26  C   UNL     1       3.832   3.359  19.252  0.00  0.00    +0.000 C 
ATOM     27  C   UNL     1       4.918   5.483  19.028  0.00  0.00    +0.000 C 
ENDBRANCH  24  25
ENDBRANCH  23  24
ENDBRANCH  21  23
ENDBRANCH  11  19
BRANCH   1  29
ATOM     28  C   UNL     1       1.006  16.690  23.134  0.00  0.00    +0.000 C 
ATOM     29  C   UNL     1       0.004  16.305  22.057  0.00  0.00    +0.000 C 
ENDBRANCH   1  29
BRANCH   5  30
ATOM     30  O   UNL     1       3.786  15.282  16.783  0.00  0.00    +0.000 OA
ATOM     31  H   UNL     1       3.790  14.361  16.486  0.00  0.00    +0.000 HD
ENDBRANCH   5  30
TORSDOF 6
ENDMDL
MODEL 9
REMARK VINA RESULT:      -6.4      6.817      9.586
REMARK  Name = 
REMARK  10 active torsions:
REMARK  status: ('A' for Active; 'I' for Inactive)
REMARK    1  A    between atoms: C_1  and  C_2
REMARK    2  A    between atoms: C_2  and  N_3
REMARK    3  A    between atoms: C_7  and  O_8
REMARK    4  A    between atoms: C_14  and  C_15
REMARK    5  A    between atoms: N_17  and  C_18
REMARK    6  A    between atoms: C_18  and  C_19
REMARK    7  A    between atoms: C_19  and  N_20
REMARK    8  A    between atoms: N_20  and  C_21
REMARK    9  A    between atoms: N_20  and  C_22
REMARK   10  A    between atoms: C_27  and  C_28
REMARK                            x       y       z     vdW  Elec       q    Type
REMARK                         _______ _______ _______ _____ _____    ______ ____
ROOT
ATOM      1  N   UNL     1      -2.891  10.933  18.246  0.00  0.00    +0.000 N 
ATOM      2  C   UNL     1      -1.620  11.004  18.809  0.00  0.00    +0.000 A 
ATOM      3  C   UNL     1      -0.419  10.322  18.531  0.00  0.00    +0.000 A 
ATOM      4  C   UNL     1       0.720  10.638  19.286  0.00  0.00    +0.000 A 
ATOM      5  C   UNL     1       0.662  11.607  20.278  0.00  0.00    +0.000 A 
ATOM      6  C   UNL     1      -0.520  12.282  20.548  0.00  0.00    +0.000 A 
ATOM      7  C   UNL     1      -1.676  11.971  19.803  0.00  0.00    +0.000 A 
ATOM      8  C   UNL     1      -3.006  12.465  19.833  0.00  0.00    +0.000 A 
ATOM      9  C   UNL     1      -3.589  13.449  20.639  0.00  0.00    +0.000 A 
ATOM     10  C   UNL     1      -4.936  13.824  20.535  0.00  0.00    +0.000 A 
ATOM     11  C   UNL     1      -5.528  14.837  21.341  0.00  0.00    +0.000 A 
ATOM     12  N   UNL     1      -6.833  15.220  21.251  0.00  0.00    +0.000 NA
ATOM     13  C   UNL     1      -7.571  14.580  20.333  0.00  0.00    +0.000 A 
ATOM     14  C   UNL     1      -7.082  13.579  19.504  0.00  0.00    +0.000 A 
ATOM     15  C   UNL     1      -5.734  13.156  19.577  0.00  0.00    +0.000 A 
ATOM     16  C   UNL     1      -5.171  12.108  18.736  0.00  0.00    +0.000 A 
ATOM     17  C   UNL     1      -6.038  11.354  17.757  0.00  0.00    +0.000 C 
ATOM     18  C   UNL     1      -3.778  11.805  18.882  0.00  0.00    +0.000 A 
ENDROOT
BRANCH  11  19
ATOM     19  C   UNL     1      -4.739  15.610  22.385  0.00  0.00    +0.000 C 
ATOM     20  O   UNL     1      -4.129  16.651  22.155  0.00  0.00    +0.000 OA
ATOM     21  N   UNL     1      -4.730  15.083  23.661  0.00  0.00    +0.000 N 
ATOM     22  H   UNL     1      -5.168  14.180  23.826  0.00  0.00    +0.000 HD
BRANCH  21  23
ATOM     23  C   UNL     1      -3.980  15.770  24.689  0.00  0.00    +0.000 C 
BRANCH  23  24
ATOM     24  C   UNL     1      -2.890  14.925  25.353  0.00  0.00    +0.000 C 
BRANCH  24  25
ATOM     25  N   UNL     1      -1.533  15.109  24.799  0.00  0.00    +0.000 NA
ATOM     26  C   UNL     1      -1.281  14.218  23.663  0.00  0.00    +0.000 C 
ATOM     27  C   UNL     1      -1.366  16.502  24.379  0.00  0.00    +0.000 C 
ENDBRANCH  24  25
ENDBRANCH  23  24
ENDBRANCH  21  23
ENDBRANCH  11  19
BRANCH   1  29
ATOM     28  C   UNL     1      -2.875  10.774  15.782  0.00  0.00    +0.000 C 
ATOM     29  C   UNL     1      -3.180  10.084  17.101  0.00  0.00    +0.000 C 
ENDBRANCH   1  29
BRANCH   5  30
ATOM     30  O   UNL     1       1.755  11.937  21.023  0.00  0.00    +0.000 OA
ATOM     31  H   UNL     1       1.469  12.119  21.930  0.00  0.00    +0.000 HD
ENDBRANCH   5  30
TORSDOF 6
ENDMDL
