MODEL 1
REMARK VINA RESULT:      -6.1      0.000      0.000
REMARK  Name = 
REMARK  5 active torsions:
REMARK  status: ('A' for Active; 'I' for Inactive)
REMARK    1  A    between atoms: C_1  and  C_2
REMARK    2  A    between atoms: C_2  and  C_3
REMARK    3  A    between atoms: N_5  and  C_6
REMARK    4  A    between atoms: C_9  and  C_10
REMARK    5  A    between atoms: C_10  and  C_11
REMARK                            x       y       z     vdW  Elec       q    Type
REMARK                         _______ _______ _______ _____ _____    ______ ____
ROOT
ATOM      1  C   UNL     1       3.757   4.153  17.028  0.00  0.00    +0.000 A 
ATOM      2  C   UNL     1       3.104   2.960  17.360  0.00  0.00    +0.000 A 
ATOM      3  C   UNL     1       2.123   2.919  18.351  0.00  0.00    +0.000 A 
ATOM      4  C   UNL     1       1.766   4.074  19.044  0.00  0.00    +0.000 A 
ATOM      5  C   UNL     1       2.396   5.281  18.700  0.00  0.00    +0.000 A 
ATOM      6  C   UNL     1       3.389   5.319  17.708  0.00  0.00    +0.000 A 
ENDROOT
BRANCH   1   9
ATOM      7  C   UNL     1       6.123   4.426  16.347  0.00  0.00    +0.000 C 
ATOM      8  O   UNL     1       6.604   4.477  17.481  0.00  0.00    +0.000 OA
ATOM      9  N   UNL     1       4.787   4.212  16.060  0.00  0.00    +0.000 N 
ATOM     10  H   UNL     1       4.535   4.000  15.101  0.00  0.00    +0.000 HD
BRANCH   7  12
ATOM     11  C   UNL     1       6.303   4.016  13.904  0.00  0.00    +0.000 C 
ATOM     12  C   UNL     1       7.010   4.580  15.133  0.00  0.00    +0.000 C 
ENDBRANCH   7  12
ENDBRANCH   1   9
BRANCH   4  13
ATOM     13  C   UNL     1       0.806   3.984  20.212  0.00  0.00    +0.000 C 
BRANCH  13  14
ATOM     14  C   UNL     1       1.391   3.097  21.298  0.00  0.00    +0.000 C 
ATOM     15  N   UNL     1       1.876   2.361  22.201  0.00  0.00    +0.000 NA
ENDBRANCH  13  14
ENDBRANCH   4  13
TORSDOF 4
ENDMDL
MODEL 2
REMARK VINA RESULT:      -6.1      1.232      1.252
REMARK  Name = 
REMARK  5 active torsions:
REMARK  status: ('A' for Active; 'I' for Inactive)
REMARK    1  A    between atoms: C_1  and  C_2
REMARK    2  A    between atoms: C_2  and  C_3
REMARK    3  A    between atoms: N_5  and  C_6
REMARK    4  A    between atoms: C_9  and  C_10
REMARK    5  A    between atoms: C_10  and  C_11
REMARK                            x       y       z     vdW  Elec       q    Type
REMARK                         _______ _______ _______ _____ _____    ______ ____
ROOT
ATOM      1  C   UNL     1       4.295   4.466  17.283  0.00  0.00    +0.000 A 
ATOM      2  C   UNL     1       3.039   3.855  17.183  0.00  0.00    +0.000 A 
ATOM      3  C   UNL     1       2.086   3.983  18.194  0.00  0.00    +0.000 A 
ATOM      4  C   UNL     1       2.362   4.727  19.339  0.00  0.00    +0.000 A 
ATOM      5  C   UNL     1       3.608   5.366  19.436  0.00  0.00    +0.000 A 
ATOM      6  C   UNL     1       4.570   5.229  18.422  0.00  0.00    +0.000 A 
ENDROOT
BRANCH   1   9
ATOM      7  C   UNL     1       5.658   5.294  15.387  0.00  0.00    +0.000 C 
ATOM      8  O   UNL     1       5.245   6.456  15.397  0.00  0.00    +0.000 OA
ATOM      9  N   UNL     1       5.295   4.314  16.294  0.00  0.00    +0.000 N 
ATOM     10  H   UNL     1       5.836   3.458  16.309  0.00  0.00    +0.000 HD
BRANCH   7  12
ATOM     11  C   UNL     1       6.026   3.787  13.447  0.00  0.00    +0.000 C 
ATOM     12  C   UNL     1       6.657   4.847  14.345  0.00  0.00    +0.000 C 
ENDBRANCH   7  12
ENDBRANCH   1   9
BRANCH   4  13
ATOM     13  C   UNL     1       1.373   4.736  20.486  0.00  0.00    +0.000 C 
BRANCH  13  14
ATOM     14  C   UNL     1       1.550   3.488  21.335  0.00  0.00    +0.000 C 
ATOM     15  N   UNL     1       1.697   2.452  22.039  0.00  0.00    +0.000 NA
ENDBRANCH  13  14
ENDBRANCH   4  13
TORSDOF 4
ENDMDL
MODEL 3
REMARK VINA RESULT:      -6.0      0.286      1.308
REMARK  Name = 
REMARK  5 active torsions:
REMARK  status: ('A' for Active; 'I' for Inactive)
REMARK    1  A    between atoms: C_1  and  C_2
REMARK    2  A    between atoms: C_2  and  C_3
REMARK    3  A    between atoms: N_5  and  C_6
REMARK    4  A    between atoms: C_9  and  C_10
REMARK    5  A    between atoms: C_10  and  C_11
REMARK                            x       y       z     vdW  Elec       q    Type
REMARK                         _______ _______ _______ _____ _____    ______ ____
ROOT
ATOM      1  C   UNL     1       3.958   4.133  16.991  0.00  0.00    +0.000 A 
ATOM      2  C   UNL     1       3.452   5.283  17.609  0.00  0.00    +0.000 A 
ATOM      3  C   UNL     1       2.504   5.204  18.630  0.00  0.00    +0.000 A 
ATOM      4  C   UNL     1       2.031   3.967  19.063  0.00  0.00    +0.000 A 
ATOM      5  C   UNL     1       2.551   2.807  18.468  0.00  0.00    +0.000 A 
ATOM      6  C   UNL     1       3.499   2.889  17.435  0.00  0.00    +0.000 A 
ENDROOT
BRANCH   1   9
ATOM      7  C   UNL     1       6.244   4.396  16.073  0.00  0.00    +0.000 C 
ATOM      8  O   UNL     1       6.838   4.443  17.153  0.00  0.00    +0.000 OA
ATOM      9  N   UNL     1       4.884   4.188  15.924  0.00  0.00    +0.000 N 
ATOM     10  H   UNL     1       4.536   3.978  14.996  0.00  0.00    +0.000 HD
BRANCH   7  12
ATOM     11  C   UNL     1       6.220   3.893  13.641  0.00  0.00    +0.000 C 
ATOM     12  C   UNL     1       7.003   4.547  14.776  0.00  0.00    +0.000 C 
ENDBRANCH   7  12
ENDBRANCH   1   9
BRANCH   4  13
ATOM     13  C   UNL     1       0.900   3.906  20.069  0.00  0.00    +0.000 C 
BRANCH  13  14
ATOM     14  C   UNL     1       1.303   3.042  21.252  0.00  0.00    +0.000 C 
ATOM     15  N   UNL     1       1.637   2.324  22.235  0.00  0.00    +0.000 NA
ENDBRANCH  13  14
ENDBRANCH   4  13
TORSDOF 4
ENDMDL
MODEL 4
REMARK VINA RESULT:      -6.0      1.260      1.613
REMARK  Name = 
REMARK  5 active torsions:
REMARK  status: ('A' for Active; 'I' for Inactive)
REMARK    1  A    between atoms: C_1  and  C_2
REMARK    2  A    between atoms: C_2  and  C_3
REMARK    3  A    between atoms: N_5  and  C_6
REMARK    4  A    between atoms: C_9  and  C_10
REMARK    5  A    between atoms: C_10  and  C_11
REMARK                            x       y       z     vdW  Elec       q    Type
REMARK                         _______ _______ _______ _____ _____    ______ ____
ROOT
ATOM      1  C   UNL     1       4.553   4.154  17.142  0.00  0.00    +0.000 A 
ATOM      2  C   UNL     1       4.861   4.723  18.384  0.00  0.00    +0.000 A 
ATOM      3  C   UNL     1       3.906   4.820  19.397  0.00  0.00    +0.000 A 
ATOM      4  C   UNL     1       2.609   4.351  19.196  0.00  0.00    +0.000 A 
ATOM      5  C   UNL     1       2.298   3.754  17.963  0.00  0.00    +0.000 A 
ATOM      6  C   UNL     1       3.258   3.665  16.942  0.00  0.00    +0.000 A 
ENDROOT
BRANCH   1   9
ATOM      7  C   UNL     1       5.861   5.159  15.294  0.00  0.00    +0.000 C 
ATOM      8  O   UNL     1       5.517   6.329  15.481  0.00  0.00    +0.000 OA
ATOM      9  N   UNL     1       5.489   4.086  16.084  0.00  0.00    +0.000 N 
ATOM     10  H   UNL     1       5.980   3.209  15.954  0.00  0.00    +0.000 HD
BRANCH   7  12
ATOM     11  C   UNL     1       6.134   3.719  13.289  0.00  0.00    +0.000 C 
ATOM     12  C   UNL     1       6.777   4.806  14.145  0.00  0.00    +0.000 C 
ENDBRANCH   7  12
ENDBRANCH   1   9
BRANCH   4  13
ATOM     13  C   UNL     1       1.550   4.594  20.251  0.00  0.00    +0.000 C 
BRANCH  13  14
ATOM     14  C   UNL     1       1.584   3.483  21.287  0.00  0.00    +0.000 C 
ATOM     15  N   UNL     1       1.613   2.562  22.148  0.00  0.00    +0.000 NA
ENDBRANCH  13  14
ENDBRANCH   4  13
TORSDOF 4
ENDMDL
MODEL 5
REMARK VINA RESULT:      -5.9      1.796      2.131
REMARK  Name = 
REMARK  5 active torsions:
REMARK  status: ('A' for Active; 'I' for Inactive)
REMARK    1  A    between atoms: C_1  and  C_2
REMARK    2  A    between atoms: C_2  and  C_3
REMARK    3  A    between atoms: N_5  and  C_6
REMARK    4  A    between atoms: C_9  and  C_10
REMARK    5  A    between atoms: C_10  and  C_11
REMARK                            x       y       z     vdW  Elec       q    Type
REMARK                         _______ _______ _______ _____ _____    ______ ____
ROOT
ATOM      1  C   UNL     1       4.244   5.097  17.565  0.00  0.00    +0.000 A 
ATOM      2  C   UNL     1       4.138   3.701  17.571  0.00  0.00    +0.000 A 
ATOM      3  C   UNL     1       3.037   3.058  18.138  0.00  0.00    +0.000 A 
ATOM      4  C   UNL     1       2.008   3.794  18.721  0.00  0.00    +0.000 A 
ATOM      5  C   UNL     1       2.092   5.195  18.697  0.00  0.00    +0.000 A 
ATOM      6  C   UNL     1       3.205   5.841  18.133  0.00  0.00    +0.000 A 
ENDROOT
BRANCH   1   9
ATOM      7  C   UNL     1       6.497   6.108  17.767  0.00  0.00    +0.000 C 
ATOM      8  O   UNL     1       6.715   5.764  18.931  0.00  0.00    +0.000 OA
ATOM      9  N   UNL     1       5.370   5.772  17.038  0.00  0.00    +0.000 N 
ATOM     10  H   UNL     1       5.382   5.944  16.039  0.00  0.00    +0.000 HD
BRANCH   7  12
ATOM     11  C   UNL     1       7.842   8.195  17.817  0.00  0.00    +0.000 C 
ATOM     12  C   UNL     1       7.507   6.942  17.014  0.00  0.00    +0.000 C 
ENDBRANCH   7  12
ENDBRANCH   1   9
BRANCH   4  13
ATOM     13  C   UNL     1       0.895   3.078  19.458  0.00  0.00    +0.000 C 
BRANCH  13  14
ATOM     14  C   UNL     1       1.320   2.790  20.888  0.00  0.00    +0.000 C 
ATOM     15  N   UNL     1       1.673   2.550  22.075  0.00  0.00    +0.000 NA
ENDBRANCH  13  14
ENDBRANCH   4  13
TORSDOF 4
ENDMDL
MODEL 6
REMARK VINA RESULT:      -5.9      2.212      6.324
REMARK  Name = 
REMARK  5 active torsions:
REMARK  status: ('A' for Active; 'I' for Inactive)
REMARK    1  A    between atoms: C_1  and  C_2
REMARK    2  A    between atoms: C_2  and  C_3
REMARK    3  A    between atoms: N_5  and  C_6
REMARK    4  A    between atoms: C_9  and  C_10
REMARK    5  A    between atoms: C_10  and  C_11
REMARK                            x       y       z     vdW  Elec       q    Type
REMARK                         _______ _______ _______ _____ _____    ______ ____
ROOT
ATOM      1  C   UNL     1       3.812   4.628  17.841  0.00  0.00    +0.000 A 
ATOM      2  C   UNL     1       4.165   5.882  17.326  0.00  0.00    +0.000 A 
ATOM      3  C   UNL     1       5.038   6.005  16.244  0.00  0.00    +0.000 A 
ATOM      4  C   UNL     1       5.588   4.873  15.645  0.00  0.00    +0.000 A 
ATOM      5  C   UNL     1       5.219   3.611  16.136  0.00  0.00    +0.000 A 
ATOM      6  C   UNL     1       4.347   3.489  17.230  0.00  0.00    +0.000 A 
ENDROOT
BRANCH   1   9
ATOM      7  C   UNL     1       1.653   4.049  18.907  0.00  0.00    +0.000 C 
ATOM      8  O   UNL     1       1.088   3.633  17.893  0.00  0.00    +0.000 OA
ATOM      9  N   UNL     1       2.967   4.479  18.964  0.00  0.00    +0.000 N 
ATOM     10  H   UNL     1       3.381   4.617  19.879  0.00  0.00    +0.000 HD
BRANCH   7  12
ATOM     11  C   UNL     1       1.474   3.035  21.167  0.00  0.00    +0.000 C 
ATOM     12  C   UNL     1       0.917   4.099  20.226  0.00  0.00    +0.000 C 
ENDBRANCH   7  12
ENDBRANCH   1   9
BRANCH   4  13
ATOM     13  C   UNL     1       6.642   5.030  14.569  0.00  0.00    +0.000 C 
BRANCH  13  14
ATOM     14  C   UNL     1       6.365   4.068  13.426  0.00  0.00    +0.000 C 
ATOM     15  N   UNL     1       6.134   3.270  12.476  0.00  0.00    +0.000 NA
ENDBRANCH  13  14
ENDBRANCH   4  13
TORSDOF 4
ENDMDL
MODEL 7
REMARK VINA RESULT:      -5.8      2.137      6.157
REMARK  Name = 
REMARK  5 active torsions:
REMARK  status: ('A' for Active; 'I' for Inactive)
REMARK    1  A    between atoms: C_1  and  C_2
REMARK    2  A    between atoms: C_2  and  C_3
REMARK    3  A    between atoms: N_5  and  C_6
REMARK    4  A    between atoms: C_9  and  C_10
REMARK    5  A    between atoms: C_10  and  C_11
REMARK                            x       y       z     vdW  Elec       q    Type
REMARK                         _______ _______ _______ _____ _____    ______ ____
ROOT
ATOM      1  C   UNL     1       4.377   4.164  18.515  0.00  0.00    +0.000 A 
ATOM      2  C   UNL     1       5.614   4.803  18.663  0.00  0.00    +0.000 A 
ATOM      3  C   UNL     1       6.444   5.045  17.567  0.00  0.00    +0.000 A 
ATOM      4  C   UNL     1       6.060   4.653  16.287  0.00  0.00    +0.000 A 
ATOM      5  C   UNL     1       4.809   4.035  16.124  0.00  0.00    +0.000 A 
ATOM      6  C   UNL     1       3.979   3.785  17.229  0.00  0.00    +0.000 A 
ENDROOT
BRANCH   1   9
ATOM      7  C   UNL     1       3.709   2.785  20.461  0.00  0.00    +0.000 C 
ATOM      8  O   UNL     1       4.671   2.013  20.439  0.00  0.00    +0.000 OA
ATOM      9  N   UNL     1       3.539   3.866  19.614  0.00  0.00    +0.000 N 
ATOM     10  H   UNL     1       2.817   4.539  19.844  0.00  0.00    +0.000 HD
BRANCH   7  12
ATOM     11  C   UNL     1       1.321   3.244  20.966  0.00  0.00    +0.000 C 
ATOM     12  C   UNL     1       2.608   2.605  21.480  0.00  0.00    +0.000 C 
ENDBRANCH   7  12
ENDBRANCH   1   9
BRANCH   4  13
ATOM     13  C   UNL     1       7.033   4.794  15.135  0.00  0.00    +0.000 C 
BRANCH  13  14
ATOM     14  C   UNL     1       6.475   4.112  13.897  0.00  0.00    +0.000 C 
ATOM     15  N   UNL     1       6.011   3.546  12.869  0.00  0.00    +0.000 NA
ENDBRANCH  13  14
ENDBRANCH   4  13
TORSDOF 4
ENDMDL
MODEL 8
REMARK VINA RESULT:      -5.7      2.193      6.134
REMARK  Name = 
REMARK  5 active torsions:
REMARK  status: ('A' for Active; 'I' for Inactive)
REMARK    1  A    between atoms: C_1  and  C_2
REMARK    2  A    between atoms: C_2  and  C_3
REMARK    3  A    between atoms: N_5  and  C_6
REMARK    4  A    between atoms: C_9  and  C_10
REMARK    5  A    between atoms: C_10  and  C_11
REMARK                            x       y       z     vdW  Elec       q    Type
REMARK                         _______ _______ _______ _____ _____    ______ ____
ROOT
ATOM      1  C   UNL     1       4.485   4.157  18.359  0.00  0.00    +0.000 A 
ATOM      2  C   UNL     1       4.071   3.797  17.070  0.00  0.00    +0.000 A 
ATOM      3  C   UNL     1       4.910   3.953  15.966  0.00  0.00    +0.000 A 
ATOM      4  C   UNL     1       6.193   4.475  16.119  0.00  0.00    +0.000 A 
ATOM      5  C   UNL     1       6.627   4.814  17.411  0.00  0.00    +0.000 A 
ATOM      6  C   UNL     1       5.778   4.665  18.519  0.00  0.00    +0.000 A 
ENDROOT
BRANCH   1   9
ATOM      7  C   UNL     1       3.529   2.929  20.287  0.00  0.00    +0.000 C 
ATOM      8  O   UNL     1       4.236   1.923  20.193  0.00  0.00    +0.000 OA
ATOM      9  N   UNL     1       3.637   4.053  19.486  0.00  0.00    +0.000 N 
ATOM     10  H   UNL     1       3.141   4.889  19.772  0.00  0.00    +0.000 HD
BRANCH   7  12
ATOM     11  C   UNL     1       1.130   3.413  20.713  0.00  0.00    +0.000 C 
ATOM     12  C   UNL     1       2.459   3.016  21.350  0.00  0.00    +0.000 C 
ENDBRANCH   7  12
ENDBRANCH   1   9
BRANCH   4  13
ATOM     13  C   UNL     1       7.035   4.770  14.895  0.00  0.00    +0.000 C 
BRANCH  13  14
ATOM     14  C   UNL     1       6.455   4.063  13.682  0.00  0.00    +0.000 C 
ATOM     15  N   UNL     1       5.972   3.475  12.676  0.00  0.00    +0.000 NA
ENDBRANCH  13  14
ENDBRANCH   4  13
TORSDOF 4
ENDMDL
MODEL 9
REMARK VINA RESULT:      -5.7      2.208      6.197
REMARK  Name = 
REMARK  5 active torsions:
REMARK  status: ('A' for Active; 'I' for Inactive)
REMARK    1  A    between atoms: C_1  and  C_2
REMARK    2  A    between atoms: C_2  and  C_3
REMARK    3  A    between atoms: N_5  and  C_6
REMARK    4  A    between atoms: C_9  and  C_10
REMARK    5  A    between atoms: C_10  and  C_11
REMARK                            x       y       z     vdW  Elec       q    Type
REMARK                         _______ _______ _______ _____ _____    ______ ____
ROOT
ATOM      1  C   UNL     1       4.134   4.633  17.648  0.00  0.00    +0.000 A 
ATOM      2  C   UNL     1       4.744   3.509  17.078  0.00  0.00    +0.000 A 
ATOM      3  C   UNL     1       5.603   3.622  15.984  0.00  0.00    +0.000 A 
ATOM      4  C   UNL     1       5.878   4.868  15.425  0.00  0.00    +0.000 A 
ATOM      5  C   UNL     1       5.293   6.005  16.006  0.00  0.00    +0.000 A 
ATOM      6  C   UNL     1       4.421   5.888  17.101  0.00  0.00    +0.000 A 
ENDROOT
BRANCH   1   9
ATOM      7  C   UNL     1       1.883   4.224  18.598  0.00  0.00    +0.000 C 
ATOM      8  O   UNL     1       1.337   3.871  17.550  0.00  0.00    +0.000 OA
ATOM      9  N   UNL     1       3.224   4.540  18.726  0.00  0.00    +0.000 N 
ATOM     10  H   UNL     1       3.603   4.630  19.662  0.00  0.00    +0.000 HD
BRANCH   7  12
ATOM     11  C   UNL     1       1.229   3.019  20.668  0.00  0.00    +0.000 C 
ATOM     12  C   UNL     1       1.090   4.318  19.880  0.00  0.00    +0.000 C 
ENDBRANCH   7  12
ENDBRANCH   1   9
BRANCH   4  13
ATOM     13  C   UNL     1       6.695   4.958  14.154  0.00  0.00    +0.000 C 
BRANCH  13  14
ATOM     14  C   UNL     1       6.230   3.906  13.161  0.00  0.00    +0.000 C 
ATOM     15  N   UNL     1       5.844   3.032  12.337  0.00  0.00    +0.000 NA
ENDBRANCH  13  14
ENDBRANCH   4  13
TORSDOF 4
ENDMDL
