MODEL 1
REMARK VINA RESULT:      -8.4      0.000      0.000
REMARK  Name = 
REMARK  3 active torsions:
REMARK  status: ('A' for Active; 'I' for Inactive)
REMARK    1  A    between atoms: C_2  and  C_16
REMARK    2  A    between atoms: N_3  and  C_4
REMARK    3  A    between atoms: C_9  and  C_10
REMARK                            x       y       z     vdW  Elec       q    Type
REMARK                         _______ _______ _______ _____ _____    ______ ____
ROOT
ATOM      1  C   UNL     1       2.949   3.803  19.063  0.00  0.00    +0.000 A 
ATOM      2  C   UNL     1       2.888   2.450  19.444  0.00  0.00    +0.000 A 
ATOM      3  C   UNL     1       1.947   2.013  20.370  0.00  0.00    +0.000 A 
ATOM      4  C   UNL     1       1.088   2.933  20.953  0.00  0.00    +0.000 A 
ATOM      5  C   UNL     1       1.164   4.286  20.597  0.00  0.00    +0.000 A 
ATOM      6  C   UNL     1       2.076   4.760  19.627  0.00  0.00    +0.000 A 
ENDROOT
BRANCH   6   7
ATOM      7  C   UNL     1       2.097   6.214  19.290  0.00  0.00    +0.000 A 
ATOM      8  C   UNL     1       2.409   6.685  17.999  0.00  0.00    +0.000 A 
ATOM      9  C   UNL     1       2.333   8.043  17.671  0.00  0.00    +0.000 A 
ATOM     10  C   UNL     1       2.014   8.977  18.648  0.00  0.00    +0.000 A 
ATOM     11  C   UNL     1       1.777   8.553  19.951  0.00  0.00    +0.000 A 
ATOM     12  C   UNL     1       1.807   7.190  20.263  0.00  0.00    +0.000 A 
ENDBRANCH   6   7
BRANCH   1  15
ATOM     13  O   UNL     1       5.717   4.018  19.431  0.00  0.00    +0.000 OA
ATOM     14  C   UNL     1       5.235   4.222  18.322  0.00  0.00    +0.000 C 
ATOM     15  N   UNL     1       3.872   4.144  18.044  0.00  0.00    +0.000 N 
ATOM     16  H   UNL     1       3.535   4.783  17.333  0.00  0.00    +0.000 HD
BRANCH  14  17
ATOM     17  C   UNL     1       6.080   4.559  17.094  0.00  0.00    +0.000 C 
ATOM     18  C   UNL     1       5.601   5.823  16.371  0.00  0.00    +0.000 C 
ATOM     19  C   UNL     1       5.904   7.125  17.114  0.00  0.00    +0.000 C 
ATOM     20  C   UNL     1       7.348   7.208  17.595  0.00  0.00    +0.000 C 
ATOM     21  C   UNL     1       7.790   5.954  18.343  0.00  0.00    +0.000 C 
ATOM     22  C   UNL     1       7.549   4.691  17.514  0.00  0.00    +0.000 C 
ENDBRANCH  14  17
ENDBRANCH   1  15
TORSDOF 3
ENDMDL
MODEL 2
REMARK VINA RESULT:      -8.3      1.045      1.739
REMARK  Name = 
REMARK  3 active torsions:
REMARK  status: ('A' for Active; 'I' for Inactive)
REMARK    1  A    between atoms: C_2  and  C_16
REMARK    2  A    between atoms: N_3  and  C_4
REMARK    3  A    between atoms: C_9  and  C_10
REMARK                            x       y       z     vdW  Elec       q    Type
REMARK                         _______ _______ _______ _____ _____    ______ ____
ROOT
ATOM      1  C   UNL     1       3.476   4.421  20.011  0.00  0.00    +0.000 A 
ATOM      2  C   UNL     1       3.561   3.106  20.505  0.00  0.00    +0.000 A 
ATOM      3  C   UNL     1       2.438   2.461  21.011  0.00  0.00    +0.000 A 
ATOM      4  C   UNL     1       1.230   3.142  21.066  0.00  0.00    +0.000 A 
ATOM      5  C   UNL     1       1.147   4.460  20.602  0.00  0.00    +0.000 A 
ATOM      6  C   UNL     1       2.255   5.133  20.039  0.00  0.00    +0.000 A 
ENDROOT
BRANCH   6   7
ATOM      7  C   UNL     1       2.093   6.536  19.555  0.00  0.00    +0.000 A 
ATOM      8  C   UNL     1       2.388   6.917  18.231  0.00  0.00    +0.000 A 
ATOM      9  C   UNL     1       2.143   8.213  17.764  0.00  0.00    +0.000 A 
ATOM     10  C   UNL     1       1.663   9.185  18.634  0.00  0.00    +0.000 A 
ATOM     11  C   UNL     1       1.436   8.862  19.967  0.00  0.00    +0.000 A 
ATOM     12  C   UNL     1       1.637   7.553  20.416  0.00  0.00    +0.000 A 
ENDBRANCH   6   7
BRANCH   1  15
ATOM     13  O   UNL     1       4.608   3.545  17.605  0.00  0.00    +0.000 OA
ATOM     14  C   UNL     1       5.130   4.467  18.220  0.00  0.00    +0.000 C 
ATOM     15  N   UNL     1       4.644   4.967  19.426  0.00  0.00    +0.000 N 
ATOM     16  H   UNL     1       5.347   5.310  20.070  0.00  0.00    +0.000 HD
BRANCH  14  17
ATOM     17  C   UNL     1       6.371   5.207  17.720  0.00  0.00    +0.000 C 
ATOM     18  C   UNL     1       7.201   4.376  16.735  0.00  0.00    +0.000 C 
ATOM     19  C   UNL     1       6.563   4.216  15.353  0.00  0.00    +0.000 C 
ATOM     20  C   UNL     1       6.071   5.537  14.774  0.00  0.00    +0.000 C 
ATOM     21  C   UNL     1       5.218   6.328  15.759  0.00  0.00    +0.000 C 
ATOM     22  C   UNL     1       5.943   6.538  17.089  0.00  0.00    +0.000 C 
ENDBRANCH  14  17
ENDBRANCH   1  15
TORSDOF 3
ENDMDL
MODEL 3
REMARK VINA RESULT:      -8.2      1.112      4.857
REMARK  Name = 
REMARK  3 active torsions:
REMARK  status: ('A' for Active; 'I' for Inactive)
REMARK    1  A    between atoms: C_2  and  C_16
REMARK    2  A    between atoms: N_3  and  C_4
REMARK    3  A    between atoms: C_9  and  C_10
REMARK                            x       y       z     vdW  Elec       q    Type
REMARK                         _______ _______ _______ _____ _____    ______ ____
ROOT
ATOM      1  C   UNL     1       4.940   4.574  17.183  0.00  0.00    +0.000 A 
ATOM      2  C   UNL     1       6.044   4.006  16.522  0.00  0.00    +0.000 A 
ATOM      3  C   UNL     1       7.121   4.794  16.130  0.00  0.00    +0.000 A 
ATOM      4  C   UNL     1       7.083   6.161  16.358  0.00  0.00    +0.000 A 
ATOM      5  C   UNL     1       5.973   6.735  16.991  0.00  0.00    +0.000 A 
ATOM      6  C   UNL     1       4.881   5.962  17.445  0.00  0.00    +0.000 A 
ENDROOT
BRANCH   6   7
ATOM      7  C   UNL     1       3.734   6.637  18.121  0.00  0.00    +0.000 A 
ATOM      8  C   UNL     1       3.356   6.342  19.445  0.00  0.00    +0.000 A 
ATOM      9  C   UNL     1       2.341   7.049  20.099  0.00  0.00    +0.000 A 
ATOM     10  C   UNL     1       1.624   8.024  19.417  0.00  0.00    +0.000 A 
ATOM     11  C   UNL     1       1.919   8.286  18.084  0.00  0.00    +0.000 A 
ATOM     12  C   UNL     1       2.967   7.610  17.450  0.00  0.00    +0.000 A 
ENDBRANCH   6   7
BRANCH   1  15
ATOM     13  O   UNL     1       5.058   3.108  19.566  0.00  0.00    +0.000 OA
ATOM     14  C   UNL     1       4.078   3.003  18.838  0.00  0.00    +0.000 C 
ATOM     15  N   UNL     1       3.931   3.687  17.633  0.00  0.00    +0.000 N 
ATOM     16  H   UNL     1       3.417   3.194  16.912  0.00  0.00    +0.000 HD
BRANCH  14  17
ATOM     17  C   UNL     1       2.873   2.128  19.182  0.00  0.00    +0.000 C 
ATOM     18  C   UNL     1       2.488   2.203  20.664  0.00  0.00    +0.000 C 
ATOM     19  C   UNL     1       1.830   3.520  21.077  0.00  0.00    +0.000 C 
ATOM     20  C   UNL     1       0.708   3.940  20.133  0.00  0.00    +0.000 C 
ATOM     21  C   UNL     1       1.127   3.893  18.668  0.00  0.00    +0.000 C 
ATOM     22  C   UNL     1       1.691   2.523  18.289  0.00  0.00    +0.000 C 
ENDBRANCH  14  17
ENDBRANCH   1  15
TORSDOF 3
ENDMDL
MODEL 4
REMARK VINA RESULT:      -8.2      1.034      2.025
REMARK  Name = 
REMARK  3 active torsions:
REMARK  status: ('A' for Active; 'I' for Inactive)
REMARK    1  A    between atoms: C_2  and  C_16
REMARK    2  A    between atoms: N_3  and  C_4
REMARK    3  A    between atoms: C_9  and  C_10
REMARK                            x       y       z     vdW  Elec       q    Type
REMARK                         _______ _______ _______ _____ _____    ______ ____
ROOT
ATOM      1  C   UNL     1       3.474   4.390  20.038  0.00  0.00    +0.000 A 
ATOM      2  C   UNL     1       3.578   3.082  20.545  0.00  0.00    +0.000 A 
ATOM      3  C   UNL     1       2.461   2.421  21.044  0.00  0.00    +0.000 A 
ATOM      4  C   UNL     1       1.241   3.078  21.079  0.00  0.00    +0.000 A 
ATOM      5  C   UNL     1       1.138   4.391  20.602  0.00  0.00    +0.000 A 
ATOM      6  C   UNL     1       2.239   5.079  20.045  0.00  0.00    +0.000 A 
ENDROOT
BRANCH   6   7
ATOM      7  C   UNL     1       2.057   6.474  19.546  0.00  0.00    +0.000 A 
ATOM      8  C   UNL     1       1.611   7.521  20.376  0.00  0.00    +0.000 A 
ATOM      9  C   UNL     1       1.535   8.842  19.923  0.00  0.00    +0.000 A 
ATOM     10  C   UNL     1       1.835   9.140  18.599  0.00  0.00    +0.000 A 
ATOM     11  C   UNL     1       2.203   8.117  17.732  0.00  0.00    +0.000 A 
ATOM     12  C   UNL     1       2.324   6.806  18.204  0.00  0.00    +0.000 A 
ENDBRANCH   6   7
BRANCH   1  15
ATOM     13  O   UNL     1       4.598   3.574  17.607  0.00  0.00    +0.000 OA
ATOM     14  C   UNL     1       5.121   4.483  18.242  0.00  0.00    +0.000 C 
ATOM     15  N   UNL     1       4.638   4.953  19.461  0.00  0.00    +0.000 N 
ATOM     16  H   UNL     1       5.343   5.283  20.110  0.00  0.00    +0.000 HD
BRANCH  14  17
ATOM     17  C   UNL     1       6.357   5.238  17.754  0.00  0.00    +0.000 C 
ATOM     18  C   UNL     1       7.221   4.407  16.798  0.00  0.00    +0.000 C 
ATOM     19  C   UNL     1       6.613   4.214  15.407  0.00  0.00    +0.000 C 
ATOM     20  C   UNL     1       6.109   5.518  14.798  0.00  0.00    +0.000 C 
ATOM     21  C   UNL     1       5.223   6.308  15.754  0.00  0.00    +0.000 C 
ATOM     22  C   UNL     1       5.918   6.551  17.095  0.00  0.00    +0.000 C 
ENDBRANCH  14  17
ENDBRANCH   1  15
TORSDOF 3
ENDMDL
MODEL 5
REMARK VINA RESULT:      -8.1      0.098      1.051
REMARK  Name = 
REMARK  3 active torsions:
REMARK  status: ('A' for Active; 'I' for Inactive)
REMARK    1  A    between atoms: C_2  and  C_16
REMARK    2  A    between atoms: N_3  and  C_4
REMARK    3  A    between atoms: C_9  and  C_10
REMARK                            x       y       z     vdW  Elec       q    Type
REMARK                         _______ _______ _______ _____ _____    ______ ____
ROOT
ATOM      1  C   UNL     1       2.996   3.834  19.140  0.00  0.00    +0.000 A 
ATOM      2  C   UNL     1       2.981   2.495  19.570  0.00  0.00    +0.000 A 
ATOM      3  C   UNL     1       2.054   2.060  20.511  0.00  0.00    +0.000 A 
ATOM      4  C   UNL     1       1.164   2.970  21.060  0.00  0.00    +0.000 A 
ATOM      5  C   UNL     1       1.193   4.311  20.655  0.00  0.00    +0.000 A 
ATOM      6  C   UNL     1       2.089   4.781  19.668  0.00  0.00    +0.000 A 
ENDROOT
BRANCH   6   7
ATOM      7  C   UNL     1       2.061   6.221  19.278  0.00  0.00    +0.000 A 
ATOM      8  C   UNL     1       1.753   7.247  20.193  0.00  0.00    +0.000 A 
ATOM      9  C   UNL     1       1.823   8.598  19.839  0.00  0.00    +0.000 A 
ATOM     10  C   UNL     1       2.131   8.959  18.533  0.00  0.00    +0.000 A 
ATOM     11  C   UNL     1       2.363   7.969  17.585  0.00  0.00    +0.000 A 
ATOM     12  C   UNL     1       2.339   6.620  17.956  0.00  0.00    +0.000 A 
ENDBRANCH   6   7
BRANCH   1  15
ATOM     13  O   UNL     1       5.776   3.948  19.450  0.00  0.00    +0.000 OA
ATOM     14  C   UNL     1       5.278   4.196  18.358  0.00  0.00    +0.000 C 
ATOM     15  N   UNL     1       3.908   4.170  18.109  0.00  0.00    +0.000 N 
ATOM     16  H   UNL     1       3.577   4.837  17.422  0.00  0.00    +0.000 HD
BRANCH  14  17
ATOM     17  C   UNL     1       6.107   4.534  17.120  0.00  0.00    +0.000 C 
ATOM     18  C   UNL     1       5.597   5.779  16.385  0.00  0.00    +0.000 C 
ATOM     19  C   UNL     1       5.877   7.097  17.110  0.00  0.00    +0.000 C 
ATOM     20  C   UNL     1       7.323   7.215  17.579  0.00  0.00    +0.000 C 
ATOM     21  C   UNL     1       7.796   5.981  18.339  0.00  0.00    +0.000 C 
ATOM     22  C   UNL     1       7.576   4.703  17.528  0.00  0.00    +0.000 C 
ENDBRANCH  14  17
ENDBRANCH   1  15
TORSDOF 3
ENDMDL
MODEL 6
REMARK VINA RESULT:      -8.0      1.238      4.812
REMARK  Name = 
REMARK  3 active torsions:
REMARK  status: ('A' for Active; 'I' for Inactive)
REMARK    1  A    between atoms: C_2  and  C_16
REMARK    2  A    between atoms: N_3  and  C_4
REMARK    3  A    between atoms: C_9  and  C_10
REMARK                            x       y       z     vdW  Elec       q    Type
REMARK                         _______ _______ _______ _____ _____    ______ ____
ROOT
ATOM      1  C   UNL     1       4.849   4.387  16.972  0.00  0.00    +0.000 A 
ATOM      2  C   UNL     1       5.857   3.747  16.229  0.00  0.00    +0.000 A 
ATOM      3  C   UNL     1       6.940   4.464  15.731  0.00  0.00    +0.000 A 
ATOM      4  C   UNL     1       7.000   5.834  15.937  0.00  0.00    +0.000 A 
ATOM      5  C   UNL     1       5.984   6.481  16.652  0.00  0.00    +0.000 A 
ATOM      6  C   UNL     1       4.893   5.779  17.212  0.00  0.00    +0.000 A 
ENDROOT
BRANCH   6   7
ATOM      7  C   UNL     1       3.849   6.530  17.971  0.00  0.00    +0.000 A 
ATOM      8  C   UNL     1       3.026   7.500  17.366  0.00  0.00    +0.000 A 
ATOM      9  C   UNL     1       1.989   8.128  18.064  0.00  0.00    +0.000 A 
ATOM     10  C   UNL     1       1.795   7.855  19.412  0.00  0.00    +0.000 A 
ATOM     11  C   UNL     1       2.640   6.961  20.060  0.00  0.00    +0.000 A 
ATOM     12  C   UNL     1       3.645   6.300  19.346  0.00  0.00    +0.000 A 
ENDBRANCH   6   7
BRANCH   1  15
ATOM     13  O   UNL     1       5.029   3.078  19.441  0.00  0.00    +0.000 OA
ATOM     14  C   UNL     1       4.014   2.959  18.764  0.00  0.00    +0.000 C 
ATOM     15  N   UNL     1       3.835   3.566  17.524  0.00  0.00    +0.000 N 
ATOM     16  H   UNL     1       3.273   3.045  16.861  0.00  0.00    +0.000 HD
BRANCH  14  17
ATOM     17  C   UNL     1       2.799   2.150  19.218  0.00  0.00    +0.000 C 
ATOM     18  C   UNL     1       2.534   2.270  20.724  0.00  0.00    +0.000 C 
ATOM     19  C   UNL     1       1.973   3.626  21.157  0.00  0.00    +0.000 C 
ATOM     20  C   UNL     1       0.803   4.084  20.292  0.00  0.00    +0.000 C 
ATOM     21  C   UNL     1       1.104   3.989  18.800  0.00  0.00    +0.000 C 
ATOM     22  C   UNL     1       1.572   2.587  18.409  0.00  0.00    +0.000 C 
ENDBRANCH  14  17
ENDBRANCH   1  15
TORSDOF 3
ENDMDL
MODEL 7
REMARK VINA RESULT:      -7.9      1.846      5.047
REMARK  Name = 
REMARK  3 active torsions:
REMARK  status: ('A' for Active; 'I' for Inactive)
REMARK    1  A    between atoms: C_2  and  C_16
REMARK    2  A    between atoms: N_3  and  C_4
REMARK    3  A    between atoms: C_9  and  C_10
REMARK                            x       y       z     vdW  Elec       q    Type
REMARK                         _______ _______ _______ _____ _____    ______ ____
ROOT
ATOM      1  C   UNL     1       4.631   4.209  16.879  0.00  0.00    +0.000 A 
ATOM      2  C   UNL     1       5.488   3.641  15.920  0.00  0.00    +0.000 A 
ATOM      3  C   UNL     1       6.261   4.447  15.090  0.00  0.00    +0.000 A 
ATOM      4  C   UNL     1       6.150   5.826  15.185  0.00  0.00    +0.000 A 
ATOM      5  C   UNL     1       5.276   6.396  16.120  0.00  0.00    +0.000 A 
ATOM      6  C   UNL     1       4.510   5.611  17.011  0.00  0.00    +0.000 A 
ENDROOT
BRANCH   6   7
ATOM      7  C   UNL     1       3.605   6.285  17.989  0.00  0.00    +0.000 A 
ATOM      8  C   UNL     1       3.555   5.918  19.348  0.00  0.00    +0.000 A 
ATOM      9  C   UNL     1       2.774   6.619  20.274  0.00  0.00    +0.000 A 
ATOM     10  C   UNL     1       1.962   7.662  19.848  0.00  0.00    +0.000 A 
ATOM     11  C   UNL     1       1.927   7.998  18.499  0.00  0.00    +0.000 A 
ATOM     12  C   UNL     1       2.747   7.326  17.586  0.00  0.00    +0.000 A 
ENDBRANCH   6   7
BRANCH   1  15
ATOM     13  O   UNL     1       1.940   3.477  16.624  0.00  0.00    +0.000 OA
ATOM     14  C   UNL     1       2.612   3.009  17.537  0.00  0.00    +0.000 C 
ATOM     15  N   UNL     1       3.954   3.317  17.747  0.00  0.00    +0.000 N 
ATOM     16  H   UNL     1       4.253   3.325  18.715  0.00  0.00    +0.000 HD
BRANCH  14  17
ATOM     17  C   UNL     1       2.064   1.997  18.543  0.00  0.00    +0.000 C 
ATOM     18  C   UNL     1       2.985   1.804  19.753  0.00  0.00    +0.000 C 
ATOM     19  C   UNL     1       2.999   2.983  20.728  0.00  0.00    +0.000 C 
ATOM     20  C   UNL     1       1.598   3.460  21.097  0.00  0.00    +0.000 C 
ATOM     21  C   UNL     1       0.713   3.680  19.875  0.00  0.00    +0.000 C 
ATOM     22  C   UNL     1       0.663   2.437  18.986  0.00  0.00    +0.000 C 
ENDBRANCH  14  17
ENDBRANCH   1  15
TORSDOF 3
ENDMDL
MODEL 8
REMARK VINA RESULT:      -7.8      1.149      1.256
REMARK  Name = 
REMARK  3 active torsions:
REMARK  status: ('A' for Active; 'I' for Inactive)
REMARK    1  A    between atoms: C_2  and  C_16
REMARK    2  A    between atoms: N_3  and  C_4
REMARK    3  A    between atoms: C_9  and  C_10
REMARK                            x       y       z     vdW  Elec       q    Type
REMARK                         _______ _______ _______ _____ _____    ______ ____
ROOT
ATOM      1  C   UNL     1       3.537   4.544  19.401  0.00  0.00    +0.000 A 
ATOM      2  C   UNL     1       3.783   3.243  19.875  0.00  0.00    +0.000 A 
ATOM      3  C   UNL     1       3.001   2.693  20.884  0.00  0.00    +0.000 A 
ATOM      4  C   UNL     1       1.994   3.455  21.457  0.00  0.00    +0.000 A 
ATOM      5  C   UNL     1       1.763   4.762  21.008  0.00  0.00    +0.000 A 
ATOM      6  C   UNL     1       2.506   5.339  19.954  0.00  0.00    +0.000 A 
ENDROOT
BRANCH   6   7
ATOM      7  C   UNL     1       2.201   6.734  19.519  0.00  0.00    +0.000 A 
ATOM      8  C   UNL     1       2.417   7.179  18.200  0.00  0.00    +0.000 A 
ATOM      9  C   UNL     1       2.039   8.459  17.780  0.00  0.00    +0.000 A 
ATOM     10  C   UNL     1       1.500   9.357  18.693  0.00  0.00    +0.000 A 
ATOM     11  C   UNL     1       1.346   8.976  20.021  0.00  0.00    +0.000 A 
ATOM     12  C   UNL     1       1.681   7.679  20.424  0.00  0.00    +0.000 A 
ENDBRANCH   6   7
BRANCH   1  15
ATOM     13  O   UNL     1       3.661   3.268  16.912  0.00  0.00    +0.000 OA
ATOM     14  C   UNL     1       4.311   4.290  17.102  0.00  0.00    +0.000 C 
ATOM     15  N   UNL     1       4.317   4.991  18.306  0.00  0.00    +0.000 N 
ATOM     16  H   UNL     1       5.189   5.451  18.539  0.00  0.00    +0.000 HD
BRANCH  14  17
ATOM     17  C   UNL     1       5.174   4.943  16.023  0.00  0.00    +0.000 C 
ATOM     18  C   UNL     1       5.235   6.470  16.154  0.00  0.00    +0.000 C 
ATOM     19  C   UNL     1       6.077   6.967  17.331  0.00  0.00    +0.000 C 
ATOM     20  C   UNL     1       7.442   6.293  17.407  0.00  0.00    +0.000 C 
ATOM     21  C   UNL     1       7.352   4.774  17.311  0.00  0.00    +0.000 C 
ATOM     22  C   UNL     1       6.581   4.333  16.066  0.00  0.00    +0.000 C 
ENDBRANCH  14  17
ENDBRANCH   1  15
TORSDOF 3
ENDMDL
MODEL 9
REMARK VINA RESULT:      -7.8      1.009      1.861
REMARK  Name = 
REMARK  3 active torsions:
REMARK  status: ('A' for Active; 'I' for Inactive)
REMARK    1  A    between atoms: C_2  and  C_16
REMARK    2  A    between atoms: N_3  and  C_4
REMARK    3  A    between atoms: C_9  and  C_10
REMARK                            x       y       z     vdW  Elec       q    Type
REMARK                         _______ _______ _______ _____ _____    ______ ____
ROOT
ATOM      1  C   UNL     1       2.973   4.646  18.951  0.00  0.00    +0.000 A 
ATOM      2  C   UNL     1       3.121   3.248  18.999  0.00  0.00    +0.000 A 
ATOM      3  C   UNL     1       2.268   2.468  19.772  0.00  0.00    +0.000 A 
ATOM      4  C   UNL     1       1.288   3.084  20.536  0.00  0.00    +0.000 A 
ATOM      5  C   UNL     1       1.156   4.478  20.513  0.00  0.00    +0.000 A 
ATOM      6  C   UNL     1       1.973   5.300  19.705  0.00  0.00    +0.000 A 
ENDROOT
BRANCH   6   7
ATOM      7  C   UNL     1       1.772   6.780  19.723  0.00  0.00    +0.000 A 
ATOM      8  C   UNL     1       2.010   7.588  18.594  0.00  0.00    +0.000 A 
ATOM      9  C   UNL     1       1.727   8.958  18.593  0.00  0.00    +0.000 A 
ATOM     10  C   UNL     1       1.265   9.571  19.751  0.00  0.00    +0.000 A 
ATOM     11  C   UNL     1       1.094   8.817  20.906  0.00  0.00    +0.000 A 
ATOM     12  C   UNL     1       1.333   7.439  20.887  0.00  0.00    +0.000 A 
ENDBRANCH   6   7
BRANCH   1  15
ATOM     13  O   UNL     1       5.590   5.443  19.548  0.00  0.00    +0.000 OA
ATOM     14  C   UNL     1       5.113   5.704  18.450  0.00  0.00    +0.000 C 
ATOM     15  N   UNL     1       3.821   5.354  18.064  0.00  0.00    +0.000 N 
ATOM     16  H   UNL     1       3.365   6.001  17.432  0.00  0.00    +0.000 HD
BRANCH  14  17
ATOM     17  C   UNL     1       5.894   6.422  17.350  0.00  0.00    +0.000 C 
ATOM     18  C   UNL     1       7.360   5.977  17.275  0.00  0.00    +0.000 C 
ATOM     19  C   UNL     1       7.562   4.573  16.700  0.00  0.00    +0.000 C 
ATOM     20  C   UNL     1       6.788   4.349  15.406  0.00  0.00    +0.000 C 
ATOM     21  C   UNL     1       5.326   4.765  15.517  0.00  0.00    +0.000 C 
ATOM     22  C   UNL     1       5.187   6.207  16.007  0.00  0.00    +0.000 C 
ENDBRANCH  14  17
ENDBRANCH   1  15
TORSDOF 3
ENDMDL
