MODEL 1
REMARK VINA RESULT:      -7.9      0.000      0.000
REMARK  Name = 
REMARK  5 active torsions:
REMARK  status: ('A' for Active; 'I' for Inactive)
REMARK    1  A    between atoms: C_1  and  C_2
REMARK    2  A    between atoms: C_6  and  C_7
REMARK    3  A    between atoms: C_8  and  C_9
REMARK    4  A    between atoms: N_11  and  C_12
REMARK    5  A    between atoms: C_12  and  C_13
REMARK                            x       y       z     vdW  Elec       q    Type
REMARK                         _______ _______ _______ _____ _____    ______ ____
ROOT
ATOM      1  C   UNL     1       1.170   2.229  22.228  0.00  0.00    +0.000 C 
ATOM      2  C   UNL     1       1.939   3.072  21.254  0.00  0.00    +0.000 A 
ATOM      3  C   UNL     1       1.318   4.307  20.781  0.00  0.00    +0.000 A 
ATOM      4  C   UNL     1       1.981   5.085  19.911  0.00  0.00    +0.000 A 
ATOM      5  N   UNL     1       3.254   4.709  19.474  0.00  0.00    +0.000 N 
ATOM      6  C   UNL     1       4.125   5.332  18.600  0.00  0.00    +0.000 A 
ATOM      7  C   UNL     1       3.849   6.612  17.899  0.00  0.00    +0.000 C 
ATOM      8  C   UNL     1       5.243   4.507  18.546  0.00  0.00    +0.000 A 
ATOM      9  N   UNL     1       5.072   3.401  19.370  0.00  0.00    +0.000 NA
ATOM     10  C   UNL     1       3.879   3.542  19.906  0.00  0.00    +0.000 A 
ATOM     11  C   UNL     1       3.169   2.715  20.823  0.00  0.00    +0.000 A 
ENDROOT
BRANCH   8  12
ATOM     12  C   UNL     1       6.463   4.703  17.750  0.00  0.00    +0.000 C 
ATOM     13  O   UNL     1       7.591   4.452  18.164  0.00  0.00    +0.000 OA
ATOM     14  N   UNL     1       6.201   5.197  16.494  0.00  0.00    +0.000 N 
ATOM     15  H   UNL     1       5.221   5.243  16.229  0.00  0.00    +0.000 HD
BRANCH  14  16
ATOM     16  C   UNL     1       7.232   5.425  15.511  0.00  0.00    +0.000 C 
BRANCH  16  17
ATOM     17  C   UNL     1       6.942   4.761  14.185  0.00  0.00    +0.000 A 
ATOM     18  C   UNL     1       5.861   3.882  14.018  0.00  0.00    +0.000 A 
ATOM     19  C   UNL     1       5.599   3.296  12.778  0.00  0.00    +0.000 A 
ATOM     20  C   UNL     1       6.401   3.597  11.679  0.00  0.00    +0.000 A 
ATOM     21  C   UNL     1       7.455   4.496  11.817  0.00  0.00    +0.000 A 
ATOM     22  C   UNL     1       7.720   5.079  13.060  0.00  0.00    +0.000 A 
ENDBRANCH  16  17
ENDBRANCH  14  16
ENDBRANCH   8  12
TORSDOF 3
ENDMDL
MODEL 2
REMARK VINA RESULT:      -7.6      1.536      1.891
REMARK  Name = 
REMARK  5 active torsions:
REMARK  status: ('A' for Active; 'I' for Inactive)
REMARK    1  A    between atoms: C_1  and  C_2
REMARK    2  A    between atoms: C_6  and  C_7
REMARK    3  A    between atoms: C_8  and  C_9
REMARK    4  A    between atoms: N_11  and  C_12
REMARK    5  A    between atoms: C_12  and  C_13
REMARK                            x       y       z     vdW  Elec       q    Type
REMARK                         _______ _______ _______ _____ _____    ______ ____
ROOT
ATOM      1  C   UNL     1       1.522   2.569  21.581  0.00  0.00    +0.000 C 
ATOM      2  C   UNL     1       2.069   3.557  20.594  0.00  0.00    +0.000 A 
ATOM      3  C   UNL     1       1.609   4.941  20.686  0.00  0.00    +0.000 A 
ATOM      4  C   UNL     1       2.082   5.851  19.819  0.00  0.00    +0.000 A 
ATOM      5  N   UNL     1       3.008   5.466  18.846  0.00  0.00    +0.000 N 
ATOM      6  C   UNL     1       3.635   6.205  17.859  0.00  0.00    +0.000 A 
ATOM      7  C   UNL     1       3.420   7.655  17.623  0.00  0.00    +0.000 C 
ATOM      8  C   UNL     1       4.455   5.302  17.192  0.00  0.00    +0.000 A 
ATOM      9  N   UNL     1       4.343   4.036  17.751  0.00  0.00    +0.000 NA
ATOM     10  C   UNL     1       3.473   4.159  18.730  0.00  0.00    +0.000 A 
ATOM     11  C   UNL     1       2.963   3.195  19.647  0.00  0.00    +0.000 A 
ENDROOT
BRANCH   8  12
ATOM     12  C   UNL     1       5.334   5.571  16.044  0.00  0.00    +0.000 C 
ATOM     13  O   UNL     1       5.834   6.668  15.815  0.00  0.00    +0.000 OA
ATOM     14  N   UNL     1       5.533   4.460  15.259  0.00  0.00    +0.000 N 
ATOM     15  H   UNL     1       5.168   3.585  15.625  0.00  0.00    +0.000 HD
BRANCH  14  16
ATOM     16  C   UNL     1       6.398   4.461  14.104  0.00  0.00    +0.000 C 
BRANCH  16  17
ATOM     17  C   UNL     1       5.857   3.637  12.959  0.00  0.00    +0.000 A 
ATOM     18  C   UNL     1       4.594   3.887  12.400  0.00  0.00    +0.000 A 
ATOM     19  C   UNL     1       4.123   3.126  11.327  0.00  0.00    +0.000 A 
ATOM     20  C   UNL     1       4.915   2.118  10.784  0.00  0.00    +0.000 A 
ATOM     21  C   UNL     1       6.185   1.881  11.302  0.00  0.00    +0.000 A 
ATOM     22  C   UNL     1       6.656   2.639  12.378  0.00  0.00    +0.000 A 
ENDBRANCH  16  17
ENDBRANCH  14  16
ENDBRANCH   8  12
TORSDOF 3
ENDMDL
MODEL 3
REMARK VINA RESULT:      -7.6      3.713      5.295
REMARK  Name = 
REMARK  5 active torsions:
REMARK  status: ('A' for Active; 'I' for Inactive)
REMARK    1  A    between atoms: C_1  and  C_2
REMARK    2  A    between atoms: C_6  and  C_7
REMARK    3  A    between atoms: C_8  and  C_9
REMARK    4  A    between atoms: N_11  and  C_12
REMARK    5  A    between atoms: C_12  and  C_13
REMARK                            x       y       z     vdW  Elec       q    Type
REMARK                         _______ _______ _______ _____ _____    ______ ____
ROOT
ATOM      1  C   UNL     1      -1.085  10.970  23.038  0.00  0.00    +0.000 C 
ATOM      2  C   UNL     1      -0.289  10.250  21.990  0.00  0.00    +0.000 A 
ATOM      3  C   UNL     1       0.085  10.991  20.787  0.00  0.00    +0.000 A 
ATOM      4  C   UNL     1       0.800  10.376  19.831  0.00  0.00    +0.000 A 
ATOM      5  N   UNL     1       1.180   9.042  19.999  0.00  0.00    +0.000 N 
ATOM      6  C   UNL     1       1.908   8.204  19.175  0.00  0.00    +0.000 A 
ATOM      7  C   UNL     1       2.460   8.590  17.851  0.00  0.00    +0.000 C 
ATOM      8  C   UNL     1       1.982   6.994  19.855  0.00  0.00    +0.000 A 
ATOM      9  N   UNL     1       1.318   7.078  21.073  0.00  0.00    +0.000 NA
ATOM     10  C   UNL     1       0.845   8.305  21.132  0.00  0.00    +0.000 A 
ATOM     11  C   UNL     1       0.081   8.959  22.140  0.00  0.00    +0.000 A 
ENDROOT
BRANCH   8  12
ATOM     12  C   UNL     1       2.638   5.756  19.411  0.00  0.00    +0.000 C 
ATOM     13  O   UNL     1       2.050   4.844  18.839  0.00  0.00    +0.000 OA
ATOM     14  N   UNL     1       3.981   5.734  19.707  0.00  0.00    +0.000 N 
ATOM     15  H   UNL     1       4.371   6.600  20.067  0.00  0.00    +0.000 HD
BRANCH  14  16
ATOM     16  C   UNL     1       4.850   4.647  19.327  0.00  0.00    +0.000 C 
BRANCH  16  17
ATOM     17  C   UNL     1       5.434   4.814  17.943  0.00  0.00    +0.000 A 
ATOM     18  C   UNL     1       6.502   5.689  17.691  0.00  0.00    +0.000 A 
ATOM     19  C   UNL     1       7.040   5.811  16.408  0.00  0.00    +0.000 A 
ATOM     20  C   UNL     1       6.535   5.044  15.362  0.00  0.00    +0.000 A 
ATOM     21  C   UNL     1       5.500   4.143  15.601  0.00  0.00    +0.000 A 
ATOM     22  C   UNL     1       4.958   4.024  16.884  0.00  0.00    +0.000 A 
ENDBRANCH  16  17
ENDBRANCH  14  16
ENDBRANCH   8  12
TORSDOF 3
ENDMDL
MODEL 4
REMARK VINA RESULT:      -7.6      3.804      5.423
REMARK  Name = 
REMARK  5 active torsions:
REMARK  status: ('A' for Active; 'I' for Inactive)
REMARK    1  A    between atoms: C_1  and  C_2
REMARK    2  A    between atoms: C_6  and  C_7
REMARK    3  A    between atoms: C_8  and  C_9
REMARK    4  A    between atoms: N_11  and  C_12
REMARK    5  A    between atoms: C_12  and  C_13
REMARK                            x       y       z     vdW  Elec       q    Type
REMARK                         _______ _______ _______ _____ _____    ______ ____
ROOT
ATOM      1  C   UNL     1      -0.819  11.585  22.627  0.00  0.00    +0.000 C 
ATOM      2  C   UNL     1      -0.088  10.678  21.682  0.00  0.00    +0.000 A 
ATOM      3  C   UNL     1       0.326  11.225  20.392  0.00  0.00    +0.000 A 
ATOM      4  C   UNL     1       0.985  10.440  19.526  0.00  0.00    +0.000 A 
ATOM      5  N   UNL     1       1.270   9.116  19.868  0.00  0.00    +0.000 N 
ATOM      6  C   UNL     1       1.929   8.126  19.161  0.00  0.00    +0.000 A 
ATOM      7  C   UNL     1       2.492   8.293  17.797  0.00  0.00    +0.000 C 
ATOM      8  C   UNL     1       1.923   7.014  19.995  0.00  0.00    +0.000 A 
ATOM      9  N   UNL     1       1.279   7.306  21.192  0.00  0.00    +0.000 NA
ATOM     10  C   UNL     1       0.896   8.560  21.088  0.00  0.00    +0.000 A 
ATOM     11  C   UNL     1       0.190   9.395  22.002  0.00  0.00    +0.000 A 
ENDROOT
BRANCH   8  12
ATOM     12  C   UNL     1       2.485   5.684  19.718  0.00  0.00    +0.000 C 
ATOM     13  O   UNL     1       1.799   4.686  19.519  0.00  0.00    +0.000 OA
ATOM     14  N   UNL     1       3.860   5.684  19.707  0.00  0.00    +0.000 N 
ATOM     15  H   UNL     1       4.306   6.595  19.760  0.00  0.00    +0.000 HD
BRANCH  14  16
ATOM     16  C   UNL     1       4.640   4.508  19.409  0.00  0.00    +0.000 C 
BRANCH  16  17
ATOM     17  C   UNL     1       5.344   4.589  18.074  0.00  0.00    +0.000 A 
ATOM     18  C   UNL     1       4.634   4.668  16.866  0.00  0.00    +0.000 A 
ATOM     19  C   UNL     1       5.306   4.763  15.646  0.00  0.00    +0.000 A 
ATOM     20  C   UNL     1       6.698   4.803  15.615  0.00  0.00    +0.000 A 
ATOM     21  C   UNL     1       7.418   4.762  16.806  0.00  0.00    +0.000 A 
ATOM     22  C   UNL     1       6.746   4.662  18.027  0.00  0.00    +0.000 A 
ENDBRANCH  16  17
ENDBRANCH  14  16
ENDBRANCH   8  12
TORSDOF 3
ENDMDL
MODEL 5
REMARK VINA RESULT:      -7.5      4.614      7.915
REMARK  Name = 
REMARK  5 active torsions:
REMARK  status: ('A' for Active; 'I' for Inactive)
REMARK    1  A    between atoms: C_1  and  C_2
REMARK    2  A    between atoms: C_6  and  C_7
REMARK    3  A    between atoms: C_8  and  C_9
REMARK    4  A    between atoms: N_11  and  C_12
REMARK    5  A    between atoms: C_12  and  C_13
REMARK                            x       y       z     vdW  Elec       q    Type
REMARK                         _______ _______ _______ _____ _____    ______ ____
ROOT
ATOM      1  C   UNL     1       5.808   3.724  15.546  0.00  0.00    +0.000 C 
ATOM      2  C   UNL     1       4.883   4.210  16.623  0.00  0.00    +0.000 A 
ATOM      3  C   UNL     1       4.315   3.218  17.534  0.00  0.00    +0.000 A 
ATOM      4  C   UNL     1       3.486   3.620  18.511  0.00  0.00    +0.000 A 
ATOM      5  N   UNL     1       3.181   4.977  18.646  0.00  0.00    +0.000 N 
ATOM      6  C   UNL     1       2.371   5.630  19.558  0.00  0.00    +0.000 A 
ATOM      7  C   UNL     1       1.607   4.961  20.642  0.00  0.00    +0.000 C 
ATOM      8  C   UNL     1       2.447   6.975  19.217  0.00  0.00    +0.000 A 
ATOM      9  N   UNL     1       3.286   7.155  18.124  0.00  0.00    +0.000 NA
ATOM     10  C   UNL     1       3.704   5.951  17.800  0.00  0.00    +0.000 A 
ATOM     11  C   UNL     1       4.578   5.519  16.761  0.00  0.00    +0.000 A 
ENDROOT
BRANCH   8  12
ATOM     12  C   UNL     1       1.761   8.103  19.865  0.00  0.00    +0.000 C 
ATOM     13  O   UNL     1       1.503   8.141  21.064  0.00  0.00    +0.000 OA
ATOM     14  N   UNL     1       1.442   9.106  18.981  0.00  0.00    +0.000 N 
ATOM     15  H   UNL     1       1.821   9.011  18.043  0.00  0.00    +0.000 HD
BRANCH  14  16
ATOM     16  C   UNL     1       0.811  10.338  19.388  0.00  0.00    +0.000 C 
BRANCH  16  17
ATOM     17  C   UNL     1      -0.548  10.542  18.758  0.00  0.00    +0.000 A 
ATOM     18  C   UNL     1      -0.962   9.806  17.638  0.00  0.00    +0.000 A 
ATOM     19  C   UNL     1      -2.231   9.996  17.085  0.00  0.00    +0.000 A 
ATOM     20  C   UNL     1      -3.113  10.910  17.657  0.00  0.00    +0.000 A 
ATOM     21  C   UNL     1      -2.732  11.623  18.791  0.00  0.00    +0.000 A 
ATOM     22  C   UNL     1      -1.461  11.436  19.342  0.00  0.00    +0.000 A 
ENDBRANCH  16  17
ENDBRANCH  14  16
ENDBRANCH   8  12
TORSDOF 3
ENDMDL
MODEL 6
REMARK VINA RESULT:      -7.5      1.636      2.098
REMARK  Name = 
REMARK  5 active torsions:
REMARK  status: ('A' for Active; 'I' for Inactive)
REMARK    1  A    between atoms: C_1  and  C_2
REMARK    2  A    between atoms: C_6  and  C_7
REMARK    3  A    between atoms: C_8  and  C_9
REMARK    4  A    between atoms: N_11  and  C_12
REMARK    5  A    between atoms: C_12  and  C_13
REMARK                            x       y       z     vdW  Elec       q    Type
REMARK                         _______ _______ _______ _____ _____    ______ ____
ROOT
ATOM      1  C   UNL     1       1.414   2.584  21.256  0.00  0.00    +0.000 C 
ATOM      2  C   UNL     1       2.005   3.598  20.322  0.00  0.00    +0.000 A 
ATOM      3  C   UNL     1       1.676   5.004  20.544  0.00  0.00    +0.000 A 
ATOM      4  C   UNL     1       2.191   5.938  19.728  0.00  0.00    +0.000 A 
ATOM      5  N   UNL     1       3.035   5.555  18.683  0.00  0.00    +0.000 N 
ATOM      6  C   UNL     1       3.683   6.315  17.726  0.00  0.00    +0.000 A 
ATOM      7  C   UNL     1       3.590   7.793  17.614  0.00  0.00    +0.000 C 
ATOM      8  C   UNL     1       4.389   5.403  16.951  0.00  0.00    +0.000 A 
ATOM      9  N   UNL     1       4.188   4.109  17.415  0.00  0.00    +0.000 NA
ATOM     10  C   UNL     1       3.375   4.226  18.443  0.00  0.00    +0.000 A 
ATOM     11  C   UNL     1       2.820   3.239  19.307  0.00  0.00    +0.000 A 
ENDROOT
BRANCH   8  12
ATOM     12  C   UNL     1       5.239   5.687  15.785  0.00  0.00    +0.000 C 
ATOM     13  O   UNL     1       5.433   6.817  15.347  0.00  0.00    +0.000 OA
ATOM     14  N   UNL     1       5.789   4.550  15.241  0.00  0.00    +0.000 N 
ATOM     15  H   UNL     1       5.653   3.693  15.770  0.00  0.00    +0.000 HD
BRANCH  14  16
ATOM     16  C   UNL     1       6.698   4.578  14.122  0.00  0.00    +0.000 C 
BRANCH  16  17
ATOM     17  C   UNL     1       6.232   3.731  12.960  0.00  0.00    +0.000 A 
ATOM     18  C   UNL     1       7.103   2.867  12.278  0.00  0.00    +0.000 A 
ATOM     19  C   UNL     1       6.645   2.078  11.221  0.00  0.00    +0.000 A 
ATOM     20  C   UNL     1       5.306   2.123  10.843  0.00  0.00    +0.000 A 
ATOM     21  C   UNL     1       4.420   2.947  11.532  0.00  0.00    +0.000 A 
ATOM     22  C   UNL     1       4.878   3.741  12.587  0.00  0.00    +0.000 A 
ENDBRANCH  16  17
ENDBRANCH  14  16
ENDBRANCH   8  12
TORSDOF 3
ENDMDL
MODEL 7
REMARK VINA RESULT:      -7.4      1.057      1.526
REMARK  Name = 
REMARK  5 active torsions:
REMARK  status: ('A' for Active; 'I' for Inactive)
REMARK    1  A    between atoms: C_1  and  C_2
REMARK    2  A    between atoms: C_6  and  C_7
REMARK    3  A    between atoms: C_8  and  C_9
REMARK    4  A    between atoms: N_11  and  C_12
REMARK    5  A    between atoms: C_12  and  C_13
REMARK                            x       y       z     vdW  Elec       q    Type
REMARK                         _______ _______ _______ _____ _____    ______ ____
ROOT
ATOM      1  C   UNL     1       1.510   2.451  21.848  0.00  0.00    +0.000 C 
ATOM      2  C   UNL     1       2.035   3.503  20.917  0.00  0.00    +0.000 A 
ATOM      3  C   UNL     1       1.269   4.740  20.783  0.00  0.00    +0.000 A 
ATOM      4  C   UNL     1       1.713   5.703  19.960  0.00  0.00    +0.000 A 
ATOM      5  N   UNL     1       2.900   5.514  19.248  0.00  0.00    +0.000 N 
ATOM      6  C   UNL     1       3.557   6.342  18.356  0.00  0.00    +0.000 A 
ATOM      7  C   UNL     1       3.084   7.690  17.949  0.00  0.00    +0.000 C 
ATOM      8  C   UNL     1       4.689   5.637  17.965  0.00  0.00    +0.000 A 
ATOM      9  N   UNL     1       4.737   4.401  18.600  0.00  0.00    +0.000 NA
ATOM     10  C   UNL     1       3.659   4.350  19.352  0.00  0.00    +0.000 A 
ATOM     11  C   UNL     1       3.180   3.328  20.221  0.00  0.00    +0.000 A 
ENDROOT
BRANCH   8  12
ATOM     12  C   UNL     1       5.726   6.063  17.014  0.00  0.00    +0.000 C 
ATOM     13  O   UNL     1       6.101   7.226  16.897  0.00  0.00    +0.000 OA
ATOM     14  N   UNL     1       6.227   5.018  16.274  0.00  0.00    +0.000 N 
ATOM     15  H   UNL     1       5.925   4.090  16.554  0.00  0.00    +0.000 HD
BRANCH  14  16
ATOM     16  C   UNL     1       7.289   5.179  15.311  0.00  0.00    +0.000 C 
BRANCH  16  17
ATOM     17  C   UNL     1       6.935   4.637  13.945  0.00  0.00    +0.000 A 
ATOM     18  C   UNL     1       7.748   4.869  12.825  0.00  0.00    +0.000 A 
ATOM     19  C   UNL     1       7.412   4.340  11.576  0.00  0.00    +0.000 A 
ATOM     20  C   UNL     1       6.271   3.555  11.432  0.00  0.00    +0.000 A 
ATOM     21  C   UNL     1       5.474   3.284  12.541  0.00  0.00    +0.000 A 
ATOM     22  C   UNL     1       5.806   3.817  13.790  0.00  0.00    +0.000 A 
ENDBRANCH  16  17
ENDBRANCH  14  16
ENDBRANCH   8  12
TORSDOF 3
ENDMDL
MODEL 8
REMARK VINA RESULT:      -7.3      4.399      7.893
REMARK  Name = 
REMARK  5 active torsions:
REMARK  status: ('A' for Active; 'I' for Inactive)
REMARK    1  A    between atoms: C_1  and  C_2
REMARK    2  A    between atoms: C_6  and  C_7
REMARK    3  A    between atoms: C_8  and  C_9
REMARK    4  A    between atoms: N_11  and  C_12
REMARK    5  A    between atoms: C_12  and  C_13
REMARK                            x       y       z     vdW  Elec       q    Type
REMARK                         _______ _______ _______ _____ _____    ______ ____
ROOT
ATOM      1  C   UNL     1       6.768   4.878  14.463  0.00  0.00    +0.000 C 
ATOM      2  C   UNL     1       5.716   4.994  15.526  0.00  0.00    +0.000 A 
ATOM      3  C   UNL     1       5.113   3.761  16.029  0.00  0.00    +0.000 A 
ATOM      4  C   UNL     1       4.172   3.830  16.983  0.00  0.00    +0.000 A 
ATOM      5  N   UNL     1       3.783   5.074  17.485  0.00  0.00    +0.000 N 
ATOM      6  C   UNL     1       2.853   5.403  18.455  0.00  0.00    +0.000 A 
ATOM      7  C   UNL     1       2.022   4.420  19.196  0.00  0.00    +0.000 C 
ATOM      8  C   UNL     1       2.892   6.789  18.545  0.00  0.00    +0.000 A 
ATOM      9  N   UNL     1       3.824   7.310  17.656  0.00  0.00    +0.000 NA
ATOM     10  C   UNL     1       4.336   6.270  17.034  0.00  0.00    +0.000 A 
ATOM     11  C   UNL     1       5.330   6.192  16.016  0.00  0.00    +0.000 A 
ENDROOT
BRANCH   8  12
ATOM     12  C   UNL     1       2.086   7.652  19.421  0.00  0.00    +0.000 C 
ATOM     13  O   UNL     1       1.749   7.338  20.558  0.00  0.00    +0.000 OA
ATOM     14  N   UNL     1       1.754   8.847  18.826  0.00  0.00    +0.000 N 
ATOM     15  H   UNL     1       2.198   9.038  17.933  0.00  0.00    +0.000 HD
BRANCH  14  16
ATOM     16  C   UNL     1       1.010   9.880  19.505  0.00  0.00    +0.000 C 
BRANCH  16  17
ATOM     17  C   UNL     1      -0.163  10.390  18.701  0.00  0.00    +0.000 A 
ATOM     18  C   UNL     1      -0.547  11.740  18.728  0.00  0.00    +0.000 A 
ATOM     19  C   UNL     1      -1.622  12.193  17.960  0.00  0.00    +0.000 A 
ATOM     20  C   UNL     1      -2.315  11.310  17.136  0.00  0.00    +0.000 A 
ATOM     21  C   UNL     1      -1.924   9.975  17.069  0.00  0.00    +0.000 A 
ATOM     22  C   UNL     1      -0.852   9.519  17.841  0.00  0.00    +0.000 A 
ENDBRANCH  16  17
ENDBRANCH  14  16
ENDBRANCH   8  12
TORSDOF 3
ENDMDL
MODEL 9
REMARK VINA RESULT:      -7.3      2.118      3.464
REMARK  Name = 
REMARK  5 active torsions:
REMARK  status: ('A' for Active; 'I' for Inactive)
REMARK    1  A    between atoms: C_1  and  C_2
REMARK    2  A    between atoms: C_6  and  C_7
REMARK    3  A    between atoms: C_8  and  C_9
REMARK    4  A    between atoms: N_11  and  C_12
REMARK    5  A    between atoms: C_12  and  C_13
REMARK                            x       y       z     vdW  Elec       q    Type
REMARK                         _______ _______ _______ _____ _____    ______ ____
ROOT
ATOM      1  C   UNL     1       1.050   9.212  19.101  0.00  0.00    +0.000 C 
ATOM      2  C   UNL     1       2.078   8.149  18.847  0.00  0.00    +0.000 A 
ATOM      3  C   UNL     1       2.157   7.036  19.790  0.00  0.00    +0.000 A 
ATOM      4  C   UNL     1       3.064   6.067  19.590  0.00  0.00    +0.000 A 
ATOM      5  N   UNL     1       3.915   6.131  18.484  0.00  0.00    +0.000 N 
ATOM      6  C   UNL     1       4.912   5.269  18.065  0.00  0.00    +0.000 A 
ATOM      7  C   UNL     1       5.303   4.022  18.769  0.00  0.00    +0.000 C 
ATOM      8  C   UNL     1       5.420   5.835  16.900  0.00  0.00    +0.000 A 
ATOM      9  N   UNL     1       4.753   7.017  16.602  0.00  0.00    +0.000 NA
ATOM     10  C   UNL     1       3.867   7.173  17.561  0.00  0.00    +0.000 A 
ATOM     11  C   UNL     1       2.908   8.203  17.782  0.00  0.00    +0.000 A 
ENDROOT
BRANCH   8  12
ATOM     12  C   UNL     1       6.510   5.322  16.058  0.00  0.00    +0.000 C 
ATOM     13  O   UNL     1       7.598   4.966  16.499  0.00  0.00    +0.000 OA
ATOM     14  N   UNL     1       6.176   5.286  14.724  0.00  0.00    +0.000 N 
ATOM     15  H   UNL     1       5.205   5.488  14.503  0.00  0.00    +0.000 HD
BRANCH  14  16
ATOM     16  C   UNL     1       7.062   4.775  13.708  0.00  0.00    +0.000 C 
BRANCH  16  17
ATOM     17  C   UNL     1       6.376   3.836  12.743  0.00  0.00    +0.000 A 
ATOM     18  C   UNL     1       7.071   2.802  12.096  0.00  0.00    +0.000 A 
ATOM     19  C   UNL     1       6.412   1.932  11.225  0.00  0.00    +0.000 A 
ATOM     20  C   UNL     1       5.044   2.069  11.002  0.00  0.00    +0.000 A 
ATOM     21  C   UNL     1       4.331   3.066  11.664  0.00  0.00    +0.000 A 
ATOM     22  C   UNL     1       4.991   3.939  12.533  0.00  0.00    +0.000 A 
ENDBRANCH  16  17
ENDBRANCH  14  16
ENDBRANCH   8  12
TORSDOF 3
ENDMDL
