MODEL 1
REMARK VINA RESULT:      -7.5      0.000      0.000
REMARK  Name = 
REMARK  11 active torsions:
REMARK  status: ('A' for Active; 'I' for Inactive)
REMARK    1  A    between atoms: C_1  and  C_2
REMARK    2  A    between atoms: C_4  and  N_5
REMARK    3  A    between atoms: C_7  and  C_8
REMARK    4  A    between atoms: C_8  and  C_9
REMARK    5  A    between atoms: C_13  and  O_14
REMARK    6  A    between atoms: O_14  and  C_15
REMARK    7  A    between atoms: C_15  and  C_16
REMARK    8  A    between atoms: C_16  and  N_17
REMARK    9  A    between atoms: N_17  and  C_18
REMARK   10  A    between atoms: C_18  and  C_19
REMARK   11  A    between atoms: C_19  and  C_20
REMARK                            x       y       z     vdW  Elec       q    Type
REMARK                         _______ _______ _______ _____ _____    ______ ____
ROOT
ATOM      1  C   UNL     1       3.255   4.328  18.971  0.00  0.00    +0.000 C 
ATOM      2  C   UNL     1       2.769   3.239  19.905  0.00  0.00    +0.000 C 
ATOM      3  N   UNL     1       2.411   3.946  21.130  0.00  0.00    +0.000 NA
ATOM      4  C   UNL     1       1.680   5.107  20.625  0.00  0.00    +0.000 C 
ATOM      5  C   UNL     1       2.277   5.479  19.243  0.00  0.00    +0.000 C 
ATOM      6  H   UNL     1       3.290   4.294  21.582  0.00  0.00    +0.000 HD
ENDROOT
BRANCH   1   7
ATOM      7  C   UNL     1       3.341   3.915  17.490  0.00  0.00    +0.000 C 
BRANCH   7  13
ATOM      8  C   UNL     1       7.473   6.812  17.455  0.00  0.00    +0.000 C 
ATOM      9  C   UNL     1       6.601   5.776  16.807  0.00  0.00    +0.000 A 
ATOM     10  C   UNL     1       6.963   5.196  15.584  0.00  0.00    +0.000 A 
ATOM     11  C   UNL     1       6.130   4.228  15.007  0.00  0.00    +0.000 A 
ATOM     12  N   UNL     1       4.987   3.856  15.639  0.00  0.00    +0.000 NA
ATOM     13  C   UNL     1       4.606   4.396  16.830  0.00  0.00    +0.000 A 
ATOM     14  C   UNL     1       5.413   5.374  17.433  0.00  0.00    +0.000 A 
BRANCH  11  15
ATOM     15  N   UNL     1       6.478   3.626  13.772  0.00  0.00    +0.000 N 
ATOM     16  H   UNL     1       6.531   4.183  12.909  0.00  0.00    +0.000 HD
ATOM     17  H   UNL     1       6.680   2.617  13.730  0.00  0.00    +0.000 HD
ENDBRANCH  11  15
ENDBRANCH   7  13
ENDBRANCH   1   7
BRANCH   5  18
ATOM     18  O   UNL     1       3.008   6.695  19.244  0.00  0.00    +0.000 OA
BRANCH  18  19
ATOM     19  C   UNL     1       2.149   7.796  19.024  0.00  0.00    +0.000 C 
BRANCH  19  20
ATOM     20  C   UNL     1       2.515   8.455  17.700  0.00  0.00    +0.000 C 
BRANCH  20  21
ATOM     21  N   UNL     1       1.868   9.771  17.616  0.00  0.00    +0.000 NA
ATOM     22  H   UNL     1       1.687   9.981  16.605  0.00  0.00    +0.000 HD
BRANCH  21  23
ATOM     23  C   UNL     1       0.571   9.820  18.303  0.00  0.00    +0.000 C 
BRANCH  23  24
ATOM     24  C   UNL     1       0.390  11.114  19.116  0.00  0.00    +0.000 C 
BRANCH  24  25
ATOM     25  C   UNL     1      -0.054  10.828  20.530  0.00  0.00    +0.000 A 
ATOM     26  C   UNL     1      -0.049   9.514  21.028  0.00  0.00    +0.000 A 
ATOM     27  C   UNL     1      -0.457   9.256  22.340  0.00  0.00    +0.000 A 
ATOM     28  C   UNL     1      -0.876  10.305  23.163  0.00  0.00    +0.000 A 
ATOM     29  C   UNL     1      -0.889  11.613  22.676  0.00  0.00    +0.000 A 
ATOM     30  F   UNL     1      -1.299  12.631  23.474  0.00  0.00    +0.000 F 
ATOM     31  C   UNL     1      -0.479  11.877  21.364  0.00  0.00    +0.000 A 
ENDBRANCH  24  25
ENDBRANCH  23  24
ENDBRANCH  21  23
ENDBRANCH  20  21
ENDBRANCH  19  20
ENDBRANCH  18  19
ENDBRANCH   5  18
TORSDOF 10
ENDMDL
MODEL 2
REMARK VINA RESULT:      -7.5      2.652      3.387
REMARK  Name = 
REMARK  11 active torsions:
REMARK  status: ('A' for Active; 'I' for Inactive)
REMARK    1  A    between atoms: C_1  and  C_2
REMARK    2  A    between atoms: C_4  and  N_5
REMARK    3  A    between atoms: C_7  and  C_8
REMARK    4  A    between atoms: C_8  and  C_9
REMARK    5  A    between atoms: C_13  and  O_14
REMARK    6  A    between atoms: O_14  and  C_15
REMARK    7  A    between atoms: C_15  and  C_16
REMARK    8  A    between atoms: C_16  and  N_17
REMARK    9  A    between atoms: N_17  and  C_18
REMARK   10  A    between atoms: C_18  and  C_19
REMARK   11  A    between atoms: C_19  and  C_20
REMARK                            x       y       z     vdW  Elec       q    Type
REMARK                         _______ _______ _______ _____ _____    ______ ____
ROOT
ATOM      1  C   UNL     1       3.005   3.995  19.619  0.00  0.00    +0.000 C 
ATOM      2  C   UNL     1       3.406   2.622  20.120  0.00  0.00    +0.000 C 
ATOM      3  N   UNL     1       2.929   2.587  21.498  0.00  0.00    +0.000 NA
ATOM      4  C   UNL     1       1.588   3.160  21.385  0.00  0.00    +0.000 C 
ATOM      5  C   UNL     1       1.609   4.190  20.226  0.00  0.00    +0.000 C 
ATOM      6  H   UNL     1       3.510   3.246  22.069  0.00  0.00    +0.000 HD
ENDROOT
BRANCH   1   7
ATOM      7  C   UNL     1       3.051   4.159  18.088  0.00  0.00    +0.000 C 
BRANCH   7  13
ATOM      8  C   UNL     1       6.368   4.003  14.288  0.00  0.00    +0.000 C 
ATOM      9  C   UNL     1       6.059   4.215  15.742  0.00  0.00    +0.000 A 
ATOM     10  C   UNL     1       7.069   4.567  16.647  0.00  0.00    +0.000 A 
ATOM     11  C   UNL     1       6.748   4.762  17.997  0.00  0.00    +0.000 A 
ATOM     12  N   UNL     1       5.464   4.616  18.415  0.00  0.00    +0.000 NA
ATOM     13  C   UNL     1       4.457   4.276  17.563  0.00  0.00    +0.000 A 
ATOM     14  C   UNL     1       4.744   4.066  16.204  0.00  0.00    +0.000 A 
BRANCH  11  15
ATOM     15  N   UNL     1       7.753   5.123  18.929  0.00  0.00    +0.000 N 
ATOM     16  H   UNL     1       7.584   5.058  19.941  0.00  0.00    +0.000 HD
ATOM     17  H   UNL     1       8.668   5.458  18.595  0.00  0.00    +0.000 HD
ENDBRANCH  11  15
ENDBRANCH   7  13
ENDBRANCH   1   7
BRANCH   5  18
ATOM     18  O   UNL     1       1.493   5.537  20.655  0.00  0.00    +0.000 OA
BRANCH  18  19
ATOM     19  C   UNL     1       2.528   6.329  20.108  0.00  0.00    +0.000 C 
BRANCH  19  20
ATOM     20  C   UNL     1       1.977   7.709  19.778  0.00  0.00    +0.000 C 
BRANCH  20  21
ATOM     21  N   UNL     1       2.290   8.039  18.381  0.00  0.00    +0.000 NA
ATOM     22  H   UNL     1       2.030   7.216  17.786  0.00  0.00    +0.000 HD
BRANCH  21  23
ATOM     23  C   UNL     1       1.529   9.190  17.877  0.00  0.00    +0.000 C 
BRANCH  23  24
ATOM     24  C   UNL     1       0.756   9.912  18.994  0.00  0.00    +0.000 C 
BRANCH  24  25
ATOM     25  C   UNL     1      -0.621  10.334  18.538  0.00  0.00    +0.000 A 
ATOM     26  C   UNL     1      -1.315  11.351  19.214  0.00  0.00    +0.000 A 
ATOM     27  C   UNL     1      -2.587  11.741  18.786  0.00  0.00    +0.000 A 
ATOM     28  C   UNL     1      -3.177  11.117  17.683  0.00  0.00    +0.000 A 
ATOM     29  C   UNL     1      -2.497  10.102  17.007  0.00  0.00    +0.000 A 
ATOM     30  F   UNL     1      -3.071   9.495  15.939  0.00  0.00    +0.000 F 
ATOM     31  C   UNL     1      -1.222   9.710  17.431  0.00  0.00    +0.000 A 
ENDBRANCH  24  25
ENDBRANCH  23  24
ENDBRANCH  21  23
ENDBRANCH  20  21
ENDBRANCH  19  20
ENDBRANCH  18  19
ENDBRANCH   5  18
TORSDOF 10
ENDMDL
MODEL 3
REMARK VINA RESULT:      -7.5      1.989      2.752
REMARK  Name = 
REMARK  11 active torsions:
REMARK  status: ('A' for Active; 'I' for Inactive)
REMARK    1  A    between atoms: C_1  and  C_2
REMARK    2  A    between atoms: C_4  and  N_5
REMARK    3  A    between atoms: C_7  and  C_8
REMARK    4  A    between atoms: C_8  and  C_9
REMARK    5  A    between atoms: C_13  and  O_14
REMARK    6  A    between atoms: O_14  and  C_15
REMARK    7  A    between atoms: C_15  and  C_16
REMARK    8  A    between atoms: C_16  and  N_17
REMARK    9  A    between atoms: N_17  and  C_18
REMARK   10  A    between atoms: C_18  and  C_19
REMARK   11  A    between atoms: C_19  and  C_20
REMARK                            x       y       z     vdW  Elec       q    Type
REMARK                         _______ _______ _______ _____ _____    ______ ____
ROOT
ATOM      1  C   UNL     1       4.225   4.327  17.783  0.00  0.00    +0.000 C 
ATOM      2  C   UNL     1       3.545   3.059  17.308  0.00  0.00    +0.000 C 
ATOM      3  N   UNL     1       2.347   2.960  18.134  0.00  0.00    +0.000 NA
ATOM      4  C   UNL     1       1.835   4.330  18.116  0.00  0.00    +0.000 C 
ATOM      5  C   UNL     1       3.049   5.288  18.002  0.00  0.00    +0.000 C 
ATOM      6  H   UNL     1       2.637   2.741  19.116  0.00  0.00    +0.000 HD
ENDROOT
BRANCH   1   7
ATOM      7  C   UNL     1       5.310   4.870  16.833  0.00  0.00    +0.000 C 
BRANCH   7  13
ATOM      8  C   UNL     1       8.012   9.086  17.462  0.00  0.00    +0.000 C 
ATOM      9  C   UNL     1       7.664   7.685  17.876  0.00  0.00    +0.000 A 
ATOM     10  C   UNL     1       8.290   7.086  18.978  0.00  0.00    +0.000 A 
ATOM     11  C   UNL     1       7.941   5.778  19.342  0.00  0.00    +0.000 A 
ATOM     12  N   UNL     1       6.997   5.108  18.632  0.00  0.00    +0.000 NA
ATOM     13  C   UNL     1       6.367   5.660  17.558  0.00  0.00    +0.000 A 
ATOM     14  C   UNL     1       6.698   6.965  17.160  0.00  0.00    +0.000 A 
BRANCH  11  15
ATOM     15  N   UNL     1       8.558   5.155  20.455  0.00  0.00    +0.000 N 
ATOM     16  H   UNL     1       9.579   5.039  20.497  0.00  0.00    +0.000 HD
ATOM     17  H   UNL     1       7.982   4.808  21.235  0.00  0.00    +0.000 HD
ENDBRANCH  11  15
ENDBRANCH   7  13
ENDBRANCH   1   7
BRANCH   5  18
ATOM     18  O   UNL     1       3.299   6.038  19.180  0.00  0.00    +0.000 OA
BRANCH  18  19
ATOM     19  C   UNL     1       2.387   7.111  19.295  0.00  0.00    +0.000 C 
BRANCH  19  20
ATOM     20  C   UNL     1       2.599   8.071  18.133  0.00  0.00    +0.000 C 
BRANCH  20  21
ATOM     21  N   UNL     1       1.372   8.847  17.911  0.00  0.00    +0.000 NA
ATOM     22  H   UNL     1       0.556   8.258  18.203  0.00  0.00    +0.000 HD
BRANCH  21  23
ATOM     23  C   UNL     1       1.318  10.080  18.706  0.00  0.00    +0.000 C 
BRANCH  23  24
ATOM     24  C   UNL     1      -0.117  10.611  18.862  0.00  0.00    +0.000 C 
BRANCH  24  25
ATOM     25  C   UNL     1      -0.498  10.779  20.313  0.00  0.00    +0.000 A 
ATOM     26  C   UNL     1      -1.313  11.850  20.717  0.00  0.00    +0.000 A 
ATOM     27  C   UNL     1      -1.666  11.999  22.062  0.00  0.00    +0.000 A 
ATOM     28  C   UNL     1      -1.207  11.083  23.012  0.00  0.00    +0.000 A 
ATOM     29  C   UNL     1      -0.393  10.018  22.621  0.00  0.00    +0.000 A 
ATOM     30  F   UNL     1       0.056   9.132  23.544  0.00  0.00    +0.000 F 
ATOM     31  C   UNL     1      -0.039   9.864  21.276  0.00  0.00    +0.000 A 
ENDBRANCH  24  25
ENDBRANCH  23  24
ENDBRANCH  21  23
ENDBRANCH  20  21
ENDBRANCH  19  20
ENDBRANCH  18  19
ENDBRANCH   5  18
TORSDOF 10
ENDMDL
MODEL 4
REMARK VINA RESULT:      -7.5      4.925      8.421
REMARK  Name = 
REMARK  11 active torsions:
REMARK  status: ('A' for Active; 'I' for Inactive)
REMARK    1  A    between atoms: C_1  and  C_2
REMARK    2  A    between atoms: C_4  and  N_5
REMARK    3  A    between atoms: C_7  and  C_8
REMARK    4  A    between atoms: C_8  and  C_9
REMARK    5  A    between atoms: C_13  and  O_14
REMARK    6  A    between atoms: O_14  and  C_15
REMARK    7  A    between atoms: C_15  and  C_16
REMARK    8  A    between atoms: C_16  and  N_17
REMARK    9  A    between atoms: N_17  and  C_18
REMARK   10  A    between atoms: C_18  and  C_19
REMARK   11  A    between atoms: C_19  and  C_20
REMARK                            x       y       z     vdW  Elec       q    Type
REMARK                         _______ _______ _______ _____ _____    ______ ____
ROOT
ATOM      1  C   UNL     1       5.039   4.468  16.904  0.00  0.00    +0.000 C 
ATOM      2  C   UNL     1       5.117   4.075  15.443  0.00  0.00    +0.000 C 
ATOM      3  N   UNL     1       6.018   5.059  14.851  0.00  0.00    +0.000 NA
ATOM      4  C   UNL     1       7.097   5.132  15.834  0.00  0.00    +0.000 C 
ATOM      5  C   UNL     1       6.485   4.864  17.233  0.00  0.00    +0.000 C 
ATOM      6  H   UNL     1       5.533   5.988  14.839  0.00  0.00    +0.000 HD
ENDROOT
BRANCH   1   7
ATOM      7  C   UNL     1       4.459   3.385  17.832  0.00  0.00    +0.000 C 
BRANCH   7  13
ATOM      8  C   UNL     1       1.970   7.242  19.928  0.00  0.00    +0.000 C 
ATOM      9  C   UNL     1       2.413   5.808  19.953  0.00  0.00    +0.000 A 
ATOM     10  C   UNL     1       2.025   4.954  20.995  0.00  0.00    +0.000 A 
ATOM     11  C   UNL     1       2.452   3.620  20.988  0.00  0.00    +0.000 A 
ATOM     12  N   UNL     1       3.228   3.164  19.971  0.00  0.00    +0.000 NA
ATOM     13  C   UNL     1       3.622   3.964  18.942  0.00  0.00    +0.000 A 
ATOM     14  C   UNL     1       3.219   5.309  18.920  0.00  0.00    +0.000 A 
BRANCH  11  15
ATOM     15  N   UNL     1       2.068   2.739  22.029  0.00  0.00    +0.000 N 
ATOM     16  H   UNL     1       2.705   2.003  22.361  0.00  0.00    +0.000 HD
ATOM     17  H   UNL     1       1.138   2.828  22.462  0.00  0.00    +0.000 HD
ENDBRANCH  11  15
ENDBRANCH   7  13
ENDBRANCH   1   7
BRANCH   5  18
ATOM     18  O   UNL     1       6.455   6.006  18.074  0.00  0.00    +0.000 OA
BRANCH  18  19
ATOM     19  C   UNL     1       7.728   6.617  18.137  0.00  0.00    +0.000 C 
BRANCH  19  20
ATOM     20  C   UNL     1       7.590   8.091  17.784  0.00  0.00    +0.000 C 
BRANCH  20  21
ATOM     21  N   UNL     1       8.821   8.800  18.161  0.00  0.00    +0.000 NA
ATOM     22  H   UNL     1       9.419   8.893  17.305  0.00  0.00    +0.000 HD
BRANCH  21  23
ATOM     23  C   UNL     1       8.572  10.158  18.661  0.00  0.00    +0.000 C 
BRANCH  23  24
ATOM     24  C   UNL     1       9.617  10.597  19.701  0.00  0.00    +0.000 C 
BRANCH  24  25
ATOM     25  C   UNL     1      10.537  11.662  19.155  0.00  0.00    +0.000 A 
ATOM     26  C   UNL     1      11.341  12.422  20.021  0.00  0.00    +0.000 A 
ATOM     27  C   UNL     1      12.195  13.405  19.511  0.00  0.00    +0.000 A 
ATOM     28  C   UNL     1      12.250  13.639  18.134  0.00  0.00    +0.000 A 
ATOM     29  C   UNL     1      11.451  12.891  17.265  0.00  0.00    +0.000 A 
ATOM     30  F   UNL     1      11.503  13.120  15.930  0.00  0.00    +0.000 F 
ATOM     31  C   UNL     1      10.598  11.905  17.772  0.00  0.00    +0.000 A 
ENDBRANCH  24  25
ENDBRANCH  23  24
ENDBRANCH  21  23
ENDBRANCH  20  21
ENDBRANCH  19  20
ENDBRANCH  18  19
ENDBRANCH   5  18
TORSDOF 10
ENDMDL
MODEL 5
REMARK VINA RESULT:      -7.4      2.807      3.684
REMARK  Name = 
REMARK  11 active torsions:
REMARK  status: ('A' for Active; 'I' for Inactive)
REMARK    1  A    between atoms: C_1  and  C_2
REMARK    2  A    between atoms: C_4  and  N_5
REMARK    3  A    between atoms: C_7  and  C_8
REMARK    4  A    between atoms: C_8  and  C_9
REMARK    5  A    between atoms: C_13  and  O_14
REMARK    6  A    between atoms: O_14  and  C_15
REMARK    7  A    between atoms: C_15  and  C_16
REMARK    8  A    between atoms: C_16  and  N_17
REMARK    9  A    between atoms: N_17  and  C_18
REMARK   10  A    between atoms: C_18  and  C_19
REMARK   11  A    between atoms: C_19  and  C_20
REMARK                            x       y       z     vdW  Elec       q    Type
REMARK                         _______ _______ _______ _____ _____    ______ ____
ROOT
ATOM      1  C   UNL     1       4.102   4.227  17.998  0.00  0.00    +0.000 C 
ATOM      2  C   UNL     1       3.467   2.854  17.904  0.00  0.00    +0.000 C 
ATOM      3  N   UNL     1       2.152   3.022  18.514  0.00  0.00    +0.000 NA
ATOM      4  C   UNL     1       1.691   4.282  17.933  0.00  0.00    +0.000 C 
ATOM      5  C   UNL     1       2.936   5.171  17.677  0.00  0.00    +0.000 C 
ATOM      6  H   UNL     1       2.280   3.173  19.543  0.00  0.00    +0.000 HD
ENDROOT
BRANCH   1   7
ATOM      7  C   UNL     1       5.337   4.427  17.099  0.00  0.00    +0.000 C 
BRANCH   7  13
ATOM      8  C   UNL     1       7.882   8.775  17.388  0.00  0.00    +0.000 C 
ATOM      9  C   UNL     1       7.604   7.390  17.896  0.00  0.00    +0.000 A 
ATOM     10  C   UNL     1       8.285   6.884  19.011  0.00  0.00    +0.000 A 
ATOM     11  C   UNL     1       8.001   5.589  19.464  0.00  0.00    +0.000 A 
ATOM     12  N   UNL     1       7.065   4.840  18.825  0.00  0.00    +0.000 NA
ATOM     13  C   UNL     1       6.382   5.300  17.740  0.00  0.00    +0.000 A 
ATOM     14  C   UNL     1       6.647   6.591  17.255  0.00  0.00    +0.000 A 
BRANCH  11  15
ATOM     15  N   UNL     1       8.675   5.058  20.592  0.00  0.00    +0.000 N 
ATOM     16  H   UNL     1       9.694   4.914  20.579  0.00  0.00    +0.000 HD
ATOM     17  H   UNL     1       8.145   4.809  21.439  0.00  0.00    +0.000 HD
ENDBRANCH  11  15
ENDBRANCH   7  13
ENDBRANCH   1   7
BRANCH   5  18
ATOM     18  O   UNL     1       3.023   6.296  18.537  0.00  0.00    +0.000 OA
BRANCH  18  19
ATOM     19  C   UNL     1       3.212   7.482  17.793  0.00  0.00    +0.000 C 
BRANCH  19  20
ATOM     20  C   UNL     1       2.143   8.492  18.190  0.00  0.00    +0.000 C 
BRANCH  20  21
ATOM     21  N   UNL     1       1.761   8.273  19.591  0.00  0.00    +0.000 NA
ATOM     22  H   UNL     1       2.615   8.393  20.185  0.00  0.00    +0.000 HD
BRANCH  21  23
ATOM     23  C   UNL     1       0.763   9.237  20.073  0.00  0.00    +0.000 C 
BRANCH  23  24
ATOM     24  C   UNL     1       0.647  10.465  19.154  0.00  0.00    +0.000 C 
BRANCH  24  25
ATOM     25  C   UNL     1      -0.770  10.676  18.678  0.00  0.00    +0.000 A 
ATOM     26  C   UNL     1      -1.589  11.644  19.282  0.00  0.00    +0.000 A 
ATOM     27  C   UNL     1      -2.899  11.839  18.835  0.00  0.00    +0.000 A 
ATOM     28  C   UNL     1      -3.403  11.067  17.784  0.00  0.00    +0.000 A 
ATOM     29  C   UNL     1      -2.598  10.099  17.180  0.00  0.00    +0.000 A 
ATOM     30  F   UNL     1      -3.087   9.348  16.162  0.00  0.00    +0.000 F 
ATOM     31  C   UNL     1      -1.285   9.903  17.622  0.00  0.00    +0.000 A 
ENDBRANCH  24  25
ENDBRANCH  23  24
ENDBRANCH  21  23
ENDBRANCH  20  21
ENDBRANCH  19  20
ENDBRANCH  18  19
ENDBRANCH   5  18
TORSDOF 10
ENDMDL
MODEL 6
REMARK VINA RESULT:      -7.4      5.065      8.424
REMARK  Name = 
REMARK  11 active torsions:
REMARK  status: ('A' for Active; 'I' for Inactive)
REMARK    1  A    between atoms: C_1  and  C_2
REMARK    2  A    between atoms: C_4  and  N_5
REMARK    3  A    between atoms: C_7  and  C_8
REMARK    4  A    between atoms: C_8  and  C_9
REMARK    5  A    between atoms: C_13  and  O_14
REMARK    6  A    between atoms: O_14  and  C_15
REMARK    7  A    between atoms: C_15  and  C_16
REMARK    8  A    between atoms: C_16  and  N_17
REMARK    9  A    between atoms: N_17  and  C_18
REMARK   10  A    between atoms: C_18  and  C_19
REMARK   11  A    between atoms: C_19  and  C_20
REMARK                            x       y       z     vdW  Elec       q    Type
REMARK                         _______ _______ _______ _____ _____    ______ ____
ROOT
ATOM      1  C   UNL     1       5.591   4.801  17.028  0.00  0.00    +0.000 C 
ATOM      2  C   UNL     1       5.465   3.649  16.052  0.00  0.00    +0.000 C 
ATOM      3  N   UNL     1       5.814   4.229  14.760  0.00  0.00    +0.000 NA
ATOM      4  C   UNL     1       6.997   5.026  15.080  0.00  0.00    +0.000 C 
ATOM      5  C   UNL     1       6.849   5.532  16.538  0.00  0.00    +0.000 C 
ATOM      6  H   UNL     1       5.052   4.888  14.475  0.00  0.00    +0.000 HD
ENDROOT
BRANCH   1   7
ATOM      7  C   UNL     1       5.645   4.387  18.511  0.00  0.00    +0.000 C 
BRANCH   7  13
ATOM      8  C   UNL     1       1.658   2.550  21.001  0.00  0.00    +0.000 C 
ATOM      9  C   UNL     1       2.411   3.711  20.419  0.00  0.00    +0.000 A 
ATOM     10  C   UNL     1       1.925   5.020  20.548  0.00  0.00    +0.000 A 
ATOM     11  C   UNL     1       2.652   6.083  19.998  0.00  0.00    +0.000 A 
ATOM     12  N   UNL     1       3.823   5.839  19.353  0.00  0.00    +0.000 NA
ATOM     13  C   UNL     1       4.327   4.582  19.211  0.00  0.00    +0.000 A 
ATOM     14  C   UNL     1       3.620   3.491  19.744  0.00  0.00    +0.000 A 
BRANCH  11  15
ATOM     15  N   UNL     1       2.181   7.414  20.120  0.00  0.00    +0.000 N 
ATOM     16  H   UNL     1       1.173   7.618  20.136  0.00  0.00    +0.000 HD
ATOM     17  H   UNL     1       2.851   8.193  20.191  0.00  0.00    +0.000 HD
ENDBRANCH  11  15
ENDBRANCH   7  13
ENDBRANCH   1   7
BRANCH   5  18
ATOM     18  O   UNL     1       6.622   6.928  16.640  0.00  0.00    +0.000 OA
BRANCH  18  19
ATOM     19  C   UNL     1       7.075   7.421  17.885  0.00  0.00    +0.000 C 
BRANCH  19  20
ATOM     20  C   UNL     1       8.074   8.544  17.641  0.00  0.00    +0.000 C 
BRANCH  20  21
ATOM     21  N   UNL     1       8.923   8.708  18.828  0.00  0.00    +0.000 NA
ATOM     22  H   UNL     1       9.910   8.484  18.557  0.00  0.00    +0.000 HD
BRANCH  21  23
ATOM     23  C   UNL     1       8.922  10.081  19.351  0.00  0.00    +0.000 C 
BRANCH  23  24
ATOM     24  C   UNL     1       8.957  11.132  18.229  0.00  0.00    +0.000 C 
BRANCH  24  25
ATOM     25  C   UNL     1      10.137  12.063  18.371  0.00  0.00    +0.000 A 
ATOM     26  C   UNL     1      11.033  11.921  19.445  0.00  0.00    +0.000 A 
ATOM     27  C   UNL     1      12.126  12.782  19.569  0.00  0.00    +0.000 A 
ATOM     28  C   UNL     1      12.333  13.793  18.627  0.00  0.00    +0.000 A 
ATOM     29  C   UNL     1      11.447  13.945  17.559  0.00  0.00    +0.000 A 
ATOM     30  F   UNL     1      11.646  14.928  16.646  0.00  0.00    +0.000 F 
ATOM     31  C   UNL     1      10.352  13.084  17.428  0.00  0.00    +0.000 A 
ENDBRANCH  24  25
ENDBRANCH  23  24
ENDBRANCH  21  23
ENDBRANCH  20  21
ENDBRANCH  19  20
ENDBRANCH  18  19
ENDBRANCH   5  18
TORSDOF 10
ENDMDL
MODEL 7
REMARK VINA RESULT:      -7.3      3.927      7.728
REMARK  Name = 
REMARK  11 active torsions:
REMARK  status: ('A' for Active; 'I' for Inactive)
REMARK    1  A    between atoms: C_1  and  C_2
REMARK    2  A    between atoms: C_4  and  N_5
REMARK    3  A    between atoms: C_7  and  C_8
REMARK    4  A    between atoms: C_8  and  C_9
REMARK    5  A    between atoms: C_13  and  O_14
REMARK    6  A    between atoms: O_14  and  C_15
REMARK    7  A    between atoms: C_15  and  C_16
REMARK    8  A    between atoms: C_16  and  N_17
REMARK    9  A    between atoms: N_17  and  C_18
REMARK   10  A    between atoms: C_18  and  C_19
REMARK   11  A    between atoms: C_19  and  C_20
REMARK                            x       y       z     vdW  Elec       q    Type
REMARK                         _______ _______ _______ _____ _____    ______ ____
ROOT
ATOM      1  C   UNL     1       2.352   5.549  18.694  0.00  0.00    +0.000 C 
ATOM      2  C   UNL     1       1.532   4.281  18.568  0.00  0.00    +0.000 C 
ATOM      3  N   UNL     1       1.953   3.703  17.296  0.00  0.00    +0.000 NA
ATOM      4  C   UNL     1       3.407   3.847  17.347  0.00  0.00    +0.000 C 
ATOM      5  C   UNL     1       3.729   5.124  18.166  0.00  0.00    +0.000 C 
ATOM      6  H   UNL     1       1.599   4.313  16.520  0.00  0.00    +0.000 HD
ENDROOT
BRANCH   1   7
ATOM      7  C   UNL     1       2.383   6.158  20.108  0.00  0.00    +0.000 C 
BRANCH   7  13
ATOM      8  C   UNL     1      -0.052   9.827  22.572  0.00  0.00    +0.000 C 
ATOM      9  C   UNL     1       0.624   9.313  21.334  0.00  0.00    +0.000 A 
ATOM     10  C   UNL     1       0.751  10.122  20.196  0.00  0.00    +0.000 A 
ATOM     11  C   UNL     1       1.391   9.615  19.058  0.00  0.00    +0.000 A 
ATOM     12  N   UNL     1       1.888   8.350  19.068  0.00  0.00    +0.000 NA
ATOM     13  C   UNL     1       1.784   7.538  20.156  0.00  0.00    +0.000 A 
ATOM     14  C   UNL     1       1.143   8.011  21.312  0.00  0.00    +0.000 A 
BRANCH  11  15
ATOM     15  N   UNL     1       1.534  10.417  17.898  0.00  0.00    +0.000 N 
ATOM     16  H   UNL     1       0.728  10.915  17.498  0.00  0.00    +0.000 HD
ATOM     17  H   UNL     1       2.454  10.504  17.443  0.00  0.00    +0.000 HD
ENDBRANCH  11  15
ENDBRANCH   7  13
ENDBRANCH   1   7
BRANCH   5  18
ATOM     18  O   UNL     1       4.255   6.186  17.386  0.00  0.00    +0.000 OA
BRANCH  18  19
ATOM     19  C   UNL     1       5.555   6.531  17.821  0.00  0.00    +0.000 C 
BRANCH  19  20
ATOM     20  C   UNL     1       6.456   6.701  16.605  0.00  0.00    +0.000 C 
BRANCH  20  21
ATOM     21  N   UNL     1       7.782   7.159  17.042  0.00  0.00    +0.000 NA
ATOM     22  H   UNL     1       8.412   7.178  16.205  0.00  0.00    +0.000 HD
BRANCH  21  23
ATOM     23  C   UNL     1       7.767   8.518  17.599  0.00  0.00    +0.000 C 
BRANCH  23  24
ATOM     24  C   UNL     1       8.687   8.655  18.825  0.00  0.00    +0.000 C 
BRANCH  24  25
ATOM     25  C   UNL     1       9.138  10.082  19.028  0.00  0.00    +0.000 A 
ATOM     26  C   UNL     1       9.460  10.552  20.312  0.00  0.00    +0.000 A 
ATOM     27  C   UNL     1       9.881  11.872  20.495  0.00  0.00    +0.000 A 
ATOM     28  C   UNL     1       9.982  12.734  19.399  0.00  0.00    +0.000 A 
ATOM     29  C   UNL     1       9.660  12.277  18.119  0.00  0.00    +0.000 A 
ATOM     30  F   UNL     1       9.755  13.114  17.056  0.00  0.00    +0.000 F 
ATOM     31  C   UNL     1       9.240  10.956  17.931  0.00  0.00    +0.000 A 
ENDBRANCH  24  25
ENDBRANCH  23  24
ENDBRANCH  21  23
ENDBRANCH  20  21
ENDBRANCH  19  20
ENDBRANCH  18  19
ENDBRANCH   5  18
TORSDOF 10
ENDMDL
MODEL 8
REMARK VINA RESULT:      -7.3      4.935      8.235
REMARK  Name = 
REMARK  11 active torsions:
REMARK  status: ('A' for Active; 'I' for Inactive)
REMARK    1  A    between atoms: C_1  and  C_2
REMARK    2  A    between atoms: C_4  and  N_5
REMARK    3  A    between atoms: C_7  and  C_8
REMARK    4  A    between atoms: C_8  and  C_9
REMARK    5  A    between atoms: C_13  and  O_14
REMARK    6  A    between atoms: O_14  and  C_15
REMARK    7  A    between atoms: C_15  and  C_16
REMARK    8  A    between atoms: C_16  and  N_17
REMARK    9  A    between atoms: N_17  and  C_18
REMARK   10  A    between atoms: C_18  and  C_19
REMARK   11  A    between atoms: C_19  and  C_20
REMARK                            x       y       z     vdW  Elec       q    Type
REMARK                         _______ _______ _______ _____ _____    ______ ____
ROOT
ATOM      1  C   UNL     1       5.723   4.867  16.897  0.00  0.00    +0.000 C 
ATOM      2  C   UNL     1       4.915   4.021  15.934  0.00  0.00    +0.000 C 
ATOM      3  N   UNL     1       5.386   4.426  14.614  0.00  0.00    +0.000 NA
ATOM      4  C   UNL     1       6.837   4.469  14.794  0.00  0.00    +0.000 C 
ATOM      5  C   UNL     1       7.121   4.872  16.264  0.00  0.00    +0.000 C 
ATOM      6  H   UNL     1       5.058   5.404  14.430  0.00  0.00    +0.000 HD
ENDROOT
BRANCH   1   7
ATOM      7  C   UNL     1       5.699   4.380  18.358  0.00  0.00    +0.000 C 
BRANCH   7  13
ATOM      8  C   UNL     1       1.667   6.390  20.632  0.00  0.00    +0.000 C 
ATOM      9  C   UNL     1       2.353   5.221  19.986  0.00  0.00    +0.000 A 
ATOM     10  C   UNL     1       1.692   3.994  19.836  0.00  0.00    +0.000 A 
ATOM     11  C   UNL     1       2.357   2.923  19.226  0.00  0.00    +0.000 A 
ATOM     12  N   UNL     1       3.630   3.084  18.777  0.00  0.00    +0.000 NA
ATOM     13  C   UNL     1       4.301   4.262  18.904  0.00  0.00    +0.000 A 
ATOM     14  C   UNL     1       3.667   5.355  19.518  0.00  0.00    +0.000 A 
BRANCH  11  15
ATOM     15  N   UNL     1       1.707   1.675  19.061  0.00  0.00    +0.000 N 
ATOM     16  H   UNL     1       1.844   0.914  19.739  0.00  0.00    +0.000 HD
ATOM     17  H   UNL     1       1.089   1.519  18.252  0.00  0.00    +0.000 HD
ENDBRANCH  11  15
ENDBRANCH   7  13
ENDBRANCH   1   7
BRANCH   5  18
ATOM     18  O   UNL     1       7.671   6.172  16.405  0.00  0.00    +0.000 OA
BRANCH  18  19
ATOM     19  C   UNL     1       7.325   6.729  17.657  0.00  0.00    +0.000 C 
BRANCH  19  20
ATOM     20  C   UNL     1       7.451   8.245  17.578  0.00  0.00    +0.000 C 
BRANCH  20  21
ATOM     21  N   UNL     1       8.586   8.683  18.401  0.00  0.00    +0.000 NA
ATOM     22  H   UNL     1       9.467   8.329  17.958  0.00  0.00    +0.000 HD
BRANCH  21  23
ATOM     23  C   UNL     1       8.706  10.145  18.485  0.00  0.00    +0.000 C 
BRANCH  23  24
ATOM     24  C   UNL     1       9.641  10.589  19.623  0.00  0.00    +0.000 C 
BRANCH  24  25
ATOM     25  C   UNL     1      10.530  11.734  19.201  0.00  0.00    +0.000 A 
ATOM     26  C   UNL     1      11.173  11.715  17.951  0.00  0.00    +0.000 A 
ATOM     27  C   UNL     1      11.992  12.779  17.564  0.00  0.00    +0.000 A 
ATOM     28  C   UNL     1      12.179  13.868  18.420  0.00  0.00    +0.000 A 
ATOM     29  C   UNL     1      11.549  13.894  19.666  0.00  0.00    +0.000 A 
ATOM     30  F   UNL     1      11.733  14.948  20.498  0.00  0.00    +0.000 F 
ATOM     31  C   UNL     1      10.726  12.832  20.057  0.00  0.00    +0.000 A 
ENDBRANCH  24  25
ENDBRANCH  23  24
ENDBRANCH  21  23
ENDBRANCH  20  21
ENDBRANCH  19  20
ENDBRANCH  18  19
ENDBRANCH   5  18
TORSDOF 10
ENDMDL
MODEL 9
REMARK VINA RESULT:      -7.3      1.826      2.474
REMARK  Name = 
REMARK  11 active torsions:
REMARK  status: ('A' for Active; 'I' for Inactive)
REMARK    1  A    between atoms: C_1  and  C_2
REMARK    2  A    between atoms: C_4  and  N_5
REMARK    3  A    between atoms: C_7  and  C_8
REMARK    4  A    between atoms: C_8  and  C_9
REMARK    5  A    between atoms: C_13  and  O_14
REMARK    6  A    between atoms: O_14  and  C_15
REMARK    7  A    between atoms: C_15  and  C_16
REMARK    8  A    between atoms: C_16  and  N_17
REMARK    9  A    between atoms: N_17  and  C_18
REMARK   10  A    between atoms: C_18  and  C_19
REMARK   11  A    between atoms: C_19  and  C_20
REMARK                            x       y       z     vdW  Elec       q    Type
REMARK                         _______ _______ _______ _____ _____    ______ ____
ROOT
ATOM      1  C   UNL     1       3.215   3.678  19.479  0.00  0.00    +0.000 C 
ATOM      2  C   UNL     1       2.876   2.857  20.706  0.00  0.00    +0.000 C 
ATOM      3  N   UNL     1       1.878   3.653  21.410  0.00  0.00    +0.000 NA
ATOM      4  C   UNL     1       0.993   4.083  20.328  0.00  0.00    +0.000 C 
ATOM      5  C   UNL     1       1.851   4.230  19.044  0.00  0.00    +0.000 C 
ATOM      6  H   UNL     1       2.346   4.507  21.797  0.00  0.00    +0.000 HD
ENDROOT
BRANCH   1   7
ATOM      7  C   UNL     1       3.961   2.907  18.373  0.00  0.00    +0.000 C 
BRANCH   7  13
ATOM      8  C   UNL     1       7.742   6.235  18.678  0.00  0.00    +0.000 C 
ATOM      9  C   UNL     1       6.873   5.318  17.866  0.00  0.00    +0.000 A 
ATOM     10  C   UNL     1       7.077   5.170  16.487  0.00  0.00    +0.000 A 
ATOM     11  C   UNL     1       6.253   4.303  15.758  0.00  0.00    +0.000 A 
ATOM     12  N   UNL     1       5.271   3.610  16.392  0.00  0.00    +0.000 NA
ATOM     13  C   UNL     1       5.047   3.728  17.730  0.00  0.00    +0.000 A 
ATOM     14  C   UNL     1       5.849   4.593  18.491  0.00  0.00    +0.000 A 
BRANCH  11  15
ATOM     15  N   UNL     1       6.443   4.135  14.364  0.00  0.00    +0.000 N 
ATOM     16  H   UNL     1       7.051   3.390  13.999  0.00  0.00    +0.000 HD
ATOM     17  H   UNL     1       5.972   4.767  13.700  0.00  0.00    +0.000 HD
ENDBRANCH  11  15
ENDBRANCH   7  13
ENDBRANCH   1   7
BRANCH   5  18
ATOM     18  O   UNL     1       2.025   5.573  18.623  0.00  0.00    +0.000 OA
BRANCH  18  19
ATOM     19  C   UNL     1       2.672   6.333  19.624  0.00  0.00    +0.000 C 
BRANCH  19  20
ATOM     20  C   UNL     1       2.080   7.736  19.643  0.00  0.00    +0.000 C 
BRANCH  20  21
ATOM     21  N   UNL     1       1.540   8.019  20.979  0.00  0.00    +0.000 NA
ATOM     22  H   UNL     1       2.346   8.153  21.635  0.00  0.00    +0.000 HD
BRANCH  21  23
ATOM     23  C   UNL     1       0.738   9.249  21.027  0.00  0.00    +0.000 C 
BRANCH  23  24
ATOM     24  C   UNL     1       0.951  10.133  19.786  0.00  0.00    +0.000 C 
BRANCH  24  25
ATOM     25  C   UNL     1      -0.351  10.432  19.083  0.00  0.00    +0.000 A 
ATOM     26  C   UNL     1      -0.663   9.809  17.863  0.00  0.00    +0.000 A 
ATOM     27  C   UNL     1      -1.872  10.086  17.218  0.00  0.00    +0.000 A 
ATOM     28  C   UNL     1      -2.776  10.990  17.782  0.00  0.00    +0.000 A 
ATOM     29  C   UNL     1      -2.473  11.618  18.992  0.00  0.00    +0.000 A 
ATOM     30  F   UNL     1      -3.350  12.498  19.538  0.00  0.00    +0.000 F 
ATOM     31  C   UNL     1      -1.266  11.341  19.643  0.00  0.00    +0.000 A 
ENDBRANCH  24  25
ENDBRANCH  23  24
ENDBRANCH  21  23
ENDBRANCH  20  21
ENDBRANCH  19  20
ENDBRANCH  18  19
ENDBRANCH   5  18
TORSDOF 10
ENDMDL
