MODEL 1
REMARK VINA RESULT:      -6.3      0.000      0.000
REMARK  Name = 
REMARK  9 active torsions:
REMARK  status: ('A' for Active; 'I' for Inactive)
REMARK    1  A    between atoms: C_2  and  C_3
REMARK    2  A    between atoms: C_3  and  N_4
REMARK    3  A    between atoms: C_5  and  C_6
REMARK    4  A    between atoms: C_7  and  C_8
REMARK    5  A    between atoms: C_8  and  C_9
REMARK    6  A    between atoms: C_8  and  C_10
REMARK    7  A    between atoms: C_8  and  C_11
REMARK    8  A    between atoms: N_14  and  S_15
REMARK    9  A    between atoms: S_15  and  C_18
REMARK                            x       y       z     vdW  Elec       q    Type
REMARK                         _______ _______ _______ _____ _____    ______ ____
ROOT
ATOM      1  N   UNL     1       3.065   5.854  19.622  0.00  0.00    +0.000 N 
ATOM      2  C   UNL     1       4.077   5.168  18.877  0.00  0.00    +0.000 A 
ATOM      3  C   UNL     1       4.595   3.829  19.316  0.00  0.00    +0.000 C 
ATOM      4  C   UNL     1       4.463   5.791  17.735  0.00  0.00    +0.000 A 
ATOM      5  S   UNL     1       3.529   7.258  17.527  0.00  0.00    +0.000 S 
ATOM      6  C   UNL     1       2.633   7.058  19.041  0.00  0.00    +0.000 A 
ATOM      7  N   UNL     1       1.745   7.901  19.467  0.00  0.00    +0.000 NA
ENDROOT
BRANCH   4   8
ATOM      8  C   UNL     1       5.461   5.463  16.610  0.00  0.00    +0.000 C 
ATOM      9  C   UNL     1       5.255   6.488  15.476  0.00  0.00    +0.000 C 
ATOM     10  C   UNL     1       6.936   5.573  17.100  0.00  0.00    +0.000 C 
ATOM     11  C   UNL     1       5.329   4.046  16.025  0.00  0.00    +0.000 C 
ENDBRANCH   4   8
BRANCH   7  12
ATOM     12  S   UNL     1       1.422   9.208  18.544  0.00  0.00    +0.000 S 
ATOM     13  O   UNL     1       2.603  10.054  18.463  0.00  0.00    +0.000 OA
ATOM     14  O   UNL     1       0.748   8.774  17.328  0.00  0.00    +0.000 OA
BRANCH  12  15
ATOM     15  C   UNL     1       0.231  10.178  19.433  0.00  0.00    +0.000 A 
ATOM     16  C   UNL     1       0.562  10.644  20.708  0.00  0.00    +0.000 A 
ATOM     17  C   UNL     1      -0.247  11.600  21.319  0.00  0.00    +0.000 A 
ATOM     18  C   UNL     1      -1.377  12.084  20.656  0.00  0.00    +0.000 A 
ATOM     19  C   UNL     1      -1.703  11.616  19.382  0.00  0.00    +0.000 A 
ATOM     20  C   UNL     1      -0.898  10.661  18.764  0.00  0.00    +0.000 A 
ENDBRANCH  12  15
ENDBRANCH   7  12
BRANCH   1  21
ATOM     21  C   UNL     1       2.372   5.315  20.792  0.00  0.00    +0.000 C 
BRANCH  21  23
ATOM     22  C   UNL     1       1.083   3.142  20.695  0.00  0.00    +0.000 C 
ATOM     23  C   UNL     1       1.223   4.436  20.376  0.00  0.00    +0.000 C 
ENDBRANCH  21  23
ENDBRANCH   1  21
TORSDOF 5
ENDMDL
MODEL 2
REMARK VINA RESULT:      -6.3      0.330      1.023
REMARK  Name = 
REMARK  9 active torsions:
REMARK  status: ('A' for Active; 'I' for Inactive)
REMARK    1  A    between atoms: C_2  and  C_3
REMARK    2  A    between atoms: C_3  and  N_4
REMARK    3  A    between atoms: C_5  and  C_6
REMARK    4  A    between atoms: C_7  and  C_8
REMARK    5  A    between atoms: C_8  and  C_9
REMARK    6  A    between atoms: C_8  and  C_10
REMARK    7  A    between atoms: C_8  and  C_11
REMARK    8  A    between atoms: N_14  and  S_15
REMARK    9  A    between atoms: S_15  and  C_18
REMARK                            x       y       z     vdW  Elec       q    Type
REMARK                         _______ _______ _______ _____ _____    ______ ____
ROOT
ATOM      1  N   UNL     1       3.070   5.787  19.630  0.00  0.00    +0.000 N 
ATOM      2  C   UNL     1       4.067   5.080  18.885  0.00  0.00    +0.000 A 
ATOM      3  C   UNL     1       4.553   3.728  19.319  0.00  0.00    +0.000 C 
ATOM      4  C   UNL     1       4.470   5.699  17.746  0.00  0.00    +0.000 A 
ATOM      5  S   UNL     1       3.571   7.187  17.542  0.00  0.00    +0.000 S 
ATOM      6  C   UNL     1       2.667   7.004  19.053  0.00  0.00    +0.000 A 
ATOM      7  N   UNL     1       1.799   7.865  19.481  0.00  0.00    +0.000 NA
ENDROOT
BRANCH   4   8
ATOM      8  C   UNL     1       5.462   5.351  16.621  0.00  0.00    +0.000 C 
ATOM      9  C   UNL     1       5.274   6.377  15.485  0.00  0.00    +0.000 C 
ATOM     10  C   UNL     1       6.939   5.437  17.111  0.00  0.00    +0.000 C 
ATOM     11  C   UNL     1       5.306   3.936  16.040  0.00  0.00    +0.000 C 
ENDBRANCH   4   8
BRANCH   7  12
ATOM     12  S   UNL     1       1.508   9.183  18.562  0.00  0.00    +0.000 S 
ATOM     13  O   UNL     1       2.757   9.880  18.297  0.00  0.00    +0.000 OA
ATOM     14  O   UNL     1       0.632   8.808  17.461  0.00  0.00    +0.000 OA
BRANCH  12  15
ATOM     15  C   UNL     1       0.567  10.305  19.564  0.00  0.00    +0.000 A 
ATOM     16  C   UNL     1      -0.393  11.111  18.948  0.00  0.00    +0.000 A 
ATOM     17  C   UNL     1      -1.304  11.814  19.735  0.00  0.00    +0.000 A 
ATOM     18  C   UNL     1      -1.252  11.707  21.126  0.00  0.00    +0.000 A 
ATOM     19  C   UNL     1      -0.291  10.900  21.737  0.00  0.00    +0.000 A 
ATOM     20  C   UNL     1       0.622  10.193  20.957  0.00  0.00    +0.000 A 
ENDBRANCH  12  15
ENDBRANCH   7  12
BRANCH   1  21
ATOM     21  C   UNL     1       2.363   5.260  20.797  0.00  0.00    +0.000 C 
BRANCH  21  23
ATOM     22  C   UNL     1       1.052   3.103  20.642  0.00  0.00    +0.000 C 
ATOM     23  C   UNL     1       1.194   4.409  20.376  0.00  0.00    +0.000 C 
ENDBRANCH  21  23
ENDBRANCH   1  21
TORSDOF 5
ENDMDL
MODEL 3
REMARK VINA RESULT:      -6.2      3.403      7.491
REMARK  Name = 
REMARK  9 active torsions:
REMARK  status: ('A' for Active; 'I' for Inactive)
REMARK    1  A    between atoms: C_2  and  C_3
REMARK    2  A    between atoms: C_3  and  N_4
REMARK    3  A    between atoms: C_5  and  C_6
REMARK    4  A    between atoms: C_7  and  C_8
REMARK    5  A    between atoms: C_8  and  C_9
REMARK    6  A    between atoms: C_8  and  C_10
REMARK    7  A    between atoms: C_8  and  C_11
REMARK    8  A    between atoms: N_14  and  S_15
REMARK    9  A    between atoms: S_15  and  C_18
REMARK                            x       y       z     vdW  Elec       q    Type
REMARK                         _______ _______ _______ _____ _____    ______ ____
ROOT
ATOM      1  N   UNL     1       3.156   5.956  18.042  0.00  0.00    +0.000 N 
ATOM      2  C   UNL     1       2.587   5.003  18.945  0.00  0.00    +0.000 A 
ATOM      3  C   UNL     1       1.191   5.166  19.473  0.00  0.00    +0.000 C 
ATOM      4  C   UNL     1       3.379   3.934  19.217  0.00  0.00    +0.000 A 
ATOM      5  S   UNL     1       4.868   4.066  18.305  0.00  0.00    +0.000 S 
ATOM      6  C   UNL     1       4.441   5.623  17.580  0.00  0.00    +0.000 A 
ATOM      7  N   UNL     1       5.215   6.274  16.769  0.00  0.00    +0.000 NA
ENDROOT
BRANCH   4   8
ATOM      8  C   UNL     1       3.222   2.665  20.072  0.00  0.00    +0.000 C 
ATOM      9  C   UNL     1       2.301   1.688  19.312  0.00  0.00    +0.000 C 
ATOM     10  C   UNL     1       4.590   1.957  20.306  0.00  0.00    +0.000 C 
ATOM     11  C   UNL     1       2.640   2.901  21.477  0.00  0.00    +0.000 C 
ENDBRANCH   4   8
BRANCH   7  12
ATOM     12  S   UNL     1       6.653   5.609  16.379  0.00  0.00    +0.000 S 
ATOM     13  O   UNL     1       7.677   6.641  16.347  0.00  0.00    +0.000 OA
ATOM     14  O   UNL     1       6.851   4.407  17.179  0.00  0.00    +0.000 OA
BRANCH  12  15
ATOM     15  C   UNL     1       6.519   5.052  14.700  0.00  0.00    +0.000 A 
ATOM     16  C   UNL     1       7.559   5.339  13.812  0.00  0.00    +0.000 A 
ATOM     17  C   UNL     1       7.590   4.711  12.568  0.00  0.00    +0.000 A 
ATOM     18  C   UNL     1       6.590   3.801  12.221  0.00  0.00    +0.000 A 
ATOM     19  C   UNL     1       5.553   3.516  13.111  0.00  0.00    +0.000 A 
ATOM     20  C   UNL     1       5.515   4.140  14.357  0.00  0.00    +0.000 A 
ENDBRANCH  12  15
ENDBRANCH   7  12
BRANCH   1  21
ATOM     21  C   UNL     1       2.447   7.101  17.471  0.00  0.00    +0.000 C 
BRANCH  21  23
ATOM     22  C   UNL     1       1.762   9.403  18.261  0.00  0.00    +0.000 C 
ATOM     23  C   UNL     1       2.450   8.264  18.426  0.00  0.00    +0.000 C 
ENDBRANCH  21  23
ENDBRANCH   1  21
TORSDOF 5
ENDMDL
MODEL 4
REMARK VINA RESULT:      -6.1      0.527      1.041
REMARK  Name = 
REMARK  9 active torsions:
REMARK  status: ('A' for Active; 'I' for Inactive)
REMARK    1  A    between atoms: C_2  and  C_3
REMARK    2  A    between atoms: C_3  and  N_4
REMARK    3  A    between atoms: C_5  and  C_6
REMARK    4  A    between atoms: C_7  and  C_8
REMARK    5  A    between atoms: C_8  and  C_9
REMARK    6  A    between atoms: C_8  and  C_10
REMARK    7  A    between atoms: C_8  and  C_11
REMARK    8  A    between atoms: N_14  and  S_15
REMARK    9  A    between atoms: S_15  and  C_18
REMARK                            x       y       z     vdW  Elec       q    Type
REMARK                         _______ _______ _______ _____ _____    ______ ____
ROOT
ATOM      1  N   UNL     1       3.073   5.777  19.650  0.00  0.00    +0.000 N 
ATOM      2  C   UNL     1       4.084   5.095  18.901  0.00  0.00    +0.000 A 
ATOM      3  C   UNL     1       4.590   3.746  19.321  0.00  0.00    +0.000 C 
ATOM      4  C   UNL     1       4.482   5.734  17.771  0.00  0.00    +0.000 A 
ATOM      5  S   UNL     1       3.560   7.211  17.581  0.00  0.00    +0.000 S 
ATOM      6  C   UNL     1       2.653   6.994  19.086  0.00  0.00    +0.000 A 
ATOM      7  N   UNL     1       1.769   7.837  19.521  0.00  0.00    +0.000 NA
ENDROOT
BRANCH   4   8
ATOM      8  C   UNL     1       5.483   5.416  16.646  0.00  0.00    +0.000 C 
ATOM      9  C   UNL     1       6.908   5.581  17.215  0.00  0.00    +0.000 C 
ATOM     10  C   UNL     1       5.332   3.951  16.139  0.00  0.00    +0.000 C 
ATOM     11  C   UNL     1       5.346   6.298  15.393  0.00  0.00    +0.000 C 
ENDBRANCH   4   8
BRANCH   7  12
ATOM     12  S   UNL     1       1.461   9.160  18.617  0.00  0.00    +0.000 S 
ATOM     13  O   UNL     1       2.682   9.934  18.451  0.00  0.00    +0.000 OA
ATOM     14  O   UNL     1       0.680   8.767  17.453  0.00  0.00    +0.000 OA
BRANCH  12  15
ATOM     15  C   UNL     1       0.395  10.199  19.583  0.00  0.00    +0.000 A 
ATOM     16  C   UNL     1       0.100   9.823  20.896  0.00  0.00    +0.000 A 
ATOM     17  C   UNL     1      -0.527  10.733  21.745  0.00  0.00    +0.000 A 
ATOM     18  C   UNL     1      -0.854  12.009  21.280  0.00  0.00    +0.000 A 
ATOM     19  C   UNL     1      -0.557  12.380  19.968  0.00  0.00    +0.000 A 
ATOM     20  C   UNL     1       0.072  11.477  19.114  0.00  0.00    +0.000 A 
ENDBRANCH  12  15
ENDBRANCH   7  12
BRANCH   1  21
ATOM     21  C   UNL     1       2.370   5.224  20.808  0.00  0.00    +0.000 C 
BRANCH  21  23
ATOM     22  C   UNL     1       1.081   3.066  20.534  0.00  0.00    +0.000 C 
ATOM     23  C   UNL     1       1.193   4.392  20.372  0.00  0.00    +0.000 C 
ENDBRANCH  21  23
ENDBRANCH   1  21
TORSDOF 5
ENDMDL
MODEL 5
REMARK VINA RESULT:      -6.0      3.391      7.416
REMARK  Name = 
REMARK  9 active torsions:
REMARK  status: ('A' for Active; 'I' for Inactive)
REMARK    1  A    between atoms: C_2  and  C_3
REMARK    2  A    between atoms: C_3  and  N_4
REMARK    3  A    between atoms: C_5  and  C_6
REMARK    4  A    between atoms: C_7  and  C_8
REMARK    5  A    between atoms: C_8  and  C_9
REMARK    6  A    between atoms: C_8  and  C_10
REMARK    7  A    between atoms: C_8  and  C_11
REMARK    8  A    between atoms: N_14  and  S_15
REMARK    9  A    between atoms: S_15  and  C_18
REMARK                            x       y       z     vdW  Elec       q    Type
REMARK                         _______ _______ _______ _____ _____    ______ ____
ROOT
ATOM      1  N   UNL     1       3.277   6.003  18.075  0.00  0.00    +0.000 N 
ATOM      2  C   UNL     1       2.662   5.025  18.920  0.00  0.00    +0.000 A 
ATOM      3  C   UNL     1       1.230   5.154  19.348  0.00  0.00    +0.000 C 
ATOM      4  C   UNL     1       3.453   3.967  19.233  0.00  0.00    +0.000 A 
ATOM      5  S   UNL     1       5.001   4.140  18.434  0.00  0.00    +0.000 S 
ATOM      6  C   UNL     1       4.598   5.701  17.702  0.00  0.00    +0.000 A 
ATOM      7  N   UNL     1       5.415   6.379  16.959  0.00  0.00    +0.000 NA
ENDROOT
BRANCH   4   8
ATOM      8  C   UNL     1       3.260   2.681  20.056  0.00  0.00    +0.000 C 
ATOM      9  C   UNL     1       2.359   1.727  19.246  0.00  0.00    +0.000 C 
ATOM     10  C   UNL     1       4.615   1.959  20.320  0.00  0.00    +0.000 C 
ATOM     11  C   UNL     1       2.632   2.893  21.445  0.00  0.00    +0.000 C 
ENDBRANCH   4   8
BRANCH   7  12
ATOM     12  S   UNL     1       6.891   5.746  16.665  0.00  0.00    +0.000 S 
ATOM     13  O   UNL     1       7.848   6.819  16.446  0.00  0.00    +0.000 OA
ATOM     14  O   UNL     1       7.166   4.709  17.650  0.00  0.00    +0.000 OA
BRANCH  12  15
ATOM     15  C   UNL     1       6.784   4.909  15.104  0.00  0.00    +0.000 A 
ATOM     16  C   UNL     1       5.672   4.100  14.850  0.00  0.00    +0.000 A 
ATOM     17  C   UNL     1       5.446   3.634  13.557  0.00  0.00    +0.000 A 
ATOM     18  C   UNL     1       6.325   3.977  12.528  0.00  0.00    +0.000 A 
ATOM     19  C   UNL     1       7.433   4.786  12.785  0.00  0.00    +0.000 A 
ATOM     20  C   UNL     1       7.666   5.258  14.076  0.00  0.00    +0.000 A 
ENDBRANCH  12  15
ENDBRANCH   7  12
BRANCH   1  21
ATOM     21  C   UNL     1       2.588   7.143  17.471  0.00  0.00    +0.000 C 
BRANCH  21  23
ATOM     22  C   UNL     1       1.687   9.370  18.263  0.00  0.00    +0.000 C 
ATOM     23  C   UNL     1       2.352   8.227  18.489  0.00  0.00    +0.000 C 
ENDBRANCH  21  23
ENDBRANCH   1  21
TORSDOF 5
ENDMDL
MODEL 6
REMARK VINA RESULT:      -5.9      0.732      1.244
REMARK  Name = 
REMARK  9 active torsions:
REMARK  status: ('A' for Active; 'I' for Inactive)
REMARK    1  A    between atoms: C_2  and  C_3
REMARK    2  A    between atoms: C_3  and  N_4
REMARK    3  A    between atoms: C_5  and  C_6
REMARK    4  A    between atoms: C_7  and  C_8
REMARK    5  A    between atoms: C_8  and  C_9
REMARK    6  A    between atoms: C_8  and  C_10
REMARK    7  A    between atoms: C_8  and  C_11
REMARK    8  A    between atoms: N_14  and  S_15
REMARK    9  A    between atoms: S_15  and  C_18
REMARK                            x       y       z     vdW  Elec       q    Type
REMARK                         _______ _______ _______ _____ _____    ______ ____
ROOT
ATOM      1  N   UNL     1       2.953   6.053  19.596  0.00  0.00    +0.000 N 
ATOM      2  C   UNL     1       3.950   5.316  18.882  0.00  0.00    +0.000 A 
ATOM      3  C   UNL     1       4.438   3.985  19.374  0.00  0.00    +0.000 C 
ATOM      4  C   UNL     1       4.352   5.885  17.716  0.00  0.00    +0.000 A 
ATOM      5  S   UNL     1       3.451   7.362  17.448  0.00  0.00    +0.000 S 
ATOM      6  C   UNL     1       2.548   7.243  18.967  0.00  0.00    +0.000 A 
ATOM      7  N   UNL     1       1.679   8.122  19.357  0.00  0.00    +0.000 NA
ENDROOT
BRANCH   4   8
ATOM      8  C   UNL     1       5.343   5.490  16.607  0.00  0.00    +0.000 C 
ATOM      9  C   UNL     1       4.913   4.119  16.048  0.00  0.00    +0.000 C 
ATOM     10  C   UNL     1       5.331   6.516  15.434  0.00  0.00    +0.000 C 
ATOM     11  C   UNL     1       6.812   5.402  17.057  0.00  0.00    +0.000 C 
ENDBRANCH   4   8
BRANCH   7  12
ATOM     12  S   UNL     1       1.386   9.398  18.382  0.00  0.00    +0.000 S 
ATOM     13  O   UNL     1       2.645   9.948  17.905  0.00  0.00    +0.000 OA
ATOM     14  O   UNL     1       0.338   9.040  17.436  0.00  0.00    +0.000 OA
BRANCH  12  15
ATOM     15  C   UNL     1       0.694  10.672  19.405  0.00  0.00    +0.000 A 
ATOM     16  C   UNL     1       0.922  12.007  19.061  0.00  0.00    +0.000 A 
ATOM     17  C   UNL     1       0.196  13.012  19.698  0.00  0.00    +0.000 A 
ATOM     18  C   UNL     1      -0.751  12.680  20.669  0.00  0.00    +0.000 A 
ATOM     19  C   UNL     1      -0.975  11.345  21.009  0.00  0.00    +0.000 A 
ATOM     20  C   UNL     1      -0.254  10.334  20.376  0.00  0.00    +0.000 A 
ENDBRANCH  12  15
ENDBRANCH   7  12
BRANCH   1  21
ATOM     21  C   UNL     1       2.247   5.577  20.785  0.00  0.00    +0.000 C 
BRANCH  21  23
ATOM     22  C   UNL     1       1.183   3.284  20.838  0.00  0.00    +0.000 C 
ATOM     23  C   UNL     1       1.204   4.556  20.416  0.00  0.00    +0.000 C 
ENDBRANCH  21  23
ENDBRANCH   1  21
TORSDOF 5
ENDMDL
MODEL 7
REMARK VINA RESULT:      -5.9      3.425      8.873
REMARK  Name = 
REMARK  9 active torsions:
REMARK  status: ('A' for Active; 'I' for Inactive)
REMARK    1  A    between atoms: C_2  and  C_3
REMARK    2  A    between atoms: C_3  and  N_4
REMARK    3  A    between atoms: C_5  and  C_6
REMARK    4  A    between atoms: C_7  and  C_8
REMARK    5  A    between atoms: C_8  and  C_9
REMARK    6  A    between atoms: C_8  and  C_10
REMARK    7  A    between atoms: C_8  and  C_11
REMARK    8  A    between atoms: N_14  and  S_15
REMARK    9  A    between atoms: S_15  and  C_18
REMARK                            x       y       z     vdW  Elec       q    Type
REMARK                         _______ _______ _______ _____ _____    ______ ____
ROOT
ATOM      1  N   UNL     1      -3.228  10.779  17.672  0.00  0.00    +0.000 N 
ATOM      2  C   UNL     1      -4.326  11.529  18.199  0.00  0.00    +0.000 A 
ATOM      3  C   UNL     1      -5.684  11.478  17.561  0.00  0.00    +0.000 C 
ATOM      4  C   UNL     1      -4.051  12.218  19.336  0.00  0.00    +0.000 A 
ATOM      5  S   UNL     1      -2.395  11.911  19.816  0.00  0.00    +0.000 S 
ATOM      6  C   UNL     1      -2.045  10.873  18.425  0.00  0.00    +0.000 A 
ATOM      7  N   UNL     1      -0.891  10.323  18.211  0.00  0.00    +0.000 NA
ENDROOT
BRANCH   4   8
ATOM      8  C   UNL     1      -4.868  13.120  20.277  0.00  0.00    +0.000 C 
ATOM      9  C   UNL     1      -3.886  13.827  21.234  0.00  0.00    +0.000 C 
ATOM     10  C   UNL     1      -5.647  14.216  19.489  0.00  0.00    +0.000 C 
ATOM     11  C   UNL     1      -5.931  12.386  21.113  0.00  0.00    +0.000 C 
ENDBRANCH   4   8
BRANCH   7  12
ATOM     12  S   UNL     1       0.299  10.587  19.297  0.00  0.00    +0.000 S 
ATOM     13  O   UNL     1       1.042  11.781  18.927  0.00  0.00    +0.000 OA
ATOM     14  O   UNL     1      -0.248  10.452  20.640  0.00  0.00    +0.000 OA
BRANCH  12  15
ATOM     15  C   UNL     1       1.459   9.257  19.114  0.00  0.00    +0.000 A 
ATOM     16  C   UNL     1       1.524   8.281  20.113  0.00  0.00    +0.000 A 
ATOM     17  C   UNL     1       2.243   7.110  19.880  0.00  0.00    +0.000 A 
ATOM     18  C   UNL     1       2.887   6.919  18.656  0.00  0.00    +0.000 A 
ATOM     19  C   UNL     1       2.818   7.896  17.661  0.00  0.00    +0.000 A 
ATOM     20  C   UNL     1       2.100   9.069  17.886  0.00  0.00    +0.000 A 
ENDBRANCH  12  15
ENDBRANCH   7  12
BRANCH   1  21
ATOM     21  C   UNL     1      -3.313   9.835  16.557  0.00  0.00    +0.000 C 
BRANCH  21  23
ATOM     22  C   UNL     1      -3.387  10.139  14.048  0.00  0.00    +0.000 C 
ATOM     23  C   UNL     1      -2.945  10.504  15.260  0.00  0.00    +0.000 C 
ENDBRANCH  21  23
ENDBRANCH   1  21
TORSDOF 5
ENDMDL
MODEL 8
REMARK VINA RESULT:      -5.9      0.747      1.386
REMARK  Name = 
REMARK  9 active torsions:
REMARK  status: ('A' for Active; 'I' for Inactive)
REMARK    1  A    between atoms: C_2  and  C_3
REMARK    2  A    between atoms: C_3  and  N_4
REMARK    3  A    between atoms: C_5  and  C_6
REMARK    4  A    between atoms: C_7  and  C_8
REMARK    5  A    between atoms: C_8  and  C_9
REMARK    6  A    between atoms: C_8  and  C_10
REMARK    7  A    between atoms: C_8  and  C_11
REMARK    8  A    between atoms: N_14  and  S_15
REMARK    9  A    between atoms: S_15  and  C_18
REMARK                            x       y       z     vdW  Elec       q    Type
REMARK                         _______ _______ _______ _____ _____    ______ ____
ROOT
ATOM      1  N   UNL     1       2.741   6.107  19.646  0.00  0.00    +0.000 N 
ATOM      2  C   UNL     1       3.756   5.353  18.977  0.00  0.00    +0.000 A 
ATOM      3  C   UNL     1       4.141   3.979  19.442  0.00  0.00    +0.000 C 
ATOM      4  C   UNL     1       4.275   5.951  17.874  0.00  0.00    +0.000 A 
ATOM      5  S   UNL     1       3.468   7.482  17.607  0.00  0.00    +0.000 S 
ATOM      6  C   UNL     1       2.443   7.342  19.044  0.00  0.00    +0.000 A 
ATOM      7  N   UNL     1       1.587   8.246  19.407  0.00  0.00    +0.000 NA
ENDROOT
BRANCH   4   8
ATOM      8  C   UNL     1       5.332   5.555  16.828  0.00  0.00    +0.000 C 
ATOM      9  C   UNL     1       6.721   5.652  17.492  0.00  0.00    +0.000 C 
ATOM     10  C   UNL     1       5.132   4.091  16.334  0.00  0.00    +0.000 C 
ATOM     11  C   UNL     1       5.332   6.419  15.554  0.00  0.00    +0.000 C 
ENDBRANCH   4   8
BRANCH   7  12
ATOM     12  S   UNL     1       1.432   9.576  18.474  0.00  0.00    +0.000 S 
ATOM     13  O   UNL     1       2.234  10.656  19.026  0.00  0.00    +0.000 OA
ATOM     14  O   UNL     1       1.582   9.193  17.076  0.00  0.00    +0.000 OA
BRANCH  12  15
ATOM     15  C   UNL     1      -0.246  10.125  18.644  0.00  0.00    +0.000 A 
ATOM     16  C   UNL     1      -0.547  11.068  19.631  0.00  0.00    +0.000 A 
ATOM     17  C   UNL     1      -1.794  11.691  19.625  0.00  0.00    +0.000 A 
ATOM     18  C   UNL     1      -2.729  11.371  18.638  0.00  0.00    +0.000 A 
ATOM     19  C   UNL     1      -2.424  10.428  17.655  0.00  0.00    +0.000 A 
ATOM     20  C   UNL     1      -1.178   9.803  17.653  0.00  0.00    +0.000 A 
ENDBRANCH  12  15
ENDBRANCH   7  12
BRANCH   1  21
ATOM     21  C   UNL     1       1.921   5.615  20.753  0.00  0.00    +0.000 C 
BRANCH  21  23
ATOM     22  C   UNL     1       0.997   3.262  20.783  0.00  0.00    +0.000 C 
ATOM     23  C   UNL     1       1.008   4.510  20.294  0.00  0.00    +0.000 C 
ENDBRANCH  21  23
ENDBRANCH   1  21
TORSDOF 5
ENDMDL
MODEL 9
REMARK VINA RESULT:      -5.8      3.653      7.823
REMARK  Name = 
REMARK  9 active torsions:
REMARK  status: ('A' for Active; 'I' for Inactive)
REMARK    1  A    between atoms: C_2  and  C_3
REMARK    2  A    between atoms: C_3  and  N_4
REMARK    3  A    between atoms: C_5  and  C_6
REMARK    4  A    between atoms: C_7  and  C_8
REMARK    5  A    between atoms: C_8  and  C_9
REMARK    6  A    between atoms: C_8  and  C_10
REMARK    7  A    between atoms: C_8  and  C_11
REMARK    8  A    between atoms: N_14  and  S_15
REMARK    9  A    between atoms: S_15  and  C_18
REMARK                            x       y       z     vdW  Elec       q    Type
REMARK                         _______ _______ _______ _____ _____    ______ ____
ROOT
ATOM      1  N   UNL     1       3.743   6.309  18.195  0.00  0.00    +0.000 N 
ATOM      2  C   UNL     1       2.869   5.734  19.171  0.00  0.00    +0.000 A 
ATOM      3  C   UNL     1       1.805   6.551  19.843  0.00  0.00    +0.000 C 
ATOM      4  C   UNL     1       3.044   4.403  19.377  0.00  0.00    +0.000 A 
ATOM      5  S   UNL     1       4.297   3.808  18.308  0.00  0.00    +0.000 S 
ATOM      6  C   UNL     1       4.635   5.397  17.604  0.00  0.00    +0.000 A 
ATOM      7  N   UNL     1       5.542   5.605  16.702  0.00  0.00    +0.000 NA
ENDROOT
BRANCH   4   8
ATOM      8  C   UNL     1       2.362   3.350  20.268  0.00  0.00    +0.000 C 
ATOM      9  C   UNL     1       3.185   2.048  20.183  0.00  0.00    +0.000 C 
ATOM     10  C   UNL     1       2.319   3.799  21.759  0.00  0.00    +0.000 C 
ATOM     11  C   UNL     1       0.903   3.037  19.894  0.00  0.00    +0.000 C 
ENDBRANCH   4   8
BRANCH   7  12
ATOM     12  S   UNL     1       6.407   4.326  16.173  0.00  0.00    +0.000 S 
ATOM     13  O   UNL     1       7.754   4.387  16.718  0.00  0.00    +0.000 OA
ATOM     14  O   UNL     1       5.608   3.118  16.330  0.00  0.00    +0.000 OA
BRANCH  12  15
ATOM     15  C   UNL     1       6.615   4.540  14.424  0.00  0.00    +0.000 A 
ATOM     16  C   UNL     1       7.601   5.420  13.968  0.00  0.00    +0.000 A 
ATOM     17  C   UNL     1       7.945   5.421  12.618  0.00  0.00    +0.000 A 
ATOM     18  C   UNL     1       7.308   4.548  11.734  0.00  0.00    +0.000 A 
ATOM     19  C   UNL     1       6.324   3.671  12.194  0.00  0.00    +0.000 A 
ATOM     20  C   UNL     1       5.975   3.662  13.543  0.00  0.00    +0.000 A 
ENDBRANCH  12  15
ENDBRANCH   7  12
BRANCH   1  21
ATOM     21  C   UNL     1       3.647   7.675  17.682  0.00  0.00    +0.000 C 
BRANCH  21  23
ATOM     22  C   UNL     1       1.889   9.494  17.691  0.00  0.00    +0.000 C 
ATOM     23  C   UNL     1       2.382   8.338  18.159  0.00  0.00    +0.000 C 
ENDBRANCH  21  23
ENDBRANCH   1  21
TORSDOF 5
ENDMDL
