MODEL 1
REMARK VINA RESULT:      -8.4      0.000      0.000
REMARK  Name = 
REMARK  6 active torsions:
REMARK  status: ('A' for Active; 'I' for Inactive)
REMARK    1  A    between atoms: C_1  and  O_2
REMARK    2  A    between atoms: O_2  and  C_3
REMARK    3  A    between atoms: C_6  and  C_7
REMARK    4  A    between atoms: C_27  and  C_28
REMARK    5  A    between atoms: C_29  and  C_30
REMARK    6  A    between atoms: C_29  and  C_31
REMARK                            x       y       z     vdW  Elec       q    Type
REMARK                         _______ _______ _______ _____ _____    ______ ____
ROOT
ATOM      1  C   UNL     1       1.951   5.824  20.110  0.00  0.00    +0.000 C 
ATOM      2  O   UNL     1       0.765   5.831  20.408  0.00  0.00    +0.000 OA
ATOM      3  N   UNL     1       2.667   6.874  19.582  0.00  0.00    +0.000 N 
ATOM      4  C   UNL     1       2.064   8.035  19.188  0.00  0.00    +0.000 A 
ATOM      5  N   UNL     1       2.338   8.507  17.957  0.00  0.00    +0.000 NA
ATOM      6  N   UNL     1       1.542   9.586  17.828  0.00  0.00    +0.000 N 
ATOM      7  C   UNL     1       0.897   9.854  18.978  0.00  0.00    +0.000 A 
ATOM      8  C   UNL     1       1.216   8.902  19.887  0.00  0.00    +0.000 A 
ATOM      9  C   UNL     1       0.639   9.223  21.195  0.00  0.00    +0.000 C 
ATOM     10  N   UNL     1      -0.062  10.556  20.919  0.00  0.00    +0.000 N 
ATOM     11  C   UNL     1      -0.450  11.255  22.051  0.00  0.00    +0.000 C 
ATOM     12  O   UNL     1      -0.213  10.769  23.166  0.00  0.00    +0.000 OA
ATOM     13  N   UNL     1      -1.012  12.519  21.981  0.00  0.00    +0.000 N 
ATOM     14  C   UNL     1      -1.073  13.319  23.231  0.00  0.00    +0.000 C 
ATOM     15  C   UNL     1      -0.788  14.785  22.886  0.00  0.00    +0.000 C 
ATOM     16  C   UNL     1      -0.865  15.815  24.003  0.00  0.00    +0.000 C 
ATOM     17  C   UNL     1      -1.310  17.106  23.291  0.00  0.00    +0.000 C 
ATOM     18  C   UNL     1      -1.438  16.726  21.821  0.00  0.00    +0.000 C 
ATOM     19  N   UNL     1      -1.802  15.324  21.959  0.00  0.00    +0.000 NA
ATOM     20  C   UNL     1      -1.821  14.573  20.717  0.00  0.00    +0.000 C 
ATOM     21  C   UNL     1      -1.928  13.034  20.946  0.00  0.00    +0.000 C 
ATOM     22  C   UNL     1      -3.361  12.547  21.150  0.00  0.00    +0.000 C 
ATOM     23  C   UNL     1       0.003  10.938  19.444  0.00  0.00    +0.000 C 
ATOM     24  C   UNL     1      -1.334  10.707  18.696  0.00  0.00    +0.000 C 
ATOM     25  C   UNL     1       0.758  12.251  19.185  0.00  0.00    +0.000 C 
ATOM     26  H   UNL     1       3.471   6.603  19.028  0.00  0.00    +0.000 HD
ATOM     27  H   UNL     1       1.527  10.083  16.942  0.00  0.00    +0.000 HD
ENDROOT
BRANCH   1  31
ATOM     28  C   UNL     1       4.353   2.341  20.438  0.00  0.00    +0.000 A 
ATOM     29  C   UNL     1       3.206   2.441  21.220  0.00  0.00    +0.000 A 
ATOM     30  C   UNL     1       2.386   3.565  21.104  0.00  0.00    +0.000 A 
ATOM     31  C   UNL     1       2.755   4.562  20.208  0.00  0.00    +0.000 A 
ATOM     32  N   UNL     1       3.843   4.479  19.398  0.00  0.00    +0.000 NA
ATOM     33  C   UNL     1       4.620   3.378  19.553  0.00  0.00    +0.000 A 
BRANCH  28  35
ATOM     34  C   UNL     1       5.588   0.782  21.737  0.00  0.00    +0.000 C 
ATOM     35  O   UNL     1       5.267   1.328  20.462  0.00  0.00    +0.000 OA
ENDBRANCH  28  35
ENDBRANCH   1  31
TORSDOF 2
ENDMDL
MODEL 2
REMARK VINA RESULT:      -8.3      2.852      4.058
REMARK  Name = 
REMARK  6 active torsions:
REMARK  status: ('A' for Active; 'I' for Inactive)
REMARK    1  A    between atoms: C_1  and  O_2
REMARK    2  A    between atoms: O_2  and  C_3
REMARK    3  A    between atoms: C_6  and  C_7
REMARK    4  A    between atoms: C_27  and  C_28
REMARK    5  A    between atoms: C_29  and  C_30
REMARK    6  A    between atoms: C_29  and  C_31
REMARK                            x       y       z     vdW  Elec       q    Type
REMARK                         _______ _______ _______ _____ _____    ______ ____
ROOT
ATOM      1  C   UNL     1       2.170   8.155  18.692  0.00  0.00    +0.000 C 
ATOM      2  O   UNL     1       2.213   9.257  18.164  0.00  0.00    +0.000 OA
ATOM      3  N   UNL     1       1.595   7.852  19.906  0.00  0.00    +0.000 N 
ATOM      4  C   UNL     1       1.121   8.821  20.744  0.00  0.00    +0.000 A 
ATOM      5  N   UNL     1       1.516   8.798  22.030  0.00  0.00    +0.000 NA
ATOM      6  N   UNL     1       0.970   9.906  22.568  0.00  0.00    +0.000 N 
ATOM      7  C   UNL     1       0.160  10.524  21.690  0.00  0.00    +0.000 A 
ATOM      8  C   UNL     1       0.205   9.854  20.512  0.00  0.00    +0.000 A 
ATOM      9  C   UNL     1      -0.761  10.415  19.563  0.00  0.00    +0.000 C 
ATOM     10  N   UNL     1      -1.418  11.523  20.389  0.00  0.00    +0.000 N 
ATOM     11  C   UNL     1      -2.586  12.039  19.848  0.00  0.00    +0.000 C 
ATOM     12  O   UNL     1      -2.999  11.584  18.773  0.00  0.00    +0.000 OA
ATOM     13  N   UNL     1      -3.353  12.982  20.512  0.00  0.00    +0.000 N 
ATOM     14  C   UNL     1      -4.738  13.212  20.027  0.00  0.00    +0.000 C 
ATOM     15  C   UNL     1      -5.649  13.437  21.238  0.00  0.00    +0.000 C 
ATOM     16  C   UNL     1      -7.113  13.766  20.987  0.00  0.00    +0.000 C 
ATOM     17  C   UNL     1      -7.508  14.650  22.184  0.00  0.00    +0.000 C 
ATOM     18  C   UNL     1      -6.251  14.748  23.040  0.00  0.00    +0.000 C 
ATOM     19  N   UNL     1      -5.237  14.631  22.003  0.00  0.00    +0.000 NA
ATOM     20  C   UNL     1      -3.877  14.491  22.491  0.00  0.00    +0.000 C 
ATOM     21  C   UNL     1      -2.874  14.081  21.369  0.00  0.00    +0.000 C 
ATOM     22  C   UNL     1      -2.357  15.264  20.553  0.00  0.00    +0.000 C 
ATOM     23  C   UNL     1      -0.756  11.685  21.754  0.00  0.00    +0.000 C 
ATOM     24  C   UNL     1       0.171  12.923  21.838  0.00  0.00    +0.000 C 
ATOM     25  C   UNL     1      -1.705  11.412  22.930  0.00  0.00    +0.000 C 
ATOM     26  H   UNL     1       1.989   7.043  20.372  0.00  0.00    +0.000 HD
ATOM     27  H   UNL     1       1.181  10.139  23.534  0.00  0.00    +0.000 HD
ENDROOT
BRANCH   1  31
ATOM     28  C   UNL     1       4.275   4.866  17.030  0.00  0.00    +0.000 A 
ATOM     29  C   UNL     1       3.061   4.632  17.670  0.00  0.00    +0.000 A 
ATOM     30  C   UNL     1       2.338   5.704  18.196  0.00  0.00    +0.000 A 
ATOM     31  C   UNL     1       2.868   6.983  18.070  0.00  0.00    +0.000 A 
ATOM     32  N   UNL     1       4.028   7.255  17.416  0.00  0.00    +0.000 NA
ATOM     33  C   UNL     1       4.705   6.183  16.931  0.00  0.00    +0.000 A 
BRANCH  28  35
ATOM     34  C   UNL     1       6.431   4.343  16.181  0.00  0.00    +0.000 C 
ATOM     35  O   UNL     1       5.108   3.925  16.499  0.00  0.00    +0.000 OA
ENDBRANCH  28  35
ENDBRANCH   1  31
TORSDOF 2
ENDMDL
MODEL 3
REMARK VINA RESULT:      -8.1      3.173      4.492
REMARK  Name = 
REMARK  6 active torsions:
REMARK  status: ('A' for Active; 'I' for Inactive)
REMARK    1  A    between atoms: C_1  and  O_2
REMARK    2  A    between atoms: O_2  and  C_3
REMARK    3  A    between atoms: C_6  and  C_7
REMARK    4  A    between atoms: C_27  and  C_28
REMARK    5  A    between atoms: C_29  and  C_30
REMARK    6  A    between atoms: C_29  and  C_31
REMARK                            x       y       z     vdW  Elec       q    Type
REMARK                         _______ _______ _______ _____ _____    ______ ____
ROOT
ATOM      1  C   UNL     1       4.078   6.638  17.422  0.00  0.00    +0.000 C 
ATOM      2  O   UNL     1       4.489   7.768  17.643  0.00  0.00    +0.000 OA
ATOM      3  N   UNL     1       3.044   6.002  18.073  0.00  0.00    +0.000 N 
ATOM      4  C   UNL     1       2.444   6.541  19.176  0.00  0.00    +0.000 A 
ATOM      5  N   UNL     1       2.311   5.767  20.269  0.00  0.00    +0.000 NA
ATOM      6  N   UNL     1       1.780   6.586  21.197  0.00  0.00    +0.000 N 
ATOM      7  C   UNL     1       1.473   7.784  20.668  0.00  0.00    +0.000 A 
ATOM      8  C   UNL     1       1.857   7.797  19.369  0.00  0.00    +0.000 A 
ATOM      9  C   UNL     1       1.425   9.035  18.715  0.00  0.00    +0.000 C 
ATOM     10  N   UNL     1       0.685   9.754  19.845  0.00  0.00    +0.000 N 
ATOM     11  C   UNL     1      -0.094  10.828  19.441  0.00  0.00    +0.000 C 
ATOM     12  O   UNL     1      -0.132  11.120  18.238  0.00  0.00    +0.000 OA
ATOM     13  N   UNL     1      -0.900  11.528  20.324  0.00  0.00    +0.000 N 
ATOM     14  C   UNL     1      -1.942  12.418  19.750  0.00  0.00    +0.000 C 
ATOM     15  C   UNL     1      -3.198  12.324  20.623  0.00  0.00    +0.000 C 
ATOM     16  C   UNL     1      -4.386  13.208  20.271  0.00  0.00    +0.000 C 
ATOM     17  C   UNL     1      -5.065  13.477  21.627  0.00  0.00    +0.000 C 
ATOM     18  C   UNL     1      -4.229  12.716  22.650  0.00  0.00    +0.000 C 
ATOM     19  N   UNL     1      -2.928  12.779  22.000  0.00  0.00    +0.000 NA
ATOM     20  C   UNL     1      -1.896  11.968  22.622  0.00  0.00    +0.000 C 
ATOM     21  C   UNL     1      -0.618  11.839  21.737  0.00  0.00    +0.000 C 
ATOM     22  C   UNL     1       0.347  13.013  21.887  0.00  0.00    +0.000 C 
ATOM     23  C   UNL     1       0.793   9.001  21.167  0.00  0.00    +0.000 C 
ATOM     24  C   UNL     1       1.799   9.645  22.154  0.00  0.00    +0.000 C 
ATOM     25  C   UNL     1      -0.562   8.535  21.719  0.00  0.00    +0.000 C 
ATOM     26  H   UNL     1       3.101   4.990  18.071  0.00  0.00    +0.000 HD
ATOM     27  H   UNL     1       1.642   6.236  22.140  0.00  0.00    +0.000 HD
ENDROOT
BRANCH   1  31
ATOM     28  C   UNL     1       6.172   4.225  14.629  0.00  0.00    +0.000 A 
ATOM     29  C   UNL     1       5.626   3.623  15.759  0.00  0.00    +0.000 A 
ATOM     30  C   UNL     1       4.907   4.394  16.674  0.00  0.00    +0.000 A 
ATOM     31  C   UNL     1       4.769   5.755  16.427  0.00  0.00    +0.000 A 
ATOM     32  N   UNL     1       5.251   6.369  15.314  0.00  0.00    +0.000 NA
ATOM     33  C   UNL     1       5.955   5.586  14.458  0.00  0.00    +0.000 A 
BRANCH  28  35
ATOM     34  C   UNL     1       6.334   3.477  12.380  0.00  0.00    +0.000 C 
ATOM     35  O   UNL     1       6.925   3.615  13.668  0.00  0.00    +0.000 OA
ENDBRANCH  28  35
ENDBRANCH   1  31
TORSDOF 2
ENDMDL
MODEL 4
REMARK VINA RESULT:      -7.7      2.653      4.052
REMARK  Name = 
REMARK  6 active torsions:
REMARK  status: ('A' for Active; 'I' for Inactive)
REMARK    1  A    between atoms: C_1  and  O_2
REMARK    2  A    between atoms: O_2  and  C_3
REMARK    3  A    between atoms: C_6  and  C_7
REMARK    4  A    between atoms: C_27  and  C_28
REMARK    5  A    between atoms: C_29  and  C_30
REMARK    6  A    between atoms: C_29  and  C_31
REMARK                            x       y       z     vdW  Elec       q    Type
REMARK                         _______ _______ _______ _____ _____    ______ ____
ROOT
ATOM      1  C   UNL     1       2.027   8.117  19.075  0.00  0.00    +0.000 C 
ATOM      2  O   UNL     1       2.114   9.193  18.501  0.00  0.00    +0.000 OA
ATOM      3  N   UNL     1       1.396   7.880  20.276  0.00  0.00    +0.000 N 
ATOM      4  C   UNL     1       0.908   8.894  21.049  0.00  0.00    +0.000 A 
ATOM      5  N   UNL     1       1.248   8.922  22.351  0.00  0.00    +0.000 NA
ATOM      6  N   UNL     1       0.703  10.062  22.816  0.00  0.00    +0.000 N 
ATOM      7  C   UNL     1      -0.058  10.654  21.877  0.00  0.00    +0.000 A 
ATOM      8  C   UNL     1       0.022   9.932  20.734  0.00  0.00    +0.000 A 
ATOM      9  C   UNL     1      -0.892  10.466  19.721  0.00  0.00    +0.000 C 
ATOM     10  N   UNL     1      -1.560  11.623  20.468  0.00  0.00    +0.000 N 
ATOM     11  C   UNL     1      -2.694  12.134  19.856  0.00  0.00    +0.000 C 
ATOM     12  O   UNL     1      -3.071  11.638  18.786  0.00  0.00    +0.000 OA
ATOM     13  N   UNL     1      -3.470  13.119  20.445  0.00  0.00    +0.000 N 
ATOM     14  C   UNL     1      -4.828  13.352  19.892  0.00  0.00    +0.000 C 
ATOM     15  C   UNL     1      -5.784  13.648  21.053  0.00  0.00    +0.000 C 
ATOM     16  C   UNL     1      -7.230  13.992  20.725  0.00  0.00    +0.000 C 
ATOM     17  C   UNL     1      -7.656  14.936  21.865  0.00  0.00    +0.000 C 
ATOM     18  C   UNL     1      -6.434  15.050  22.767  0.00  0.00    +0.000 C 
ATOM     19  N   UNL     1      -5.381  14.868  21.780  0.00  0.00    +0.000 NA
ATOM     20  C   UNL     1      -4.045  14.726  22.331  0.00  0.00    +0.000 C 
ATOM     21  C   UNL     1      -3.005  14.248  21.272  0.00  0.00    +0.000 C 
ATOM     22  C   UNL     1      -2.431  15.383  20.427  0.00  0.00    +0.000 C 
ATOM     23  C   UNL     1      -0.953  11.834  21.851  0.00  0.00    +0.000 C 
ATOM     24  C   UNL     1      -0.006  13.058  21.919  0.00  0.00    +0.000 C 
ATOM     25  C   UNL     1      -1.955  11.632  22.998  0.00  0.00    +0.000 C 
ATOM     26  H   UNL     1       1.755   7.086  20.794  0.00  0.00    +0.000 HD
ATOM     27  H   UNL     1       0.879  10.335  23.778  0.00  0.00    +0.000 HD
ENDROOT
BRANCH   1  31
ATOM     28  C   UNL     1       3.868   4.641  17.484  0.00  0.00    +0.000 A 
ATOM     29  C   UNL     1       4.324   5.890  17.072  0.00  0.00    +0.000 A 
ATOM     30  C   UNL     1       3.753   7.045  17.608  0.00  0.00    +0.000 A 
ATOM     31  C   UNL     1       2.727   6.906  18.536  0.00  0.00    +0.000 A 
ATOM     32  N   UNL     1       2.285   5.704  18.993  0.00  0.00    +0.000 NA
ATOM     33  C   UNL     1       2.858   4.607  18.437  0.00  0.00    +0.000 A 
BRANCH  28  35
ATOM     34  C   UNL     1       3.803   2.276  17.701  0.00  0.00    +0.000 C 
ATOM     35  O   UNL     1       4.300   3.428  17.030  0.00  0.00    +0.000 OA
ENDBRANCH  28  35
ENDBRANCH   1  31
TORSDOF 2
ENDMDL
MODEL 5
REMARK VINA RESULT:      -7.5      0.850      1.131
REMARK  Name = 
REMARK  6 active torsions:
REMARK  status: ('A' for Active; 'I' for Inactive)
REMARK    1  A    between atoms: C_1  and  O_2
REMARK    2  A    between atoms: O_2  and  C_3
REMARK    3  A    between atoms: C_6  and  C_7
REMARK    4  A    between atoms: C_27  and  C_28
REMARK    5  A    between atoms: C_29  and  C_30
REMARK    6  A    between atoms: C_29  and  C_31
REMARK                            x       y       z     vdW  Elec       q    Type
REMARK                         _______ _______ _______ _____ _____    ______ ____
ROOT
ATOM      1  C   UNL     1       1.910   6.363  20.008  0.00  0.00    +0.000 C 
ATOM      2  O   UNL     1       0.758   6.296  20.416  0.00  0.00    +0.000 OA
ATOM      3  N   UNL     1       2.503   7.453  19.411  0.00  0.00    +0.000 N 
ATOM      4  C   UNL     1       1.790   8.568  19.070  0.00  0.00    +0.000 A 
ATOM      5  N   UNL     1       1.916   9.044  17.818  0.00  0.00    +0.000 NA
ATOM      6  N   UNL     1       1.042  10.067  17.759  0.00  0.00    +0.000 N 
ATOM      7  C   UNL     1       0.490  10.304  18.963  0.00  0.00    +0.000 A 
ATOM      8  C   UNL     1       0.955   9.384  19.843  0.00  0.00    +0.000 A 
ATOM      9  C   UNL     1       0.483   9.681  21.198  0.00  0.00    +0.000 C 
ATOM     10  N   UNL     1      -0.327  10.962  20.983  0.00  0.00    +0.000 N 
ATOM     11  C   UNL     1      -0.653  11.646  22.144  0.00  0.00    +0.000 C 
ATOM     12  O   UNL     1      -0.282  11.187  23.233  0.00  0.00    +0.000 OA
ATOM     13  N   UNL     1      -1.302  12.870  22.121  0.00  0.00    +0.000 N 
ATOM     14  C   UNL     1      -1.299  13.677  23.368  0.00  0.00    +0.000 C 
ATOM     15  C   UNL     1      -1.144  15.155  22.992  0.00  0.00    +0.000 C 
ATOM     16  C   UNL     1      -1.185  16.189  24.108  0.00  0.00    +0.000 C 
ATOM     17  C   UNL     1      -1.779  17.440  23.435  0.00  0.00    +0.000 C 
ATOM     18  C   UNL     1      -2.018  17.038  21.985  0.00  0.00    +0.000 C 
ATOM     19  N   UNL     1      -2.273  15.617  22.162  0.00  0.00    +0.000 NA
ATOM     20  C   UNL     1      -2.359  14.853  20.930  0.00  0.00    +0.000 C 
ATOM     21  C   UNL     1      -2.342  13.313  21.175  0.00  0.00    +0.000 C 
ATOM     22  C   UNL     1      -3.714  12.735  21.514  0.00  0.00    +0.000 C 
ATOM     23  C   UNL     1      -0.425  11.333  19.507  0.00  0.00    +0.000 C 
ATOM     24  C   UNL     1      -1.808  11.007  18.889  0.00  0.00    +0.000 C 
ATOM     25  C   UNL     1       0.213  12.689  19.173  0.00  0.00    +0.000 C 
ATOM     26  H   UNL     1       3.267   7.229  18.785  0.00  0.00    +0.000 HD
ATOM     27  H   UNL     1       0.913  10.554  16.877  0.00  0.00    +0.000 HD
ENDROOT
BRANCH   1  31
ATOM     28  C   UNL     1       4.315   2.868  20.008  0.00  0.00    +0.000 A 
ATOM     29  C   UNL     1       4.785   4.005  19.357  0.00  0.00    +0.000 A 
ATOM     30  C   UNL     1       4.022   5.175  19.373  0.00  0.00    +0.000 A 
ATOM     31  C   UNL     1       2.800   5.158  20.036  0.00  0.00    +0.000 A 
ATOM     32  N   UNL     1       2.330   4.080  20.718  0.00  0.00    +0.000 NA
ATOM     33  C   UNL     1       3.096   2.961  20.666  0.00  0.00    +0.000 A 
BRANCH  28  35
ATOM     34  C   UNL     1       4.540   0.699  19.064  0.00  0.00    +0.000 C 
ATOM     35  O   UNL     1       4.926   1.648  20.053  0.00  0.00    +0.000 OA
ENDBRANCH  28  35
ENDBRANCH   1  31
TORSDOF 2
ENDMDL
MODEL 6
REMARK VINA RESULT:      -7.3      6.487     10.207
REMARK  Name = 
REMARK  6 active torsions:
REMARK  status: ('A' for Active; 'I' for Inactive)
REMARK    1  A    between atoms: C_1  and  O_2
REMARK    2  A    between atoms: O_2  and  C_3
REMARK    3  A    between atoms: C_6  and  C_7
REMARK    4  A    between atoms: C_27  and  C_28
REMARK    5  A    between atoms: C_29  and  C_30
REMARK    6  A    between atoms: C_29  and  C_31
REMARK                            x       y       z     vdW  Elec       q    Type
REMARK                         _______ _______ _______ _____ _____    ______ ____
ROOT
ATOM      1  C   UNL     1       0.469  14.024  21.979  0.00  0.00    +0.000 C 
ATOM      2  O   UNL     1       0.997  15.013  22.468  0.00  0.00    +0.000 OA
ATOM      3  N   UNL     1       0.833  13.399  20.808  0.00  0.00    +0.000 N 
ATOM      4  C   UNL     1       1.769  13.928  19.965  0.00  0.00    +0.000 A 
ATOM      5  N   UNL     1       1.457  14.044  18.661  0.00  0.00    +0.000 NA
ATOM      6  N   UNL     1       2.518  14.670  18.117  0.00  0.00    +0.000 N 
ATOM      7  C   UNL     1       3.507  14.820  19.017  0.00  0.00    +0.000 A 
ATOM      8  C   UNL     1       3.084  14.339  20.211  0.00  0.00    +0.000 A 
ATOM      9  C   UNL     1       4.173  14.362  21.191  0.00  0.00    +0.000 C 
ATOM     10  N   UNL     1       5.337  14.916  20.366  0.00  0.00    +0.000 N 
ATOM     11  C   UNL     1       6.586  14.772  20.951  0.00  0.00    +0.000 C 
ATOM     12  O   UNL     1       6.668  14.228  22.061  0.00  0.00    +0.000 OA
ATOM     13  N   UNL     1       7.753  15.135  20.298  0.00  0.00    +0.000 N 
ATOM     14  C   UNL     1       9.038  14.632  20.848  0.00  0.00    +0.000 C 
ATOM     15  C   UNL     1       9.965  14.280  19.680  0.00  0.00    +0.000 C 
ATOM     16  C   UNL     1      11.375  13.807  19.997  0.00  0.00    +0.000 C 
ATOM     17  C   UNL     1      12.209  14.285  18.794  0.00  0.00    +0.000 C 
ATOM     18  C   UNL     1      11.216  14.979  17.871  0.00  0.00    +0.000 C 
ATOM     19  N   UNL     1      10.263  15.468  18.856  0.00  0.00    +0.000 NA
ATOM     20  C   UNL     1       9.047  16.034  18.301  0.00  0.00    +0.000 C 
ATOM     21  C   UNL     1       7.947  16.273  19.382  0.00  0.00    +0.000 C 
ATOM     22  C   UNL     1       8.106  17.595  20.130  0.00  0.00    +0.000 C 
ATOM     23  C   UNL     1       4.898  15.324  18.963  0.00  0.00    +0.000 C 
ATOM     24  C   UNL     1       4.763  16.857  18.790  0.00  0.00    +0.000 C 
ATOM     25  C   UNL     1       5.595  14.530  17.848  0.00  0.00    +0.000 C 
ATOM     26  H   UNL     1       0.085  12.891  20.348  0.00  0.00    +0.000 HD
ATOM     27  H   UNL     1       2.488  14.926  17.134  0.00  0.00    +0.000 HD
ENDROOT
BRANCH   1  31
ATOM     28  C   UNL     1      -3.094  12.407  23.621  0.00  0.00    +0.000 A 
ATOM     29  C   UNL     1      -2.098  11.535  23.190  0.00  0.00    +0.000 A 
ATOM     30  C   UNL     1      -0.906  12.048  22.675  0.00  0.00    +0.000 A 
ATOM     31  C   UNL     1      -0.758  13.428  22.601  0.00  0.00    +0.000 A 
ATOM     32  N   UNL     1      -1.690  14.309  23.051  0.00  0.00    +0.000 NA
ATOM     33  C   UNL     1      -2.839  13.769  23.531  0.00  0.00    +0.000 A 
BRANCH  28  35
ATOM     34  C   UNL     1      -5.372  13.003  23.938  0.00  0.00    +0.000 C 
ATOM     35  O   UNL     1      -4.319  12.061  24.112  0.00  0.00    +0.000 OA
ENDBRANCH  28  35
ENDBRANCH   1  31
TORSDOF 2
ENDMDL
MODEL 7
REMARK VINA RESULT:      -7.0      3.124      4.301
REMARK  Name = 
REMARK  6 active torsions:
REMARK  status: ('A' for Active; 'I' for Inactive)
REMARK    1  A    between atoms: C_1  and  O_2
REMARK    2  A    between atoms: O_2  and  C_3
REMARK    3  A    between atoms: C_6  and  C_7
REMARK    4  A    between atoms: C_27  and  C_28
REMARK    5  A    between atoms: C_29  and  C_30
REMARK    6  A    between atoms: C_29  and  C_31
REMARK                            x       y       z     vdW  Elec       q    Type
REMARK                         _______ _______ _______ _____ _____    ______ ____
ROOT
ATOM      1  C   UNL     1       3.148   7.698  18.037  0.00  0.00    +0.000 C 
ATOM      2  O   UNL     1       3.199   8.853  17.637  0.00  0.00    +0.000 OA
ATOM      3  N   UNL     1       2.473   7.247  19.149  0.00  0.00    +0.000 N 
ATOM      4  C   UNL     1       1.887   8.105  20.036  0.00  0.00    +0.000 A 
ATOM      5  N   UNL     1       2.160   7.950  21.345  0.00  0.00    +0.000 NA
ATOM      6  N   UNL     1       1.524   8.975  21.944  0.00  0.00    +0.000 N 
ATOM      7  C   UNL     1       0.778   9.665  21.062  0.00  0.00    +0.000 A 
ATOM      8  C   UNL     1       0.958   9.132  19.829  0.00  0.00    +0.000 A 
ATOM      9  C   UNL     1       0.065   9.767  18.856  0.00  0.00    +0.000 C 
ATOM     10  N   UNL     1      -0.707  10.759  19.729  0.00  0.00    +0.000 N 
ATOM     11  C   UNL     1      -1.838  11.300  19.135  0.00  0.00    +0.000 C 
ATOM     12  O   UNL     1      -2.130  10.956  17.982  0.00  0.00    +0.000 OA
ATOM     13  N   UNL     1      -2.699  12.142  19.820  0.00  0.00    +0.000 N 
ATOM     14  C   UNL     1      -4.040  12.387  19.229  0.00  0.00    +0.000 C 
ATOM     15  C   UNL     1      -5.068  12.452  20.363  0.00  0.00    +0.000 C 
ATOM     16  C   UNL     1      -6.514  12.767  20.007  0.00  0.00    +0.000 C 
ATOM     17  C   UNL     1      -7.052  13.502  21.249  0.00  0.00    +0.000 C 
ATOM     18  C   UNL     1      -5.886  13.538  22.228  0.00  0.00    +0.000 C 
ATOM     19  N   UNL     1      -4.775  13.564  21.288  0.00  0.00    +0.000 NA
ATOM     20  C   UNL     1      -3.463  13.408  21.889  0.00  0.00    +0.000 C 
ATOM     21  C   UNL     1      -2.344  13.152  20.832  0.00  0.00    +0.000 C 
ATOM     22  C   UNL     1      -1.797  14.432  20.203  0.00  0.00    +0.000 C 
ATOM     23  C   UNL     1      -0.183  10.787  21.161  0.00  0.00    +0.000 C 
ATOM     24  C   UNL     1       0.684  12.033  21.468  0.00  0.00    +0.000 C 
ATOM     25  C   UNL     1      -1.228  10.360  22.203  0.00  0.00    +0.000 C 
ATOM     26  H   UNL     1       2.852   6.402  19.561  0.00  0.00    +0.000 HD
ATOM     27  H   UNL     1       1.636   9.106  22.945  0.00  0.00    +0.000 HD
ENDROOT
BRANCH   1  31
ATOM     28  C   UNL     1       5.275   4.618  16.038  0.00  0.00    +0.000 A 
ATOM     29  C   UNL     1       5.751   5.924  15.957  0.00  0.00    +0.000 A 
ATOM     30  C   UNL     1       5.083   6.946  16.633  0.00  0.00    +0.000 A 
ATOM     31  C   UNL     1       3.945   6.622  17.364  0.00  0.00    +0.000 A 
ATOM     32  N   UNL     1       3.477   5.353  17.500  0.00  0.00    +0.000 NA
ATOM     33  C   UNL     1       4.147   4.392  16.816  0.00  0.00    +0.000 A 
BRANCH  28  35
ATOM     34  C   UNL     1       6.251   3.705  14.074  0.00  0.00    +0.000 C 
ATOM     35  O   UNL     1       5.796   3.524  15.410  0.00  0.00    +0.000 OA
ENDBRANCH  28  35
ENDBRANCH   1  31
TORSDOF 2
ENDMDL
MODEL 8
REMARK VINA RESULT:      -6.7      5.900      8.262
REMARK  Name = 
REMARK  6 active torsions:
REMARK  status: ('A' for Active; 'I' for Inactive)
REMARK    1  A    between atoms: C_1  and  O_2
REMARK    2  A    between atoms: O_2  and  C_3
REMARK    3  A    between atoms: C_6  and  C_7
REMARK    4  A    between atoms: C_27  and  C_28
REMARK    5  A    between atoms: C_29  and  C_30
REMARK    6  A    between atoms: C_29  and  C_31
REMARK                            x       y       z     vdW  Elec       q    Type
REMARK                         _______ _______ _______ _____ _____    ______ ____
ROOT
ATOM      1  C   UNL     1       4.206  14.738  19.230  0.00  0.00    +0.000 C 
ATOM      2  O   UNL     1       3.902  14.743  20.415  0.00  0.00    +0.000 OA
ATOM      3  N   UNL     1       3.493  14.155  18.206  0.00  0.00    +0.000 N 
ATOM      4  C   UNL     1       2.402  13.368  18.441  0.00  0.00    +0.000 A 
ATOM      5  N   UNL     1       2.353  12.158  17.853  0.00  0.00    +0.000 NA
ATOM      6  N   UNL     1       1.230  11.595  18.338  0.00  0.00    +0.000 N 
ATOM      7  C   UNL     1       0.538  12.466  19.094  0.00  0.00    +0.000 A 
ATOM      8  C   UNL     1       1.236  13.625  19.171  0.00  0.00    +0.000 A 
ATOM      9  C   UNL     1       0.461  14.648  19.877  0.00  0.00    +0.000 C 
ATOM     10  N   UNL     1      -0.843  13.909  20.186  0.00  0.00    +0.000 N 
ATOM     11  C   UNL     1      -1.891  14.720  20.592  0.00  0.00    +0.000 C 
ATOM     12  O   UNL     1      -1.705  15.942  20.675  0.00  0.00    +0.000 OA
ATOM     13  N   UNL     1      -3.164  14.223  20.821  0.00  0.00    +0.000 N 
ATOM     14  C   UNL     1      -4.281  15.197  20.910  0.00  0.00    +0.000 C 
ATOM     15  C   UNL     1      -5.514  14.589  20.233  0.00  0.00    +0.000 C 
ATOM     16  C   UNL     1      -6.814  15.380  20.261  0.00  0.00    +0.000 C 
ATOM     17  C   UNL     1      -7.909  14.298  20.259  0.00  0.00    +0.000 C 
ATOM     18  C   UNL     1      -7.160  12.972  20.213  0.00  0.00    +0.000 C 
ATOM     19  N   UNL     1      -5.943  13.352  20.914  0.00  0.00    +0.000 NA
ATOM     20  C   UNL     1      -4.888  12.354  20.890  0.00  0.00    +0.000 C 
ATOM     21  C   UNL     1      -3.521  12.912  21.394  0.00  0.00    +0.000 C 
ATOM     22  C   UNL     1      -3.377  12.889  22.914  0.00  0.00    +0.000 C 
ATOM     23  C   UNL     1      -0.777  12.441  19.776  0.00  0.00    +0.000 C 
ATOM     24  C   UNL     1      -0.587  11.482  20.977  0.00  0.00    +0.000 C 
ATOM     25  C   UNL     1      -1.805  12.059  18.701  0.00  0.00    +0.000 C 
ATOM     26  H   UNL     1       4.049  13.883  17.404  0.00  0.00    +0.000 HD
ATOM     27  H   UNL     1       1.008  10.638  18.080  0.00  0.00    +0.000 HD
ENDROOT
BRANCH   1  31
ATOM     28  C   UNL     1       7.947  16.390  18.097  0.00  0.00    +0.000 A 
ATOM     29  C   UNL     1       7.622  15.106  17.667  0.00  0.00    +0.000 A 
ATOM     30  C   UNL     1       6.384  14.557  18.003  0.00  0.00    +0.000 A 
ATOM     31  C   UNL     1       5.512  15.317  18.774  0.00  0.00    +0.000 A 
ATOM     32  N   UNL     1       5.777  16.588  19.176  0.00  0.00    +0.000 NA
ATOM     33  C   UNL     1       6.997  17.078  18.840  0.00  0.00    +0.000 A 
BRANCH  28  35
ATOM     34  C   UNL     1      10.170  16.302  17.264  0.00  0.00    +0.000 C 
ATOM     35  O   UNL     1       9.124  17.045  17.880  0.00  0.00    +0.000 OA
ENDBRANCH  28  35
ENDBRANCH   1  31
TORSDOF 2
ENDMDL
MODEL 9
REMARK VINA RESULT:      -6.7      6.191      8.329
REMARK  Name = 
REMARK  6 active torsions:
REMARK  status: ('A' for Active; 'I' for Inactive)
REMARK    1  A    between atoms: C_1  and  O_2
REMARK    2  A    between atoms: O_2  and  C_3
REMARK    3  A    between atoms: C_6  and  C_7
REMARK    4  A    between atoms: C_27  and  C_28
REMARK    5  A    between atoms: C_29  and  C_30
REMARK    6  A    between atoms: C_29  and  C_31
REMARK                            x       y       z     vdW  Elec       q    Type
REMARK                         _______ _______ _______ _____ _____    ______ ____
ROOT
ATOM      1  C   UNL     1       6.126  14.854  18.377  0.00  0.00    +0.000 C 
ATOM      2  O   UNL     1       5.502  14.006  17.755  0.00  0.00    +0.000 OA
ATOM      3  N   UNL     1       5.592  15.853  19.160  0.00  0.00    +0.000 N 
ATOM      4  C   UNL     1       4.249  16.094  19.207  0.00  0.00    +0.000 A 
ATOM      5  N   UNL     1       3.823  17.357  19.019  0.00  0.00    +0.000 NA
ATOM      6  N   UNL     1       2.479  17.263  19.030  0.00  0.00    +0.000 N 
ATOM      7  C   UNL     1       2.083  16.016  19.343  0.00  0.00    +0.000 A 
ATOM      8  C   UNL     1       3.180  15.235  19.489  0.00  0.00    +0.000 A 
ATOM      9  C   UNL     1       2.803  13.898  19.957  0.00  0.00    +0.000 C 
ATOM     10  N   UNL     1       1.284  14.022  20.096  0.00  0.00    +0.000 N 
ATOM     11  C   UNL     1       0.678  12.999  20.808  0.00  0.00    +0.000 C 
ATOM     12  O   UNL     1       1.384  12.088  21.263  0.00  0.00    +0.000 OA
ATOM     13  N   UNL     1      -0.675  13.006  21.104  0.00  0.00    +0.000 N 
ATOM     14  C   UNL     1      -1.159  12.066  22.148  0.00  0.00    +0.000 C 
ATOM     15  C   UNL     1      -2.243  12.769  22.972  0.00  0.00    +0.000 C 
ATOM     16  C   UNL     1      -2.944  11.975  24.065  0.00  0.00    +0.000 C 
ATOM     17  C   UNL     1      -4.356  12.588  24.124  0.00  0.00    +0.000 C 
ATOM     18  C   UNL     1      -4.354  13.696  23.078  0.00  0.00    +0.000 C 
ATOM     19  N   UNL     1      -3.398  13.140  22.132  0.00  0.00    +0.000 NA
ATOM     20  C   UNL     1      -2.998  14.042  21.067  0.00  0.00    +0.000 C 
ATOM     21  C   UNL     1      -1.772  13.513  20.260  0.00  0.00    +0.000 C 
ATOM     22  C   UNL     1      -2.150  12.531  19.154  0.00  0.00    +0.000 C 
ATOM     23  C   UNL     1       0.774  15.371  19.597  0.00  0.00    +0.000 C 
ATOM     24  C   UNL     1       0.092  15.287  18.209  0.00  0.00    +0.000 C 
ATOM     25  C   UNL     1       0.092  16.210  20.688  0.00  0.00    +0.000 C 
ATOM     26  H   UNL     1       6.176  16.676  19.254  0.00  0.00    +0.000 HD
ATOM     27  H   UNL     1       1.926  18.095  18.844  0.00  0.00    +0.000 HD
ENDROOT
BRANCH   1  31
ATOM     28  C   UNL     1      10.340  15.015  17.899  0.00  0.00    +0.000 A 
ATOM     29  C   UNL     1       9.610  16.198  17.821  0.00  0.00    +0.000 A 
ATOM     30  C   UNL     1       8.227  16.170  18.007  0.00  0.00    +0.000 A 
ATOM     31  C   UNL     1       7.618  14.945  18.254  0.00  0.00    +0.000 A 
ATOM     32  N   UNL     1       8.302  13.777  18.379  0.00  0.00    +0.000 NA
ATOM     33  C   UNL     1       9.642  13.847  18.179  0.00  0.00    +0.000 A 
BRANCH  28  35
ATOM     34  C   UNL     1      12.112  13.758  16.938  0.00  0.00    +0.000 C 
ATOM     35  O   UNL     1      11.684  14.876  17.708  0.00  0.00    +0.000 OA
ENDBRANCH  28  35
ENDBRANCH   1  31
TORSDOF 2
ENDMDL
