MODEL 1
REMARK VINA RESULT:      -7.5      0.000      0.000
REMARK  Name = 
REMARK  7 active torsions:
REMARK  status: ('A' for Active; 'I' for Inactive)
REMARK    1  A    between atoms: C_1  and  N_2
REMARK    2  A    between atoms: C_5  and  C_6
REMARK    3  A    between atoms: C_8  and  N_9
REMARK    4  A    between atoms: N_11  and  C_12
REMARK    5  A    between atoms: N_11  and  C_19
REMARK    6  A    between atoms: C_12  and  C_13
REMARK    7  A    between atoms: C_19  and  C_20
REMARK                            x       y       z     vdW  Elec       q    Type
REMARK                         _______ _______ _______ _____ _____    ______ ____
ROOT
ATOM      1  N   UNL     1       1.711   8.403  20.014  0.00  0.00    +0.000 NA
ATOM      2  C   UNL     1       2.147   8.117  18.830  0.00  0.00    +0.000 C 
ATOM      3  N   UNL     1       3.005   7.102  18.442  0.00  0.00    +0.000 N 
ENDROOT
BRANCH   1   9
ATOM      4  C   UNL     1      -0.679   8.462  21.741  0.00  0.00    +0.000 C 
ATOM      5  N   UNL     1      -0.089   9.587  21.055  0.00  0.00    +0.000 N 
ATOM      6  N   UNL     1      -0.648  10.804  21.230  0.00  0.00    +0.000 NA
ATOM      7  C   UNL     1       0.022  11.575  20.380  0.00  0.00    +0.000 A 
ATOM      8  C   UNL     1       1.008  10.863  19.678  0.00  0.00    +0.000 A 
ATOM      9  C   UNL     1       0.992   9.558  20.176  0.00  0.00    +0.000 A 
BRANCH   8  10
ATOM     10  C   UNL     1       1.836  11.425  18.672  0.00  0.00    +0.000 C 
ATOM     11  N   UNL     1       2.507  11.908  17.854  0.00  0.00    +0.000 NA
ENDBRANCH   8  10
ENDBRANCH   1   9
BRANCH   3  12
ATOM     12  C   UNL     1       3.417   6.023  19.346  0.00  0.00    +0.000 C 
BRANCH  12  13
ATOM     13  C   UNL     1       2.426   4.873  19.451  0.00  0.00    +0.000 A 
ATOM     14  C   UNL     1       1.872   4.459  20.671  0.00  0.00    +0.000 A 
ATOM     15  C   UNL     1       1.050   3.328  20.731  0.00  0.00    +0.000 A 
ATOM     16  C   UNL     1       0.764   2.603  19.576  0.00  0.00    +0.000 A 
ATOM     17  C   UNL     1       1.236   3.049  18.346  0.00  0.00    +0.000 A 
ATOM     18  C   UNL     1       2.038   4.192  18.281  0.00  0.00    +0.000 A 
ENDBRANCH  12  13
ENDBRANCH   3  12
BRANCH   3  19
ATOM     19  C   UNL     1       3.801   7.281  17.217  0.00  0.00    +0.000 C 
BRANCH  19  20
ATOM     20  C   UNL     1       5.010   6.376  17.061  0.00  0.00    +0.000 A 
ATOM     21  C   UNL     1       6.257   6.613  17.648  0.00  0.00    +0.000 A 
ATOM     22  C   UNL     1       7.339   5.760  17.390  0.00  0.00    +0.000 A 
ATOM     23  C   UNL     1       7.190   4.657  16.551  0.00  0.00    +0.000 A 
ATOM     24  C   UNL     1       5.949   4.383  15.988  0.00  0.00    +0.000 A 
ATOM     25  C   UNL     1       4.868   5.232  16.247  0.00  0.00    +0.000 A 
ENDBRANCH  19  20
ENDBRANCH   3  19
TORSDOF 6
ENDMDL
MODEL 2
REMARK VINA RESULT:      -7.5      0.144      1.366
REMARK  Name = 
REMARK  7 active torsions:
REMARK  status: ('A' for Active; 'I' for Inactive)
REMARK    1  A    between atoms: C_1  and  N_2
REMARK    2  A    between atoms: C_5  and  C_6
REMARK    3  A    between atoms: C_8  and  N_9
REMARK    4  A    between atoms: N_11  and  C_12
REMARK    5  A    between atoms: N_11  and  C_19
REMARK    6  A    between atoms: C_12  and  C_13
REMARK    7  A    between atoms: C_19  and  C_20
REMARK                            x       y       z     vdW  Elec       q    Type
REMARK                         _______ _______ _______ _____ _____    ______ ____
ROOT
ATOM      1  N   UNL     1       1.750   8.368  20.024  0.00  0.00    +0.000 NA
ATOM      2  C   UNL     1       2.175   8.075  18.838  0.00  0.00    +0.000 C 
ATOM      3  N   UNL     1       3.051   7.075  18.452  0.00  0.00    +0.000 N 
ENDROOT
BRANCH   1   9
ATOM      4  C   UNL     1      -0.635   8.386  21.760  0.00  0.00    +0.000 C 
ATOM      5  N   UNL     1      -0.072   9.519  21.064  0.00  0.00    +0.000 N 
ATOM      6  N   UNL     1      -0.656  10.725  21.232  0.00  0.00    +0.000 NA
ATOM      7  C   UNL     1      -0.006  11.505  20.376  0.00  0.00    +0.000 A 
ATOM      8  C   UNL     1       0.992  10.809  19.675  0.00  0.00    +0.000 A 
ATOM      9  C   UNL     1       1.006   9.508  20.182  0.00  0.00    +0.000 A 
BRANCH   8  10
ATOM     10  C   UNL     1       1.806  11.383  18.663  0.00  0.00    +0.000 C 
ATOM     11  N   UNL     1       2.459  11.874  17.835  0.00  0.00    +0.000 NA
ENDBRANCH   8  10
ENDBRANCH   1   9
BRANCH   3  12
ATOM     12  C   UNL     1       3.501   6.018  19.364  0.00  0.00    +0.000 C 
BRANCH  12  13
ATOM     13  C   UNL     1       2.572   4.816  19.447  0.00  0.00    +0.000 A 
ATOM     14  C   UNL     1       2.120   4.129  18.312  0.00  0.00    +0.000 A 
ATOM     15  C   UNL     1       1.181   3.098  18.432  0.00  0.00    +0.000 A 
ATOM     16  C   UNL     1       0.690   2.735  19.684  0.00  0.00    +0.000 A 
ATOM     17  C   UNL     1       1.191   3.349  20.826  0.00  0.00    +0.000 A 
ATOM     18  C   UNL     1       2.146   4.362  20.710  0.00  0.00    +0.000 A 
ENDBRANCH  12  13
ENDBRANCH   3  12
BRANCH   3  19
ATOM     19  C   UNL     1       3.825   7.255  17.212  0.00  0.00    +0.000 C 
BRANCH  19  20
ATOM     20  C   UNL     1       4.997   6.313  17.007  0.00  0.00    +0.000 A 
ATOM     21  C   UNL     1       4.921   5.087  16.340  0.00  0.00    +0.000 A 
ATOM     22  C   UNL     1       6.041   4.248  16.261  0.00  0.00    +0.000 A 
ATOM     23  C   UNL     1       7.253   4.624  16.839  0.00  0.00    +0.000 A 
ATOM     24  C   UNL     1       7.359   5.856  17.473  0.00  0.00    +0.000 A 
ATOM     25  C   UNL     1       6.243   6.695  17.550  0.00  0.00    +0.000 A 
ENDBRANCH  19  20
ENDBRANCH   3  19
TORSDOF 6
ENDMDL
MODEL 3
REMARK VINA RESULT:      -7.5      1.151      1.814
REMARK  Name = 
REMARK  7 active torsions:
REMARK  status: ('A' for Active; 'I' for Inactive)
REMARK    1  A    between atoms: C_1  and  N_2
REMARK    2  A    between atoms: C_5  and  C_6
REMARK    3  A    between atoms: C_8  and  N_9
REMARK    4  A    between atoms: N_11  and  C_12
REMARK    5  A    between atoms: N_11  and  C_19
REMARK    6  A    between atoms: C_12  and  C_13
REMARK    7  A    between atoms: C_19  and  C_20
REMARK                            x       y       z     vdW  Elec       q    Type
REMARK                         _______ _______ _______ _____ _____    ______ ____
ROOT
ATOM      1  N   UNL     1       1.639   8.207  20.259  0.00  0.00    +0.000 NA
ATOM      2  C   UNL     1       2.054   8.022  19.047  0.00  0.00    +0.000 C 
ATOM      3  N   UNL     1       2.955   7.085  18.571  0.00  0.00    +0.000 N 
ENDROOT
BRANCH   1   9
ATOM      4  C   UNL     1       1.492   9.346  22.975  0.00  0.00    +0.000 C 
ATOM      5  N   UNL     1       0.865   9.876  21.788  0.00  0.00    +0.000 N 
ATOM      6  N   UNL     1       0.161  11.024  21.897  0.00  0.00    +0.000 NA
ATOM      7  C   UNL     1      -0.388  11.164  20.696  0.00  0.00    +0.000 A 
ATOM      8  C   UNL     1      -0.030  10.124  19.822  0.00  0.00    +0.000 A 
ATOM      9  C   UNL     1       0.863   9.306  20.517  0.00  0.00    +0.000 A 
BRANCH   8  10
ATOM     10  C   UNL     1      -0.514   9.995  18.493  0.00  0.00    +0.000 C 
ATOM     11  N   UNL     1      -0.931   9.882  17.414  0.00  0.00    +0.000 NA
ENDBRANCH   8  10
ENDBRANCH   1   9
BRANCH   3  12
ATOM     12  C   UNL     1       3.452   5.975  19.390  0.00  0.00    +0.000 C 
BRANCH  12  13
ATOM     13  C   UNL     1       2.530   4.766  19.445  0.00  0.00    +0.000 A 
ATOM     14  C   UNL     1       2.037   4.137  18.294  0.00  0.00    +0.000 A 
ATOM     15  C   UNL     1       1.105   3.097  18.395  0.00  0.00    +0.000 A 
ATOM     16  C   UNL     1       0.663   2.667  19.645  0.00  0.00    +0.000 A 
ATOM     17  C   UNL     1       1.207   3.223  20.798  0.00  0.00    +0.000 A 
ATOM     18  C   UNL     1       2.154   4.246  20.698  0.00  0.00    +0.000 A 
ENDBRANCH  12  13
ENDBRANCH   3  12
BRANCH   3  19
ATOM     19  C   UNL     1       3.701   7.387  17.338  0.00  0.00    +0.000 C 
BRANCH  19  20
ATOM     20  C   UNL     1       4.863   6.467  17.012  0.00  0.00    +0.000 A 
ATOM     21  C   UNL     1       4.737   5.221  16.392  0.00  0.00    +0.000 A 
ATOM     22  C   UNL     1       5.859   4.405  16.194  0.00  0.00    +0.000 A 
ATOM     23  C   UNL     1       7.124   4.825  16.606  0.00  0.00    +0.000 A 
ATOM     24  C   UNL     1       7.276   6.077  17.189  0.00  0.00    +0.000 A 
ATOM     25  C   UNL     1       6.156   6.892  17.384  0.00  0.00    +0.000 A 
ENDBRANCH  19  20
ENDBRANCH   3  19
TORSDOF 6
ENDMDL
MODEL 4
REMARK VINA RESULT:      -7.5      1.185      1.248
REMARK  Name = 
REMARK  7 active torsions:
REMARK  status: ('A' for Active; 'I' for Inactive)
REMARK    1  A    between atoms: C_1  and  N_2
REMARK    2  A    between atoms: C_5  and  C_6
REMARK    3  A    between atoms: C_8  and  N_9
REMARK    4  A    between atoms: N_11  and  C_12
REMARK    5  A    between atoms: N_11  and  C_19
REMARK    6  A    between atoms: C_12  and  C_13
REMARK    7  A    between atoms: C_19  and  C_20
REMARK                            x       y       z     vdW  Elec       q    Type
REMARK                         _______ _______ _______ _____ _____    ______ ____
ROOT
ATOM      1  N   UNL     1       1.628   8.140  20.213  0.00  0.00    +0.000 NA
ATOM      2  C   UNL     1       2.132   7.989  19.031  0.00  0.00    +0.000 C 
ATOM      3  N   UNL     1       3.020   7.026  18.582  0.00  0.00    +0.000 N 
ENDROOT
BRANCH   1   9
ATOM      4  C   UNL     1       1.570   9.340  22.907  0.00  0.00    +0.000 C 
ATOM      5  N   UNL     1       0.936   9.864  21.721  0.00  0.00    +0.000 N 
ATOM      6  N   UNL     1       0.270  11.035  21.819  0.00  0.00    +0.000 NA
ATOM      7  C   UNL     1      -0.299  11.167  20.626  0.00  0.00    +0.000 A 
ATOM      8  C   UNL     1       0.009  10.099  19.768  0.00  0.00    +0.000 A 
ATOM      9  C   UNL     1       0.891   9.268  20.462  0.00  0.00    +0.000 A 
BRANCH   8  10
ATOM     10  C   UNL     1      -0.505   9.957  18.452  0.00  0.00    +0.000 C 
ATOM     11  N   UNL     1      -0.932   9.818  17.379  0.00  0.00    +0.000 NA
ENDBRANCH   8  10
ENDBRANCH   1   9
BRANCH   3  12
ATOM     12  C   UNL     1       3.388   5.853  19.381  0.00  0.00    +0.000 C 
BRANCH  12  13
ATOM     13  C   UNL     1       2.428   4.679  19.263  0.00  0.00    +0.000 A 
ATOM     14  C   UNL     1       1.476   4.377  20.246  0.00  0.00    +0.000 A 
ATOM     15  C   UNL     1       0.688   3.224  20.144  0.00  0.00    +0.000 A 
ATOM     16  C   UNL     1       0.835   2.366  19.057  0.00  0.00    +0.000 A 
ATOM     17  C   UNL     1       1.714   2.696  18.030  0.00  0.00    +0.000 A 
ATOM     18  C   UNL     1       2.483   3.858  18.120  0.00  0.00    +0.000 A 
ENDBRANCH  12  13
ENDBRANCH   3  12
BRANCH   3  19
ATOM     19  C   UNL     1       3.882   7.343  17.431  0.00  0.00    +0.000 C 
BRANCH  19  20
ATOM     20  C   UNL     1       5.036   6.392  17.173  0.00  0.00    +0.000 A 
ATOM     21  C   UNL     1       6.228   6.378  17.904  0.00  0.00    +0.000 A 
ATOM     22  C   UNL     1       7.271   5.512  17.549  0.00  0.00    +0.000 A 
ATOM     23  C   UNL     1       7.137   4.644  16.465  0.00  0.00    +0.000 A 
ATOM     24  C   UNL     1       5.946   4.616  15.751  0.00  0.00    +0.000 A 
ATOM     25  C   UNL     1       4.904   5.479  16.106  0.00  0.00    +0.000 A 
ENDBRANCH  19  20
ENDBRANCH   3  19
TORSDOF 6
ENDMDL
MODEL 5
REMARK VINA RESULT:      -7.4      3.717      7.160
REMARK  Name = 
REMARK  7 active torsions:
REMARK  status: ('A' for Active; 'I' for Inactive)
REMARK    1  A    between atoms: C_1  and  N_2
REMARK    2  A    between atoms: C_5  and  C_6
REMARK    3  A    between atoms: C_8  and  N_9
REMARK    4  A    between atoms: N_11  and  C_12
REMARK    5  A    between atoms: N_11  and  C_19
REMARK    6  A    between atoms: C_12  and  C_13
REMARK    7  A    between atoms: C_19  and  C_20
REMARK                            x       y       z     vdW  Elec       q    Type
REMARK                         _______ _______ _______ _____ _____    ______ ____
ROOT
ATOM      1  N   UNL     1       5.293   3.698  15.510  0.00  0.00    +0.000 NA
ATOM      2  C   UNL     1       5.440   4.096  16.732  0.00  0.00    +0.000 C 
ATOM      3  N   UNL     1       4.630   3.852  17.828  0.00  0.00    +0.000 N 
ENDROOT
BRANCH   1   9
ATOM      4  C   UNL     1       7.132   5.914  16.149  0.00  0.00    +0.000 C 
ATOM      5  N   UNL     1       7.057   5.195  14.899  0.00  0.00    +0.000 N 
ATOM      6  N   UNL     1       7.925   5.528  13.919  0.00  0.00    +0.000 NA
ATOM      7  C   UNL     1       7.517   4.802  12.885  0.00  0.00    +0.000 A 
ATOM      8  C   UNL     1       6.406   4.002  13.202  0.00  0.00    +0.000 A 
ATOM      9  C   UNL     1       6.143   4.200  14.559  0.00  0.00    +0.000 A 
BRANCH   8  10
ATOM     10  C   UNL     1       5.733   3.165  12.273  0.00  0.00    +0.000 C 
ATOM     11  N   UNL     1       5.191   2.492  11.495  0.00  0.00    +0.000 NA
ENDBRANCH   8  10
ENDBRANCH   1   9
BRANCH   3  12
ATOM     12  C   UNL     1       3.525   2.888  17.798  0.00  0.00    +0.000 C 
BRANCH  12  13
ATOM     13  C   UNL     1       2.695   2.837  19.073  0.00  0.00    +0.000 A 
ATOM     14  C   UNL     1       1.325   3.134  19.096  0.00  0.00    +0.000 A 
ATOM     15  C   UNL     1       0.629   3.180  20.310  0.00  0.00    +0.000 A 
ATOM     16  C   UNL     1       1.287   2.922  21.510  0.00  0.00    +0.000 A 
ATOM     17  C   UNL     1       2.625   2.542  21.495  0.00  0.00    +0.000 A 
ATOM     18  C   UNL     1       3.316   2.473  20.283  0.00  0.00    +0.000 A 
ENDBRANCH  12  13
ENDBRANCH   3  12
BRANCH   3  19
ATOM     19  C   UNL     1       4.641   4.814  18.942  0.00  0.00    +0.000 C 
BRANCH  19  20
ATOM     20  C   UNL     1       3.716   6.010  18.809  0.00  0.00    +0.000 A 
ATOM     21  C   UNL     1       3.697   6.878  17.713  0.00  0.00    +0.000 A 
ATOM     22  C   UNL     1       2.857   8.000  17.707  0.00  0.00    +0.000 A 
ATOM     23  C   UNL     1       2.022   8.268  18.791  0.00  0.00    +0.000 A 
ATOM     24  C   UNL     1       2.000   7.397  19.874  0.00  0.00    +0.000 A 
ATOM     25  C   UNL     1       2.835   6.275  19.878  0.00  0.00    +0.000 A 
ENDBRANCH  19  20
ENDBRANCH   3  19
TORSDOF 6
ENDMDL
MODEL 6
REMARK VINA RESULT:      -7.4      2.278      6.691
REMARK  Name = 
REMARK  7 active torsions:
REMARK  status: ('A' for Active; 'I' for Inactive)
REMARK    1  A    between atoms: C_1  and  N_2
REMARK    2  A    between atoms: C_5  and  C_6
REMARK    3  A    between atoms: C_8  and  N_9
REMARK    4  A    between atoms: N_11  and  C_12
REMARK    5  A    between atoms: N_11  and  C_19
REMARK    6  A    between atoms: C_12  and  C_13
REMARK    7  A    between atoms: C_19  and  C_20
REMARK                            x       y       z     vdW  Elec       q    Type
REMARK                         _______ _______ _______ _____ _____    ______ ____
ROOT
ATOM      1  N   UNL     1       4.357   5.110  17.283  0.00  0.00    +0.000 NA
ATOM      2  C   UNL     1       3.968   6.239  17.780  0.00  0.00    +0.000 C 
ATOM      3  N   UNL     1       2.681   6.670  18.052  0.00  0.00    +0.000 N 
ENDROOT
BRANCH   1   9
ATOM      4  C   UNL     1       5.155   4.311  14.558  0.00  0.00    +0.000 C 
ATOM      5  N   UNL     1       6.040   4.666  15.641  0.00  0.00    +0.000 N 
ATOM      6  N   UNL     1       7.369   4.673  15.402  0.00  0.00    +0.000 NA
ATOM      7  C   UNL     1       7.898   4.898  16.600  0.00  0.00    +0.000 A 
ATOM      8  C   UNL     1       6.917   5.046  17.594  0.00  0.00    +0.000 A 
ATOM      9  C   UNL     1       5.679   4.970  16.952  0.00  0.00    +0.000 A 
BRANCH   8  10
ATOM     10  C   UNL     1       7.200   5.244  18.972  0.00  0.00    +0.000 C 
ATOM     11  N   UNL     1       7.413   5.422  20.101  0.00  0.00    +0.000 NA
ENDBRANCH   8  10
ENDBRANCH   1   9
BRANCH   3  12
ATOM     12  C   UNL     1       1.516   5.780  17.994  0.00  0.00    +0.000 C 
BRANCH  12  13
ATOM     13  C   UNL     1       1.536   4.645  19.007  0.00  0.00    +0.000 A 
ATOM     14  C   UNL     1       1.698   4.861  20.383  0.00  0.00    +0.000 A 
ATOM     15  C   UNL     1       1.818   3.779  21.263  0.00  0.00    +0.000 A 
ATOM     16  C   UNL     1       1.769   2.472  20.783  0.00  0.00    +0.000 A 
ATOM     17  C   UNL     1       1.523   2.241  19.434  0.00  0.00    +0.000 A 
ATOM     18  C   UNL     1       1.379   3.320  18.558  0.00  0.00    +0.000 A 
ENDBRANCH  12  13
ENDBRANCH   3  12
BRANCH   3  19
ATOM     19  C   UNL     1       2.409   8.117  18.067  0.00  0.00    +0.000 C 
BRANCH  19  20
ATOM     20  C   UNL     1       1.575   8.635  19.224  0.00  0.00    +0.000 A 
ATOM     21  C   UNL     1       1.685   8.184  20.543  0.00  0.00    +0.000 A 
ATOM     22  C   UNL     1       0.823   8.668  21.536  0.00  0.00    +0.000 A 
ATOM     23  C   UNL     1      -0.155   9.614  21.229  0.00  0.00    +0.000 A 
ATOM     24  C   UNL     1      -0.254  10.103  19.932  0.00  0.00    +0.000 A 
ATOM     25  C   UNL     1       0.607   9.622  18.941  0.00  0.00    +0.000 A 
ENDBRANCH  19  20
ENDBRANCH   3  19
TORSDOF 6
ENDMDL
MODEL 7
REMARK VINA RESULT:      -7.3      2.259      6.762
REMARK  Name = 
REMARK  7 active torsions:
REMARK  status: ('A' for Active; 'I' for Inactive)
REMARK    1  A    between atoms: C_1  and  N_2
REMARK    2  A    between atoms: C_5  and  C_6
REMARK    3  A    between atoms: C_8  and  N_9
REMARK    4  A    between atoms: N_11  and  C_12
REMARK    5  A    between atoms: N_11  and  C_19
REMARK    6  A    between atoms: C_12  and  C_13
REMARK    7  A    between atoms: C_19  and  C_20
REMARK                            x       y       z     vdW  Elec       q    Type
REMARK                         _______ _______ _______ _____ _____    ______ ____
ROOT
ATOM      1  N   UNL     1       4.385   5.162  17.298  0.00  0.00    +0.000 NA
ATOM      2  C   UNL     1       4.009   6.297  17.792  0.00  0.00    +0.000 C 
ATOM      3  N   UNL     1       2.728   6.743  18.067  0.00  0.00    +0.000 N 
ENDROOT
BRANCH   1   9
ATOM      4  C   UNL     1       5.165   4.344  14.573  0.00  0.00    +0.000 C 
ATOM      5  N   UNL     1       6.058   4.694  15.652  0.00  0.00    +0.000 N 
ATOM      6  N   UNL     1       7.386   4.686  15.408  0.00  0.00    +0.000 NA
ATOM      7  C   UNL     1       7.921   4.909  16.604  0.00  0.00    +0.000 A 
ATOM      8  C   UNL     1       6.945   5.072  17.601  0.00  0.00    +0.000 A 
ATOM      9  C   UNL     1       5.704   5.007  16.963  0.00  0.00    +0.000 A 
BRANCH   8  10
ATOM     10  C   UNL     1       7.234   5.272  18.976  0.00  0.00    +0.000 C 
ATOM     11  N   UNL     1       7.490   5.420  20.101  0.00  0.00    +0.000 NA
ENDBRANCH   8  10
ENDBRANCH   1   9
BRANCH   3  12
ATOM     12  C   UNL     1       1.554   5.865  18.015  0.00  0.00    +0.000 C 
BRANCH  12  13
ATOM     13  C   UNL     1       1.619   4.666  18.950  0.00  0.00    +0.000 A 
ATOM     14  C   UNL     1       1.448   3.349  18.504  0.00  0.00    +0.000 A 
ATOM     15  C   UNL     1       1.408   2.288  19.417  0.00  0.00    +0.000 A 
ATOM     16  C   UNL     1       1.546   2.529  20.782  0.00  0.00    +0.000 A 
ATOM     17  C   UNL     1       1.802   3.820  21.233  0.00  0.00    +0.000 A 
ATOM     18  C   UNL     1       1.866   4.876  20.320  0.00  0.00    +0.000 A 
ENDBRANCH  12  13
ENDBRANCH   3  12
BRANCH   3  19
ATOM     19  C   UNL     1       2.472   8.193  18.076  0.00  0.00    +0.000 C 
BRANCH  19  20
ATOM     20  C   UNL     1       1.532   8.704  19.153  0.00  0.00    +0.000 A 
ATOM     21  C   UNL     1       0.529   9.655  18.942  0.00  0.00    +0.000 A 
ATOM     22  C   UNL     1      -0.246  10.122  20.011  0.00  0.00    +0.000 A 
ATOM     23  C   UNL     1      -0.036   9.643  21.304  0.00  0.00    +0.000 A 
ATOM     24  C   UNL     1       0.930   8.670  21.528  0.00  0.00    +0.000 A 
ATOM     25  C   UNL     1       1.703   8.202  20.460  0.00  0.00    +0.000 A 
ENDBRANCH  19  20
ENDBRANCH   3  19
TORSDOF 6
ENDMDL
MODEL 8
REMARK VINA RESULT:      -7.3      2.041      6.422
REMARK  Name = 
REMARK  7 active torsions:
REMARK  status: ('A' for Active; 'I' for Inactive)
REMARK    1  A    between atoms: C_1  and  N_2
REMARK    2  A    between atoms: C_5  and  C_6
REMARK    3  A    between atoms: C_8  and  N_9
REMARK    4  A    between atoms: N_11  and  C_12
REMARK    5  A    between atoms: N_11  and  C_19
REMARK    6  A    between atoms: C_12  and  C_13
REMARK    7  A    between atoms: C_19  and  C_20
REMARK                            x       y       z     vdW  Elec       q    Type
REMARK                         _______ _______ _______ _____ _____    ______ ____
ROOT
ATOM      1  N   UNL     1       4.485   5.877  18.283  0.00  0.00    +0.000 NA
ATOM      2  C   UNL     1       3.744   6.889  17.965  0.00  0.00    +0.000 C 
ATOM      3  N   UNL     1       2.629   7.387  18.618  0.00  0.00    +0.000 N 
ENDROOT
BRANCH   1   9
ATOM      4  C   UNL     1       4.368   3.204  17.041  0.00  0.00    +0.000 C 
ATOM      5  N   UNL     1       5.334   4.239  16.758  0.00  0.00    +0.000 N 
ATOM      6  N   UNL     1       6.268   3.999  15.813  0.00  0.00    +0.000 NA
ATOM      7  C   UNL     1       7.064   5.059  15.889  0.00  0.00    +0.000 A 
ATOM      8  C   UNL     1       6.638   5.976  16.864  0.00  0.00    +0.000 A 
ATOM      9  C   UNL     1       5.446   5.475  17.392  0.00  0.00    +0.000 A 
BRANCH   8  10
ATOM     10  C   UNL     1       7.329   7.172  17.192  0.00  0.00    +0.000 C 
ATOM     11  N   UNL     1       7.906   8.151  17.440  0.00  0.00    +0.000 NA
ENDBRANCH   8  10
ENDBRANCH   1   9
BRANCH   3  12
ATOM     12  C   UNL     1       2.218   6.928  19.949  0.00  0.00    +0.000 C 
BRANCH  12  13
ATOM     13  C   UNL     1       1.957   5.432  20.049  0.00  0.00    +0.000 A 
ATOM     14  C   UNL     1       1.391   4.690  19.003  0.00  0.00    +0.000 A 
ATOM     15  C   UNL     1       1.070   3.339  19.182  0.00  0.00    +0.000 A 
ATOM     16  C   UNL     1       1.317   2.712  20.400  0.00  0.00    +0.000 A 
ATOM     17  C   UNL     1       1.956   3.411  21.419  0.00  0.00    +0.000 A 
ATOM     18  C   UNL     1       2.299   4.753  21.234  0.00  0.00    +0.000 A 
ENDBRANCH  12  13
ENDBRANCH   3  12
BRANCH   3  19
ATOM     19  C   UNL     1       1.632   8.139  17.838  0.00  0.00    +0.000 C 
BRANCH  19  20
ATOM     20  C   UNL     1       1.310   9.538  18.328  0.00  0.00    +0.000 A 
ATOM     21  C   UNL     1       0.150   9.884  19.028  0.00  0.00    +0.000 A 
ATOM     22  C   UNL     1      -0.100  11.218  19.380  0.00  0.00    +0.000 A 
ATOM     23  C   UNL     1       0.807  12.222  19.044  0.00  0.00    +0.000 A 
ATOM     24  C   UNL     1       1.983  11.894  18.382  0.00  0.00    +0.000 A 
ATOM     25  C   UNL     1       2.234  10.563  18.033  0.00  0.00    +0.000 A 
ENDBRANCH  19  20
ENDBRANCH   3  19
TORSDOF 6
ENDMDL
MODEL 9
REMARK VINA RESULT:      -7.3      1.088      2.239
REMARK  Name = 
REMARK  7 active torsions:
REMARK  status: ('A' for Active; 'I' for Inactive)
REMARK    1  A    between atoms: C_1  and  N_2
REMARK    2  A    between atoms: C_5  and  C_6
REMARK    3  A    between atoms: C_8  and  N_9
REMARK    4  A    between atoms: N_11  and  C_12
REMARK    5  A    between atoms: N_11  and  C_19
REMARK    6  A    between atoms: C_12  and  C_13
REMARK    7  A    between atoms: C_19  and  C_20
REMARK                            x       y       z     vdW  Elec       q    Type
REMARK                         _______ _______ _______ _____ _____    ______ ____
ROOT
ATOM      1  N   UNL     1       1.622   8.116  20.166  0.00  0.00    +0.000 NA
ATOM      2  C   UNL     1       2.131   7.886  18.998  0.00  0.00    +0.000 C 
ATOM      3  N   UNL     1       3.068   6.937  18.631  0.00  0.00    +0.000 N 
ENDROOT
BRANCH   1   9
ATOM      4  C   UNL     1       0.914   9.798  17.849  0.00  0.00    +0.000 C 
ATOM      5  N   UNL     1       0.439   9.959  19.203  0.00  0.00    +0.000 N 
ATOM      6  N   UNL     1      -0.443  10.950  19.456  0.00  0.00    +0.000 NA
ATOM      7  C   UNL     1      -0.571  10.920  20.778  0.00  0.00    +0.000 A 
ATOM      8  C   UNL     1       0.211   9.912  21.365  0.00  0.00    +0.000 A 
ATOM      9  C   UNL     1       0.825   9.220  20.319  0.00  0.00    +0.000 A 
BRANCH   8  10
ATOM     10  C   UNL     1       0.306   9.687  22.763  0.00  0.00    +0.000 C 
ATOM     11  N   UNL     1       0.365   9.518  23.913  0.00  0.00    +0.000 NA
ENDBRANCH   8  10
ENDBRANCH   1   9
BRANCH   3  12
ATOM     12  C   UNL     1       3.503   5.862  19.530  0.00  0.00    +0.000 C 
BRANCH  12  13
ATOM     13  C   UNL     1       2.576   4.656  19.568  0.00  0.00    +0.000 A 
ATOM     14  C   UNL     1       2.101   4.028  18.408  0.00  0.00    +0.000 A 
ATOM     15  C   UNL     1       1.165   2.991  18.493  0.00  0.00    +0.000 A 
ATOM     16  C   UNL     1       0.699   2.563  19.734  0.00  0.00    +0.000 A 
ATOM     17  C   UNL     1       1.224   3.117  20.897  0.00  0.00    +0.000 A 
ATOM     18  C   UNL     1       2.176   4.136  20.814  0.00  0.00    +0.000 A 
ENDBRANCH  12  13
ENDBRANCH   3  12
BRANCH   3  19
ATOM     19  C   UNL     1       3.909   7.195  17.450  0.00  0.00    +0.000 C 
BRANCH  19  20
ATOM     20  C   UNL     1       5.085   6.258  17.243  0.00  0.00    +0.000 A 
ATOM     21  C   UNL     1       6.347   6.434  17.819  0.00  0.00    +0.000 A 
ATOM     22  C   UNL     1       7.398   5.557  17.515  0.00  0.00    +0.000 A 
ATOM     23  C   UNL     1       7.201   4.490  16.638  0.00  0.00    +0.000 A 
ATOM     24  C   UNL     1       5.945   4.277  16.085  0.00  0.00    +0.000 A 
ATOM     25  C   UNL     1       4.896   5.150  16.391  0.00  0.00    +0.000 A 
ENDBRANCH  19  20
ENDBRANCH   3  19
TORSDOF 6
ENDMDL
