MODEL 1
REMARK VINA RESULT:      -6.7      0.000      0.000
REMARK  Name = 
REMARK  8 active torsions:
REMARK  status: ('A' for Active; 'I' for Inactive)
REMARK    1  A    between atoms: C_2  and  C_3
REMARK    2  A    between atoms: C_2  and  C_5
REMARK    3  A    between atoms: C_3  and  C_4
REMARK    4  A    between atoms: C_5  and  C_7
REMARK    5  A    between atoms: C_10  and  O_11
REMARK    6  A    between atoms: O_11  and  C_12
REMARK    7  A    between atoms: C_12  and  C_13
REMARK    8  A    between atoms: C_13  and  O_15
REMARK                            x       y       z     vdW  Elec       q    Type
REMARK                         _______ _______ _______ _____ _____    ______ ____
ROOT
ATOM      1  C   UNL     1       4.444   5.953  17.283  0.00  0.00    +0.000 A 
ATOM      2  C   UNL     1       3.509   6.727  17.982  0.00  0.00    +0.000 A 
ATOM      3  C   UNL     1       2.419   6.143  18.623  0.00  0.00    +0.000 A 
ATOM      4  C   UNL     1       2.197   4.771  18.525  0.00  0.00    +0.000 A 
ATOM      5  C   UNL     1       3.054   3.996  17.723  0.00  0.00    +0.000 A 
ATOM      6 CL   UNL     1       2.662   2.312  17.497  0.00  0.00    +0.000 Cl
ATOM      7  C   UNL     1       4.198   4.574  17.124  0.00  0.00    +0.000 A 
ATOM      8 CL   UNL     1       5.298   3.549  16.248  0.00  0.00    +0.000 Cl
ENDROOT
BRANCH   1   9
ATOM      9  C   UNL     1       5.607   6.651  16.653  0.00  0.00    +0.000 C 
ATOM     10  O   UNL     1       5.474   7.120  15.526  0.00  0.00    +0.000 OA
BRANCH   9  12
ATOM     11  C   UNL     1       7.401   8.098  17.364  0.00  0.00    +0.000 C 
ATOM     12  C   UNL     1       6.909   6.846  17.411  0.00  0.00    +0.000 C 
BRANCH  12  13
ATOM     13  C   UNL     1       7.615   5.707  18.114  0.00  0.00    +0.000 C 
ATOM     14  C   UNL     1       7.490   5.647  19.635  0.00  0.00    +0.000 C 
ENDBRANCH  12  13
ENDBRANCH   9  12
ENDBRANCH   1   9
BRANCH   4  15
ATOM     15  O   UNL     1       1.152   4.140  19.167  0.00  0.00    +0.000 OA
BRANCH  15  16
ATOM     16  C   UNL     1       1.131   4.290  20.588  0.00  0.00    +0.000 C 
BRANCH  16  17
ATOM     17  C   UNL     1       1.810   3.114  21.267  0.00  0.00    +0.000 C 
ATOM     18  O   UNL     1       2.432   3.219  22.315  0.00  0.00    +0.000 OA
BRANCH  17  19
ATOM     19  O   UNL     1       1.663   1.944  20.615  0.00  0.00    +0.000 OA
ATOM     20  H   UNL     1       2.383   1.818  19.959  0.00  0.00    +0.000 HD
ENDBRANCH  17  19
ENDBRANCH  16  17
ENDBRANCH  15  16
ENDBRANCH   4  15
TORSDOF 7
ENDMDL
MODEL 2
REMARK VINA RESULT:      -6.7      2.603      5.868
REMARK  Name = 
REMARK  8 active torsions:
REMARK  status: ('A' for Active; 'I' for Inactive)
REMARK    1  A    between atoms: C_2  and  C_3
REMARK    2  A    between atoms: C_2  and  C_5
REMARK    3  A    between atoms: C_3  and  C_4
REMARK    4  A    between atoms: C_5  and  C_7
REMARK    5  A    between atoms: C_10  and  O_11
REMARK    6  A    between atoms: O_11  and  C_12
REMARK    7  A    between atoms: C_12  and  C_13
REMARK    8  A    between atoms: C_13  and  O_15
REMARK                            x       y       z     vdW  Elec       q    Type
REMARK                         _______ _______ _______ _____ _____    ______ ____
ROOT
ATOM      1  C   UNL     1       2.964   4.422  17.655  0.00  0.00    +0.000 A 
ATOM      2  C   UNL     1       3.843   3.400  17.269  0.00  0.00    +0.000 A 
ATOM      3  C   UNL     1       5.193   3.655  17.040  0.00  0.00    +0.000 A 
ATOM      4  C   UNL     1       5.689   4.954  17.125  0.00  0.00    +0.000 A 
ATOM      5  C   UNL     1       4.797   6.011  17.386  0.00  0.00    +0.000 A 
ATOM      6 CL   UNL     1       5.418   7.638  17.335  0.00  0.00    +0.000 Cl
ATOM      7  C   UNL     1       3.438   5.748  17.683  0.00  0.00    +0.000 A 
ATOM      8 CL   UNL     1       2.403   7.075  18.127  0.00  0.00    +0.000 Cl
ENDROOT
BRANCH   1   9
ATOM      9  C   UNL     1       1.537   4.061  17.918  0.00  0.00    +0.000 C 
ATOM     10  O   UNL     1       0.690   4.352  17.078  0.00  0.00    +0.000 OA
BRANCH   9  12
ATOM     11  C   UNL     1       0.619   2.068  18.919  0.00  0.00    +0.000 C 
ATOM     12  C   UNL     1       1.141   3.284  19.163  0.00  0.00    +0.000 C 
BRANCH  12  13
ATOM     13  C   UNL     1       1.278   3.860  20.555  0.00  0.00    +0.000 C 
ATOM     14  C   UNL     1       1.560   2.875  21.688  0.00  0.00    +0.000 C 
ENDBRANCH  12  13
ENDBRANCH   9  12
ENDBRANCH   1   9
BRANCH   4  15
ATOM     15  O   UNL     1       7.022   5.254  16.939  0.00  0.00    +0.000 OA
BRANCH  15  16
ATOM     16  C   UNL     1       7.902   4.769  17.955  0.00  0.00    +0.000 C 
BRANCH  16  17
ATOM     17  C   UNL     1       7.903   5.693  19.158  0.00  0.00    +0.000 C 
ATOM     18  O   UNL     1       7.518   5.344  20.266  0.00  0.00    +0.000 OA
BRANCH  17  19
ATOM     19  O   UNL     1       8.368   6.932  18.900  0.00  0.00    +0.000 OA
ATOM     20  H   UNL     1       7.785   7.613  19.302  0.00  0.00    +0.000 HD
ENDBRANCH  17  19
ENDBRANCH  16  17
ENDBRANCH  15  16
ENDBRANCH   4  15
TORSDOF 7
ENDMDL
MODEL 3
REMARK VINA RESULT:      -6.4      0.794      1.349
REMARK  Name = 
REMARK  8 active torsions:
REMARK  status: ('A' for Active; 'I' for Inactive)
REMARK    1  A    between atoms: C_2  and  C_3
REMARK    2  A    between atoms: C_2  and  C_5
REMARK    3  A    between atoms: C_3  and  C_4
REMARK    4  A    between atoms: C_5  and  C_7
REMARK    5  A    between atoms: C_10  and  O_11
REMARK    6  A    between atoms: O_11  and  C_12
REMARK    7  A    between atoms: C_12  and  C_13
REMARK    8  A    between atoms: C_13  and  O_15
REMARK                            x       y       z     vdW  Elec       q    Type
REMARK                         _______ _______ _______ _____ _____    ______ ____
ROOT
ATOM      1  C   UNL     1       4.928   5.921  17.394  0.00  0.00    +0.000 A 
ATOM      2  C   UNL     1       4.144   6.838  18.107  0.00  0.00    +0.000 A 
ATOM      3  C   UNL     1       2.956   6.451  18.721  0.00  0.00    +0.000 A 
ATOM      4  C   UNL     1       2.482   5.148  18.582  0.00  0.00    +0.000 A 
ATOM      5  C   UNL     1       3.190   4.248  17.764  0.00  0.00    +0.000 A 
ATOM      6 CL   UNL     1       2.494   2.675  17.486  0.00  0.00    +0.000 Cl
ATOM      7  C   UNL     1       4.430   4.618  17.192  0.00  0.00    +0.000 A 
ATOM      8 CL   UNL     1       5.331   3.429  16.297  0.00  0.00    +0.000 Cl
ENDROOT
BRANCH   1   9
ATOM      9  C   UNL     1       6.210   6.405  16.794  0.00  0.00    +0.000 C 
ATOM     10  O   UNL     1       6.351   6.345  15.576  0.00  0.00    +0.000 OA
BRANCH   9  12
ATOM     11  C   UNL     1       7.757   6.230  18.636  0.00  0.00    +0.000 C 
ATOM     12  C   UNL     1       7.293   7.030  17.658  0.00  0.00    +0.000 C 
BRANCH  12  13
ATOM     13  C   UNL     1       7.765   8.453  17.461  0.00  0.00    +0.000 C 
ATOM     14  C   UNL     1       8.631   9.055  18.566  0.00  0.00    +0.000 C 
ENDBRANCH  12  13
ENDBRANCH   9  12
ENDBRANCH   1   9
BRANCH   4  15
ATOM     15  O   UNL     1       1.329   4.707  19.196  0.00  0.00    +0.000 OA
BRANCH  15  16
ATOM     16  C   UNL     1       1.407   4.578  20.617  0.00  0.00    +0.000 C 
BRANCH  16  17
ATOM     17  C   UNL     1       1.219   3.133  21.041  0.00  0.00    +0.000 C 
ATOM     18  O   UNL     1       1.688   2.677  22.075  0.00  0.00    +0.000 OA
BRANCH  17  19
ATOM     19  O   UNL     1       0.487   2.399  20.181  0.00  0.00    +0.000 OA
ATOM     20  H   UNL     1       0.250   2.926  19.387  0.00  0.00    +0.000 HD
ENDBRANCH  17  19
ENDBRANCH  16  17
ENDBRANCH  15  16
ENDBRANCH   4  15
TORSDOF 7
ENDMDL
MODEL 4
REMARK VINA RESULT:      -6.4      1.886      2.534
REMARK  Name = 
REMARK  8 active torsions:
REMARK  status: ('A' for Active; 'I' for Inactive)
REMARK    1  A    between atoms: C_2  and  C_3
REMARK    2  A    between atoms: C_2  and  C_5
REMARK    3  A    between atoms: C_3  and  C_4
REMARK    4  A    between atoms: C_5  and  C_7
REMARK    5  A    between atoms: C_10  and  O_11
REMARK    6  A    between atoms: O_11  and  C_12
REMARK    7  A    between atoms: C_12  and  C_13
REMARK    8  A    between atoms: C_13  and  O_15
REMARK                            x       y       z     vdW  Elec       q    Type
REMARK                         _______ _______ _______ _____ _____    ______ ____
ROOT
ATOM      1  C   UNL     1       5.447   5.168  16.957  0.00  0.00    +0.000 A 
ATOM      2  C   UNL     1       5.435   3.766  16.947  0.00  0.00    +0.000 A 
ATOM      3  C   UNL     1       4.263   3.051  17.179  0.00  0.00    +0.000 A 
ATOM      4  C   UNL     1       3.081   3.717  17.494  0.00  0.00    +0.000 A 
ATOM      5  C   UNL     1       3.103   5.117  17.633  0.00  0.00    +0.000 A 
ATOM      6 CL   UNL     1       1.648   5.908  18.176  0.00  0.00    +0.000 Cl
ATOM      7  C   UNL     1       4.275   5.852  17.336  0.00  0.00    +0.000 A 
ATOM      8 CL   UNL     1       4.216   7.590  17.397  0.00  0.00    +0.000 Cl
ENDROOT
BRANCH   1   9
ATOM      9  C   UNL     1       6.738   5.864  16.663  0.00  0.00    +0.000 C 
ATOM     10  O   UNL     1       7.206   5.784  15.530  0.00  0.00    +0.000 OA
BRANCH   9  12
ATOM     11  C   UNL     1       7.736   6.062  18.850  0.00  0.00    +0.000 C 
ATOM     12  C   UNL     1       7.426   6.717  17.715  0.00  0.00    +0.000 C 
BRANCH  12  13
ATOM     13  C   UNL     1       7.689   8.193  17.516  0.00  0.00    +0.000 C 
ATOM     14  C   UNL     1       8.591   8.881  18.539  0.00  0.00    +0.000 C 
ENDBRANCH  12  13
ENDBRANCH   9  12
ENDBRANCH   1   9
BRANCH   4  15
ATOM     15  O   UNL     1       1.888   3.057  17.699  0.00  0.00    +0.000 OA
BRANCH  15  16
ATOM     16  C   UNL     1       1.906   2.076  18.738  0.00  0.00    +0.000 C 
BRANCH  16  17
ATOM     17  C   UNL     1       1.717   2.724  20.098  0.00  0.00    +0.000 C 
ATOM     18  O   UNL     1       2.609   2.788  20.934  0.00  0.00    +0.000 OA
BRANCH  17  19
ATOM     19  O   UNL     1       0.483   3.225  20.301  0.00  0.00    +0.000 OA
ATOM     20  H   UNL     1       0.475   3.826  21.078  0.00  0.00    +0.000 HD
ENDBRANCH  17  19
ENDBRANCH  16  17
ENDBRANCH  15  16
ENDBRANCH   4  15
TORSDOF 7
ENDMDL
MODEL 5
REMARK VINA RESULT:      -6.3      2.437      6.254
REMARK  Name = 
REMARK  8 active torsions:
REMARK  status: ('A' for Active; 'I' for Inactive)
REMARK    1  A    between atoms: C_2  and  C_3
REMARK    2  A    between atoms: C_2  and  C_5
REMARK    3  A    between atoms: C_3  and  C_4
REMARK    4  A    between atoms: C_5  and  C_7
REMARK    5  A    between atoms: C_10  and  O_11
REMARK    6  A    between atoms: O_11  and  C_12
REMARK    7  A    between atoms: C_12  and  C_13
REMARK    8  A    between atoms: C_13  and  O_15
REMARK                            x       y       z     vdW  Elec       q    Type
REMARK                         _______ _______ _______ _____ _____    ______ ____
ROOT
ATOM      1  C   UNL     1       3.418   5.119  19.407  0.00  0.00    +0.000 A 
ATOM      2  C   UNL     1       4.524   4.285  19.625  0.00  0.00    +0.000 A 
ATOM      3  C   UNL     1       5.689   4.418  18.875  0.00  0.00    +0.000 A 
ATOM      4  C   UNL     1       5.759   5.347  17.838  0.00  0.00    +0.000 A 
ATOM      5  C   UNL     1       4.616   6.105  17.522  0.00  0.00    +0.000 A 
ATOM      6 CL   UNL     1       4.685   7.146  16.126  0.00  0.00    +0.000 Cl
ATOM      7  C   UNL     1       3.452   6.019  18.322  0.00  0.00    +0.000 A 
ATOM      8 CL   UNL     1       2.110   7.070  17.971  0.00  0.00    +0.000 Cl
ENDROOT
BRANCH   1   9
ATOM      9  C   UNL     1       2.216   4.939  20.278  0.00  0.00    +0.000 C 
ATOM     10  O   UNL     1       1.778   5.911  20.887  0.00  0.00    +0.000 OA
BRANCH   9  12
ATOM     11  C   UNL     1       1.502   3.039  21.581  0.00  0.00    +0.000 C 
ATOM     12  C   UNL     1       1.500   3.601  20.358  0.00  0.00    +0.000 C 
BRANCH  12  13
ATOM     13  C   UNL     1       0.884   2.939  19.145  0.00  0.00    +0.000 C 
ATOM     14  C   UNL     1       1.829   2.178  18.217  0.00  0.00    +0.000 C 
ENDBRANCH  12  13
ENDBRANCH   9  12
ENDBRANCH   1   9
BRANCH   4  15
ATOM     15  O   UNL     1       6.900   5.540  17.088  0.00  0.00    +0.000 OA
BRANCH  15  16
ATOM     16  C   UNL     1       7.284   4.434  16.269  0.00  0.00    +0.000 C 
BRANCH  16  17
ATOM     17  C   UNL     1       6.929   4.687  14.816  0.00  0.00    +0.000 C 
ATOM     18  O   UNL     1       5.948   4.196  14.274  0.00  0.00    +0.000 OA
BRANCH  17  19
ATOM     19  O   UNL     1       7.788   5.504  14.175  0.00  0.00    +0.000 OA
ATOM     20  H   UNL     1       8.391   5.945  14.813  0.00  0.00    +0.000 HD
ENDBRANCH  17  19
ENDBRANCH  16  17
ENDBRANCH  15  16
ENDBRANCH   4  15
TORSDOF 7
ENDMDL
MODEL 6
REMARK VINA RESULT:      -6.3      0.652      1.384
REMARK  Name = 
REMARK  8 active torsions:
REMARK  status: ('A' for Active; 'I' for Inactive)
REMARK    1  A    between atoms: C_2  and  C_3
REMARK    2  A    between atoms: C_2  and  C_5
REMARK    3  A    between atoms: C_3  and  C_4
REMARK    4  A    between atoms: C_5  and  C_7
REMARK    5  A    between atoms: C_10  and  O_11
REMARK    6  A    between atoms: O_11  and  C_12
REMARK    7  A    between atoms: C_12  and  C_13
REMARK    8  A    between atoms: C_13  and  O_15
REMARK                            x       y       z     vdW  Elec       q    Type
REMARK                         _______ _______ _______ _____ _____    ______ ____
ROOT
ATOM      1  C   UNL     1       4.513   5.740  17.207  0.00  0.00    +0.000 A 
ATOM      2  C   UNL     1       3.511   6.472  17.857  0.00  0.00    +0.000 A 
ATOM      3  C   UNL     1       2.434   5.838  18.470  0.00  0.00    +0.000 A 
ATOM      4  C   UNL     1       2.293   4.454  18.392  0.00  0.00    +0.000 A 
ATOM      5  C   UNL     1       3.221   3.714  17.636  0.00  0.00    +0.000 A 
ATOM      6 CL   UNL     1       2.933   2.008  17.429  0.00  0.00    +0.000 Cl
ATOM      7  C   UNL     1       4.351   4.347  17.066  0.00  0.00    +0.000 A 
ATOM      8 CL   UNL     1       5.538   3.370  16.249  0.00  0.00    +0.000 Cl
ENDROOT
BRANCH   1   9
ATOM      9  C   UNL     1       5.657   6.491  16.604  0.00  0.00    +0.000 C 
ATOM     10  O   UNL     1       5.575   6.851  15.433  0.00  0.00    +0.000 OA
BRANCH   9  12
ATOM     11  C   UNL     1       7.346   5.883  18.215  0.00  0.00    +0.000 C 
ATOM     12  C   UNL     1       6.870   6.873  17.437  0.00  0.00    +0.000 C 
BRANCH  12  13
ATOM     13  C   UNL     1       7.454   8.268  17.425  0.00  0.00    +0.000 C 
ATOM     14  C   UNL     1       8.505   8.588  18.485  0.00  0.00    +0.000 C 
ENDBRANCH  12  13
ENDBRANCH   9  12
ENDBRANCH   1   9
BRANCH   4  15
ATOM     15  O   UNL     1       1.263   3.776  19.009  0.00  0.00    +0.000 OA
BRANCH  15  16
ATOM     16  C   UNL     1       0.902   4.262  20.303  0.00  0.00    +0.000 C 
BRANCH  16  17
ATOM     17  C   UNL     1       1.869   3.760  21.360  0.00  0.00    +0.000 C 
ATOM     18  O   UNL     1       1.845   2.617  21.795  0.00  0.00    +0.000 OA
BRANCH  17  19
ATOM     19  O   UNL     1       2.760   4.683  21.773  0.00  0.00    +0.000 OA
ATOM     20  H   UNL     1       2.303   5.504  22.059  0.00  0.00    +0.000 HD
ENDBRANCH  17  19
ENDBRANCH  16  17
ENDBRANCH  15  16
ENDBRANCH   4  15
TORSDOF 7
ENDMDL
MODEL 7
REMARK VINA RESULT:      -6.3      1.996      2.525
REMARK  Name = 
REMARK  8 active torsions:
REMARK  status: ('A' for Active; 'I' for Inactive)
REMARK    1  A    between atoms: C_2  and  C_3
REMARK    2  A    between atoms: C_2  and  C_5
REMARK    3  A    between atoms: C_3  and  C_4
REMARK    4  A    between atoms: C_5  and  C_7
REMARK    5  A    between atoms: C_10  and  O_11
REMARK    6  A    between atoms: O_11  and  C_12
REMARK    7  A    between atoms: C_12  and  C_13
REMARK    8  A    between atoms: C_13  and  O_15
REMARK                            x       y       z     vdW  Elec       q    Type
REMARK                         _______ _______ _______ _____ _____    ______ ____
ROOT
ATOM      1  C   UNL     1       4.247   5.137  16.889  0.00  0.00    +0.000 A 
ATOM      2  C   UNL     1       3.952   3.767  16.880  0.00  0.00    +0.000 A 
ATOM      3  C   UNL     1       2.973   3.231  17.713  0.00  0.00    +0.000 A 
ATOM      4  C   UNL     1       2.307   4.042  18.629  0.00  0.00    +0.000 A 
ATOM      5  C   UNL     1       2.678   5.395  18.741  0.00  0.00    +0.000 A 
ATOM      6 CL   UNL     1       1.936   6.346  19.999  0.00  0.00    +0.000 Cl
ATOM      7  C   UNL     1       3.626   5.957  17.853  0.00  0.00    +0.000 A 
ATOM      8 CL   UNL     1       3.957   7.663  17.946  0.00  0.00    +0.000 Cl
ENDROOT
BRANCH   1   9
ATOM      9  C   UNL     1       5.285   5.641  15.938  0.00  0.00    +0.000 C 
ATOM     10  O   UNL     1       5.076   6.693  15.340  0.00  0.00    +0.000 OA
BRANCH   9  12
ATOM     11  C   UNL     1       6.843   4.475  14.513  0.00  0.00    +0.000 C 
ATOM     12  C   UNL     1       6.608   4.913  15.764  0.00  0.00    +0.000 C 
BRANCH  12  13
ATOM     13  C   UNL     1       7.551   4.660  16.919  0.00  0.00    +0.000 C 
ATOM     14  C   UNL     1       7.435   5.590  18.124  0.00  0.00    +0.000 C 
ENDBRANCH  12  13
ENDBRANCH   9  12
ENDBRANCH   1   9
BRANCH   4  15
ATOM     15  O   UNL     1       1.308   3.568  19.453  0.00  0.00    +0.000 OA
BRANCH  15  16
ATOM     16  C   UNL     1       1.623   2.369  20.163  0.00  0.00    +0.000 C 
BRANCH  16  17
ATOM     17  C   UNL     1       2.631   2.640  21.265  0.00  0.00    +0.000 C 
ATOM     18  O   UNL     1       3.794   2.263  21.211  0.00  0.00    +0.000 OA
BRANCH  17  19
ATOM     19  O   UNL     1       2.134   3.338  22.305  0.00  0.00    +0.000 OA
ATOM     20  H   UNL     1       1.593   4.095  21.990  0.00  0.00    +0.000 HD
ENDBRANCH  17  19
ENDBRANCH  16  17
ENDBRANCH  15  16
ENDBRANCH   4  15
TORSDOF 7
ENDMDL
MODEL 8
REMARK VINA RESULT:      -6.3      2.130      6.060
REMARK  Name = 
REMARK  8 active torsions:
REMARK  status: ('A' for Active; 'I' for Inactive)
REMARK    1  A    between atoms: C_2  and  C_3
REMARK    2  A    between atoms: C_2  and  C_5
REMARK    3  A    between atoms: C_3  and  C_4
REMARK    4  A    between atoms: C_5  and  C_7
REMARK    5  A    between atoms: C_10  and  O_11
REMARK    6  A    between atoms: O_11  and  C_12
REMARK    7  A    between atoms: C_12  and  C_13
REMARK    8  A    between atoms: C_13  and  O_15
REMARK                            x       y       z     vdW  Elec       q    Type
REMARK                         _______ _______ _______ _____ _____    ______ ____
ROOT
ATOM      1  C   UNL     1       3.087   5.223  19.163  0.00  0.00    +0.000 A 
ATOM      2  C   UNL     1       2.815   6.331  18.348  0.00  0.00    +0.000 A 
ATOM      3  C   UNL     1       3.700   6.730  17.350  0.00  0.00    +0.000 A 
ATOM      4  C   UNL     1       4.917   6.073  17.183  0.00  0.00    +0.000 A 
ATOM      5  C   UNL     1       5.264   5.040  18.074  0.00  0.00    +0.000 A 
ATOM      6 CL   UNL     1       6.854   4.341  17.936  0.00  0.00    +0.000 Cl
ATOM      7  C   UNL     1       4.341   4.589  19.047  0.00  0.00    +0.000 A 
ATOM      8 CL   UNL     1       4.765   3.224  20.039  0.00  0.00    +0.000 Cl
ENDROOT
BRANCH   1   9
ATOM      9  C   UNL     1       2.070   4.834  20.188  0.00  0.00    +0.000 C 
ATOM     10  O   UNL     1       1.718   5.670  21.017  0.00  0.00    +0.000 OA
BRANCH   9  12
ATOM     11  C   UNL     1       1.354   2.857  21.369  0.00  0.00    +0.000 C 
ATOM     12  C   UNL     1       1.422   3.460  20.168  0.00  0.00    +0.000 C 
BRANCH  12  13
ATOM     13  C   UNL     1       0.945   2.809  18.888  0.00  0.00    +0.000 C 
ATOM     14  C   UNL     1       1.976   2.012  18.091  0.00  0.00    +0.000 C 
ENDBRANCH  12  13
ENDBRANCH   9  12
ENDBRANCH   1   9
BRANCH   4  15
ATOM     15  O   UNL     1       5.813   6.409  16.190  0.00  0.00    +0.000 OA
BRANCH  15  16
ATOM     16  C   UNL     1       5.568   5.803  14.919  0.00  0.00    +0.000 C 
BRANCH  16  17
ATOM     17  C   UNL     1       6.743   4.940  14.496  0.00  0.00    +0.000 C 
ATOM     18  O   UNL     1       7.860   5.393  14.283  0.00  0.00    +0.000 OA
BRANCH  17  19
ATOM     19  O   UNL     1       6.449   3.630  14.380  0.00  0.00    +0.000 OA
ATOM     20  H   UNL     1       6.667   3.150  15.208  0.00  0.00    +0.000 HD
ENDBRANCH  17  19
ENDBRANCH  16  17
ENDBRANCH  15  16
ENDBRANCH   4  15
TORSDOF 7
ENDMDL
MODEL 9
REMARK VINA RESULT:      -6.3      2.521      6.486
REMARK  Name = 
REMARK  8 active torsions:
REMARK  status: ('A' for Active; 'I' for Inactive)
REMARK    1  A    between atoms: C_2  and  C_3
REMARK    2  A    between atoms: C_2  and  C_5
REMARK    3  A    between atoms: C_3  and  C_4
REMARK    4  A    between atoms: C_5  and  C_7
REMARK    5  A    between atoms: C_10  and  O_11
REMARK    6  A    between atoms: O_11  and  C_12
REMARK    7  A    between atoms: C_12  and  C_13
REMARK    8  A    between atoms: C_13  and  O_15
REMARK                            x       y       z     vdW  Elec       q    Type
REMARK                         _______ _______ _______ _____ _____    ______ ____
ROOT
ATOM      1  C   UNL     1       4.058   5.930  18.028  0.00  0.00    +0.000 A 
ATOM      2  C   UNL     1       4.039   6.707  16.862  0.00  0.00    +0.000 A 
ATOM      3  C   UNL     1       5.084   6.660  15.943  0.00  0.00    +0.000 A 
ATOM      4  C   UNL     1       6.212   5.882  16.198  0.00  0.00    +0.000 A 
ATOM      5  C   UNL     1       6.305   5.195  17.422  0.00  0.00    +0.000 A 
ATOM      6 CL   UNL     1       7.791   4.355  17.778  0.00  0.00    +0.000 Cl
ATOM      7  C   UNL     1       5.218   5.188  18.328  0.00  0.00    +0.000 A 
ATOM      8 CL   UNL     1       5.330   4.218  19.769  0.00  0.00    +0.000 Cl
ENDROOT
BRANCH   1   9
ATOM      9  C   UNL     1       2.881   6.008  18.947  0.00  0.00    +0.000 C 
ATOM     10  O   UNL     1       2.664   7.062  19.539  0.00  0.00    +0.000 OA
BRANCH   9  12
ATOM     11  C   UNL     1       1.659   4.184  17.949  0.00  0.00    +0.000 C 
ATOM     12  C   UNL     1       1.923   4.838  19.095  0.00  0.00    +0.000 C 
BRANCH  12  13
ATOM     13  C   UNL     1       1.281   4.479  20.417  0.00  0.00    +0.000 C 
ATOM     14  C   UNL     1       1.989   3.427  21.268  0.00  0.00    +0.000 C 
ENDBRANCH  12  13
ENDBRANCH   9  12
ENDBRANCH   1   9
BRANCH   4  15
ATOM     15  O   UNL     1       7.258   5.776  15.306  0.00  0.00    +0.000 OA
BRANCH  15  16
ATOM     16  C   UNL     1       7.085   4.799  14.278  0.00  0.00    +0.000 C 
BRANCH  16  17
ATOM     17  C   UNL     1       7.856   5.185  13.029  0.00  0.00    +0.000 C 
ATOM     18  O   UNL     1       7.576   4.761  11.916  0.00  0.00    +0.000 OA
BRANCH  17  19
ATOM     19  O   UNL     1       8.875   6.039  13.253  0.00  0.00    +0.000 OA
ATOM     20  H   UNL     1       9.621   5.582  13.699  0.00  0.00    +0.000 HD
ENDBRANCH  17  19
ENDBRANCH  16  17
ENDBRANCH  15  16
ENDBRANCH   4  15
TORSDOF 7
ENDMDL
