MODEL 1
REMARK VINA RESULT:      -6.7      0.000      0.000
REMARK  Name = 
REMARK  7 active torsions:
REMARK  status: ('A' for Active; 'I' for Inactive)
REMARK    1  A    between atoms: C_1  and  C_2
REMARK    2  A    between atoms: C_2  and  N_3
REMARK    3  A    between atoms: N_3  and  C_4
REMARK    4  A    between atoms: N_3  and  C_6
REMARK    5  A    between atoms: C_4  and  C_5
REMARK    6  A    between atoms: C_14  and  N_15
REMARK    7  A    between atoms: C_16  and  C_17
REMARK                            x       y       z     vdW  Elec       q    Type
REMARK                         _______ _______ _______ _____ _____    ______ ____
ROOT
ATOM      1  C   UNL     1       3.319   6.129  17.941  0.00  0.00    +0.000 A 
ATOM      2  N   UNL     1       4.169   6.586  16.981  0.00  0.00    +0.000 NA
ATOM      3  C   UNL     1       4.938   5.751  16.272  0.00  0.00    +0.000 A 
ATOM      4  C   UNL     1       5.842   6.293  15.358  0.00  0.00    +0.000 A 
ATOM      5  C   UNL     1       6.680   5.500  14.571  0.00  0.00    +0.000 A 
ATOM      6  C   UNL     1       6.621   4.123  14.690  0.00  0.00    +0.000 A 
ATOM      7  C   UNL     1       5.753   3.558  15.623  0.00  0.00    +0.000 A 
ATOM      8  C   UNL     1       4.907   4.360  16.436  0.00  0.00    +0.000 A 
ATOM      9  C   UNL     1       4.054   3.850  17.456  0.00  0.00    +0.000 A 
ATOM     10  C   UNL     1       3.237   4.737  18.261  0.00  0.00    +0.000 A 
ENDROOT
BRANCH  10  11
ATOM     11  C   UNL     1       2.445   4.170  19.412  0.00  0.00    +0.000 A 
ATOM     12  C   UNL     1       3.006   4.003  20.691  0.00  0.00    +0.000 A 
ATOM     13  C   UNL     1       2.359   3.276  21.700  0.00  0.00    +0.000 A 
ATOM     14  C   UNL     1       1.137   2.665  21.444  0.00  0.00    +0.000 A 
ATOM     15  C   UNL     1       0.512   2.886  20.224  0.00  0.00    +0.000 A 
ATOM     16  C   UNL     1       1.130   3.687  19.255  0.00  0.00    +0.000 A 
ENDBRANCH  10  11
BRANCH   9  17
ATOM     17  N   UNL     1       4.240   2.470  17.791  0.00  0.00    +0.000 N 
ATOM     18  H   UNL     1       4.120   1.838  17.007  0.00  0.00    +0.000 HD
ATOM     19  H   UNL     1       3.793   2.132  18.627  0.00  0.00    +0.000 HD
ENDBRANCH   9  17
BRANCH   1  20
ATOM     20  N   UNL     1       2.629   7.142  18.607  0.00  0.00    +0.000 N 
BRANCH  20  22
ATOM     21  C   UNL     1       2.059   9.504  17.859  0.00  0.00    +0.000 C 
ATOM     22  C   UNL     1       1.767   8.014  17.792  0.00  0.00    +0.000 C 
ENDBRANCH  20  22
BRANCH  20  23
ATOM     23  C   UNL     1       2.667   7.288  20.057  0.00  0.00    +0.000 C 
ATOM     24  C   UNL     1       1.289   7.423  20.681  0.00  0.00    +0.000 C 
ENDBRANCH  20  23
ENDBRANCH   1  20
TORSDOF 5
ENDMDL
MODEL 2
REMARK VINA RESULT:      -6.7      0.418      1.083
REMARK  Name = 
REMARK  7 active torsions:
REMARK  status: ('A' for Active; 'I' for Inactive)
REMARK    1  A    between atoms: C_1  and  C_2
REMARK    2  A    between atoms: C_2  and  N_3
REMARK    3  A    between atoms: N_3  and  C_4
REMARK    4  A    between atoms: N_3  and  C_6
REMARK    5  A    between atoms: C_4  and  C_5
REMARK    6  A    between atoms: C_14  and  N_15
REMARK    7  A    between atoms: C_16  and  C_17
REMARK                            x       y       z     vdW  Elec       q    Type
REMARK                         _______ _______ _______ _____ _____    ______ ____
ROOT
ATOM      1  C   UNL     1       3.423   5.771  17.873  0.00  0.00    +0.000 A 
ATOM      2  N   UNL     1       4.249   6.317  16.939  0.00  0.00    +0.000 NA
ATOM      3  C   UNL     1       5.014   5.555  16.149  0.00  0.00    +0.000 A 
ATOM      4  C   UNL     1       5.894   6.184  15.267  0.00  0.00    +0.000 A 
ATOM      5  C   UNL     1       6.726   5.470  14.401  0.00  0.00    +0.000 A 
ATOM      6  C   UNL     1       6.685   4.087  14.405  0.00  0.00    +0.000 A 
ATOM      7  C   UNL     1       5.842   3.435  15.304  0.00  0.00    +0.000 A 
ATOM      8  C   UNL     1       5.003   4.155  16.196  0.00  0.00    +0.000 A 
ATOM      9  C   UNL     1       4.175   3.550  17.185  0.00  0.00    +0.000 A 
ATOM     10  C   UNL     1       3.363   4.356  18.076  0.00  0.00    +0.000 A 
ENDROOT
BRANCH  10  11
ATOM     11  C   UNL     1       2.600   3.684  19.190  0.00  0.00    +0.000 A 
ATOM     12  C   UNL     1       1.202   3.538  19.152  0.00  0.00    +0.000 A 
ATOM     13  C   UNL     1       0.465   3.125  20.271  0.00  0.00    +0.000 A 
ATOM     14  C   UNL     1       1.110   2.874  21.476  0.00  0.00    +0.000 A 
ATOM     15  C   UNL     1       2.497   2.919  21.524  0.00  0.00    +0.000 A 
ATOM     16  C   UNL     1       3.227   3.249  20.375  0.00  0.00    +0.000 A 
ENDBRANCH  10  11
BRANCH   9  17
ATOM     17  N   UNL     1       4.383   2.150  17.399  0.00  0.00    +0.000 N 
ATOM     18  H   UNL     1       3.634   1.697  17.911  0.00  0.00    +0.000 HD
ATOM     19  H   UNL     1       5.294   1.860  17.716  0.00  0.00    +0.000 HD
ENDBRANCH   9  17
BRANCH   1  20
ATOM     20  N   UNL     1       2.734   6.715  18.634  0.00  0.00    +0.000 N 
BRANCH  20  22
ATOM     21  C   UNL     1       2.218   9.101  17.922  0.00  0.00    +0.000 C 
ATOM     22  C   UNL     1       1.834   7.630  17.912  0.00  0.00    +0.000 C 
ENDBRANCH  20  22
BRANCH  20  23
ATOM     23  C   UNL     1       2.810   6.749  20.089  0.00  0.00    +0.000 C 
ATOM     24  C   UNL     1       1.453   6.880  20.756  0.00  0.00    +0.000 C 
ENDBRANCH  20  23
ENDBRANCH   1  20
TORSDOF 5
ENDMDL
MODEL 3
REMARK VINA RESULT:      -6.6      0.084      1.333
REMARK  Name = 
REMARK  7 active torsions:
REMARK  status: ('A' for Active; 'I' for Inactive)
REMARK    1  A    between atoms: C_1  and  C_2
REMARK    2  A    between atoms: C_2  and  N_3
REMARK    3  A    between atoms: N_3  and  C_4
REMARK    4  A    between atoms: N_3  and  C_6
REMARK    5  A    between atoms: C_4  and  C_5
REMARK    6  A    between atoms: C_14  and  N_15
REMARK    7  A    between atoms: C_16  and  C_17
REMARK                            x       y       z     vdW  Elec       q    Type
REMARK                         _______ _______ _______ _____ _____    ______ ____
ROOT
ATOM      1  C   UNL     1       3.233   6.124  17.909  0.00  0.00    +0.000 A 
ATOM      2  N   UNL     1       4.079   6.584  16.948  0.00  0.00    +0.000 NA
ATOM      3  C   UNL     1       4.895   5.759  16.280  0.00  0.00    +0.000 A 
ATOM      4  C   UNL     1       5.790   6.309  15.362  0.00  0.00    +0.000 A 
ATOM      5  C   UNL     1       6.674   5.526  14.614  0.00  0.00    +0.000 A 
ATOM      6  C   UNL     1       6.671   4.153  14.780  0.00  0.00    +0.000 A 
ATOM      7  C   UNL     1       5.812   3.583  15.718  0.00  0.00    +0.000 A 
ATOM      8  C   UNL     1       4.919   4.375  16.490  0.00  0.00    +0.000 A 
ATOM      9  C   UNL     1       4.071   3.862  17.513  0.00  0.00    +0.000 A 
ATOM     10  C   UNL     1       3.204   4.741  18.274  0.00  0.00    +0.000 A 
ENDROOT
BRANCH  10  11
ATOM     11  C   UNL     1       2.417   4.179  19.432  0.00  0.00    +0.000 A 
ATOM     12  C   UNL     1       2.976   4.041  20.715  0.00  0.00    +0.000 A 
ATOM     13  C   UNL     1       2.337   3.319  21.733  0.00  0.00    +0.000 A 
ATOM     14  C   UNL     1       1.126   2.685  21.483  0.00  0.00    +0.000 A 
ATOM     15  C   UNL     1       0.502   2.876  20.258  0.00  0.00    +0.000 A 
ATOM     16  C   UNL     1       1.110   3.672  19.278  0.00  0.00    +0.000 A 
ENDBRANCH  10  11
BRANCH   9  17
ATOM     17  N   UNL     1       4.309   2.504  17.897  0.00  0.00    +0.000 N 
ATOM     18  H   UNL     1       3.675   1.839  17.468  0.00  0.00    +0.000 HD
ATOM     19  H   UNL     1       4.454   2.317  18.876  0.00  0.00    +0.000 HD
ENDBRANCH   9  17
BRANCH   1  20
ATOM     20  N   UNL     1       2.490   7.127  18.530  0.00  0.00    +0.000 N 
BRANCH  20  22
ATOM     21  C   UNL     1       1.354   7.437  20.783  0.00  0.00    +0.000 C 
ATOM     22  C   UNL     1       2.639   7.269  19.988  0.00  0.00    +0.000 C 
ENDBRANCH  20  22
BRANCH  20  23
ATOM     23  C   UNL     1       1.672   8.071  17.776  0.00  0.00    +0.000 C 
ATOM     24  C   UNL     1       2.138   9.509  17.913  0.00  0.00    +0.000 C 
ENDBRANCH  20  23
ENDBRANCH   1  20
TORSDOF 5
ENDMDL
MODEL 4
REMARK VINA RESULT:      -6.6      2.004      5.027
REMARK  Name = 
REMARK  7 active torsions:
REMARK  status: ('A' for Active; 'I' for Inactive)
REMARK    1  A    between atoms: C_1  and  C_2
REMARK    2  A    between atoms: C_2  and  N_3
REMARK    3  A    between atoms: N_3  and  C_4
REMARK    4  A    between atoms: N_3  and  C_6
REMARK    5  A    between atoms: C_4  and  C_5
REMARK    6  A    between atoms: C_14  and  N_15
REMARK    7  A    between atoms: C_16  and  C_17
REMARK                            x       y       z     vdW  Elec       q    Type
REMARK                         _______ _______ _______ _____ _____    ______ ____
ROOT
ATOM      1  C   UNL     1       4.261   6.488  17.537  0.00  0.00    +0.000 A 
ATOM      2  N   UNL     1       3.875   7.783  17.375  0.00  0.00    +0.000 NA
ATOM      3  C   UNL     1       2.874   8.310  18.089  0.00  0.00    +0.000 A 
ATOM      4  C   UNL     1       2.480   9.620  17.817  0.00  0.00    +0.000 A 
ATOM      5  C   UNL     1       1.450  10.255  18.515  0.00  0.00    +0.000 A 
ATOM      6  C   UNL     1       0.788   9.570  19.520  0.00  0.00    +0.000 A 
ATOM      7  C   UNL     1       1.138   8.248  19.785  0.00  0.00    +0.000 A 
ATOM      8  C   UNL     1       2.176   7.593  19.070  0.00  0.00    +0.000 A 
ATOM      9  C   UNL     1       2.531   6.224  19.243  0.00  0.00    +0.000 A 
ATOM     10  C   UNL     1       3.589   5.621  18.456  0.00  0.00    +0.000 A 
ENDROOT
BRANCH  10  11
ATOM     11  C   UNL     1       3.849   4.140  18.579  0.00  0.00    +0.000 A 
ATOM     12  C   UNL     1       3.312   3.212  17.669  0.00  0.00    +0.000 A 
ATOM     13  C   UNL     1       3.357   1.830  17.900  0.00  0.00    +0.000 A 
ATOM     14  C   UNL     1       3.918   1.338  19.072  0.00  0.00    +0.000 A 
ATOM     15  C   UNL     1       4.539   2.218  19.948  0.00  0.00    +0.000 A 
ATOM     16  C   UNL     1       4.563   3.589  19.662  0.00  0.00    +0.000 A 
ENDBRANCH  10  11
BRANCH   9  17
ATOM     17  N   UNL     1       1.635   5.444  20.042  0.00  0.00    +0.000 N 
ATOM     18  H   UNL     1       0.655   5.652  19.880  0.00  0.00    +0.000 HD
ATOM     19  H   UNL     1       1.850   5.349  21.020  0.00  0.00    +0.000 HD
ENDBRANCH   9  17
BRANCH   1  20
ATOM     20  N   UNL     1       5.290   6.098  16.680  0.00  0.00    +0.000 N 
BRANCH  20  22
ATOM     21  C   UNL     1       7.419   7.232  17.482  0.00  0.00    +0.000 C 
ATOM     22  C   UNL     1       6.632   5.949  17.267  0.00  0.00    +0.000 C 
ENDBRANCH  20  22
BRANCH  20  23
ATOM     23  C   UNL     1       5.052   5.751  15.284  0.00  0.00    +0.000 C 
ATOM     24  C   UNL     1       5.586   4.381  14.908  0.00  0.00    +0.000 C 
ENDBRANCH  20  23
ENDBRANCH   1  20
TORSDOF 5
ENDMDL
MODEL 5
REMARK VINA RESULT:      -6.6      2.397      3.934
REMARK  Name = 
REMARK  7 active torsions:
REMARK  status: ('A' for Active; 'I' for Inactive)
REMARK    1  A    between atoms: C_1  and  C_2
REMARK    2  A    between atoms: C_2  and  N_3
REMARK    3  A    between atoms: N_3  and  C_4
REMARK    4  A    between atoms: N_3  and  C_6
REMARK    5  A    between atoms: C_4  and  C_5
REMARK    6  A    between atoms: C_14  and  N_15
REMARK    7  A    between atoms: C_16  and  C_17
REMARK                            x       y       z     vdW  Elec       q    Type
REMARK                         _______ _______ _______ _____ _____    ______ ____
ROOT
ATOM      1  C   UNL     1       6.564   5.893  16.596  0.00  0.00    +0.000 A 
ATOM      2  N   UNL     1       7.276   5.759  15.444  0.00  0.00    +0.000 NA
ATOM      3  C   UNL     1       6.833   5.006  14.430  0.00  0.00    +0.000 A 
ATOM      4  C   UNL     1       7.651   4.851  13.310  0.00  0.00    +0.000 A 
ATOM      5  C   UNL     1       7.269   4.090  12.202  0.00  0.00    +0.000 A 
ATOM      6  C   UNL     1       6.036   3.462  12.202  0.00  0.00    +0.000 A 
ATOM      7  C   UNL     1       5.217   3.571  13.324  0.00  0.00    +0.000 A 
ATOM      8  C   UNL     1       5.605   4.334  14.459  0.00  0.00    +0.000 A 
ATOM      9  C   UNL     1       4.848   4.424  15.663  0.00  0.00    +0.000 A 
ATOM     10  C   UNL     1       5.324   5.205  16.788  0.00  0.00    +0.000 A 
ENDROOT
BRANCH  10  11
ATOM     11  C   UNL     1       4.557   5.173  18.086  0.00  0.00    +0.000 A 
ATOM     12  C   UNL     1       4.560   4.043  18.924  0.00  0.00    +0.000 A 
ATOM     13  C   UNL     1       3.680   3.917  20.009  0.00  0.00    +0.000 A 
ATOM     14  C   UNL     1       2.746   4.914  20.267  0.00  0.00    +0.000 A 
ATOM     15  C   UNL     1       2.777   6.082  19.518  0.00  0.00    +0.000 A 
ATOM     16  C   UNL     1       3.719   6.231  18.492  0.00  0.00    +0.000 A 
ENDBRANCH  10  11
BRANCH   9  17
ATOM     17  N   UNL     1       3.745   3.519  15.774  0.00  0.00    +0.000 N 
ATOM     18  H   UNL     1       4.016   2.542  15.792  0.00  0.00    +0.000 HD
ATOM     19  H   UNL     1       2.948   3.684  15.182  0.00  0.00    +0.000 HD
ENDBRANCH   9  17
BRANCH   1  20
ATOM     20  N   UNL     1       7.197   6.678  17.559  0.00  0.00    +0.000 N 
BRANCH  20  22
ATOM     21  C   UNL     1       7.595   5.684  19.864  0.00  0.00    +0.000 C 
ATOM     22  C   UNL     1       8.127   5.997  18.475  0.00  0.00    +0.000 C 
ENDBRANCH  20  22
BRANCH  20  23
ATOM     23  C   UNL     1       7.037   8.127  17.612  0.00  0.00    +0.000 C 
ATOM     24  C   UNL     1       8.307   8.855  18.015  0.00  0.00    +0.000 C 
ENDBRANCH  20  23
ENDBRANCH   1  20
TORSDOF 5
ENDMDL
MODEL 6
REMARK VINA RESULT:      -6.5      1.506      5.962
REMARK  Name = 
REMARK  7 active torsions:
REMARK  status: ('A' for Active; 'I' for Inactive)
REMARK    1  A    between atoms: C_1  and  C_2
REMARK    2  A    between atoms: C_2  and  N_3
REMARK    3  A    between atoms: N_3  and  C_4
REMARK    4  A    between atoms: N_3  and  C_6
REMARK    5  A    between atoms: C_4  and  C_5
REMARK    6  A    between atoms: C_14  and  N_15
REMARK    7  A    between atoms: C_16  and  C_17
REMARK                            x       y       z     vdW  Elec       q    Type
REMARK                         _______ _______ _______ _____ _____    ______ ____
ROOT
ATOM      1  C   UNL     1       2.983   4.835  19.442  0.00  0.00    +0.000 A 
ATOM      2  N   UNL     1       2.105   5.484  20.254  0.00  0.00    +0.000 NA
ATOM      3  C   UNL     1       1.801   6.774  20.068  0.00  0.00    +0.000 A 
ATOM      4  C   UNL     1       0.953   7.396  20.985  0.00  0.00    +0.000 A 
ATOM      5  C   UNL     1       0.576   8.737  20.868  0.00  0.00    +0.000 A 
ATOM      6  C   UNL     1       1.054   9.487  19.808  0.00  0.00    +0.000 A 
ATOM      7  C   UNL     1       1.933   8.898  18.901  0.00  0.00    +0.000 A 
ATOM      8  C   UNL     1       2.330   7.539  19.021  0.00  0.00    +0.000 A 
ATOM      9  C   UNL     1       3.279   6.900  18.171  0.00  0.00    +0.000 A 
ATOM     10  C   UNL     1       3.649   5.513  18.373  0.00  0.00    +0.000 A 
ENDROOT
BRANCH  10  11
ATOM     11  C   UNL     1       4.749   4.913  17.534  0.00  0.00    +0.000 A 
ATOM     12  C   UNL     1       6.083   4.867  17.977  0.00  0.00    +0.000 A 
ATOM     13  C   UNL     1       7.141   4.522  17.123  0.00  0.00    +0.000 A 
ATOM     14  C   UNL     1       6.892   4.241  15.785  0.00  0.00    +0.000 A 
ATOM     15  C   UNL     1       5.580   4.188  15.336  0.00  0.00    +0.000 A 
ATOM     16  C   UNL     1       4.526   4.450  16.221  0.00  0.00    +0.000 A 
ENDBRANCH  10  11
BRANCH   9  17
ATOM     17  N   UNL     1       4.005   7.764  17.290  0.00  0.00    +0.000 N 
ATOM     18  H   UNL     1       4.236   7.340  16.398  0.00  0.00    +0.000 HD
ATOM     19  H   UNL     1       4.775   8.282  17.679  0.00  0.00    +0.000 HD
ENDBRANCH   9  17
BRANCH   1  20
ATOM     20  N   UNL     1       3.211   3.509  19.809  0.00  0.00    +0.000 N 
BRANCH  20  22
ATOM     21  C   UNL     1       1.746   2.525  21.639  0.00  0.00    +0.000 C 
ATOM     22  C   UNL     1       3.061   3.171  21.234  0.00  0.00    +0.000 C 
ENDBRANCH  20  22
BRANCH  20  23
ATOM     23  C   UNL     1       3.490   2.465  18.829  0.00  0.00    +0.000 C 
ATOM     24  C   UNL     1       2.285   2.107  17.978  0.00  0.00    +0.000 C 
ENDBRANCH  20  23
ENDBRANCH   1  20
TORSDOF 5
ENDMDL
MODEL 7
REMARK VINA RESULT:      -6.5      2.425      3.761
REMARK  Name = 
REMARK  7 active torsions:
REMARK  status: ('A' for Active; 'I' for Inactive)
REMARK    1  A    between atoms: C_1  and  C_2
REMARK    2  A    between atoms: C_2  and  N_3
REMARK    3  A    between atoms: N_3  and  C_4
REMARK    4  A    between atoms: N_3  and  C_6
REMARK    5  A    between atoms: C_4  and  C_5
REMARK    6  A    between atoms: C_14  and  N_15
REMARK    7  A    between atoms: C_16  and  C_17
REMARK                            x       y       z     vdW  Elec       q    Type
REMARK                         _______ _______ _______ _____ _____    ______ ____
ROOT
ATOM      1  C   UNL     1       6.636   5.761  16.575  0.00  0.00    +0.000 A 
ATOM      2  N   UNL     1       7.331   5.630  15.413  0.00  0.00    +0.000 NA
ATOM      3  C   UNL     1       6.846   4.928  14.382  0.00  0.00    +0.000 A 
ATOM      4  C   UNL     1       7.645   4.771  13.249  0.00  0.00    +0.000 A 
ATOM      5  C   UNL     1       7.220   4.061  12.123  0.00  0.00    +0.000 A 
ATOM      6  C   UNL     1       5.960   3.488  12.117  0.00  0.00    +0.000 A 
ATOM      7  C   UNL     1       5.158   3.599  13.251  0.00  0.00    +0.000 A 
ATOM      8  C   UNL     1       5.590   4.310  14.404  0.00  0.00    +0.000 A 
ATOM      9  C   UNL     1       4.849   4.397  15.618  0.00  0.00    +0.000 A 
ATOM     10  C   UNL     1       5.369   5.123  16.760  0.00  0.00    +0.000 A 
ENDROOT
BRANCH  10  11
ATOM     11  C   UNL     1       4.614   5.085  18.065  0.00  0.00    +0.000 A 
ATOM     12  C   UNL     1       4.604   3.944  18.887  0.00  0.00    +0.000 A 
ATOM     13  C   UNL     1       3.732   3.818  19.978  0.00  0.00    +0.000 A 
ATOM     14  C   UNL     1       2.818   4.826  20.259  0.00  0.00    +0.000 A 
ATOM     15  C   UNL     1       2.862   6.004  19.525  0.00  0.00    +0.000 A 
ATOM     16  C   UNL     1       3.797   6.152  18.493  0.00  0.00    +0.000 A 
ENDBRANCH  10  11
BRANCH   9  17
ATOM     17  N   UNL     1       3.707   3.538  15.714  0.00  0.00    +0.000 N 
ATOM     18  H   UNL     1       3.518   3.012  14.868  0.00  0.00    +0.000 HD
ATOM     19  H   UNL     1       2.871   3.922  16.122  0.00  0.00    +0.000 HD
ENDBRANCH   9  17
BRANCH   1  20
ATOM     20  N   UNL     1       7.312   6.488  17.554  0.00  0.00    +0.000 N 
BRANCH  20  22
ATOM     21  C   UNL     1       8.234   8.820  17.978  0.00  0.00    +0.000 C 
ATOM     22  C   UNL     1       7.052   7.937  17.613  0.00  0.00    +0.000 C 
ENDBRANCH  20  22
BRANCH  20  23
ATOM     23  C   UNL     1       8.167   5.851  18.549  0.00  0.00    +0.000 C 
ATOM     24  C   UNL     1       7.496   5.695  19.902  0.00  0.00    +0.000 C 
ENDBRANCH  20  23
ENDBRANCH   1  20
TORSDOF 5
ENDMDL
MODEL 8
REMARK VINA RESULT:      -6.5      1.618      5.922
REMARK  Name = 
REMARK  7 active torsions:
REMARK  status: ('A' for Active; 'I' for Inactive)
REMARK    1  A    between atoms: C_1  and  C_2
REMARK    2  A    between atoms: C_2  and  N_3
REMARK    3  A    between atoms: N_3  and  C_4
REMARK    4  A    between atoms: N_3  and  C_6
REMARK    5  A    between atoms: C_4  and  C_5
REMARK    6  A    between atoms: C_14  and  N_15
REMARK    7  A    between atoms: C_16  and  C_17
REMARK                            x       y       z     vdW  Elec       q    Type
REMARK                         _______ _______ _______ _____ _____    ______ ____
ROOT
ATOM      1  C   UNL     1       2.668   4.950  19.747  0.00  0.00    +0.000 A 
ATOM      2  N   UNL     1       1.828   5.647  20.559  0.00  0.00    +0.000 NA
ATOM      3  C   UNL     1       1.560   6.941  20.344  0.00  0.00    +0.000 A 
ATOM      4  C   UNL     1       0.751   7.614  21.260  0.00  0.00    +0.000 A 
ATOM      5  C   UNL     1       0.412   8.961  21.114  0.00  0.00    +0.000 A 
ATOM      6  C   UNL     1       0.889   9.667  20.024  0.00  0.00    +0.000 A 
ATOM      7  C   UNL     1       1.729   9.027  19.115  0.00  0.00    +0.000 A 
ATOM      8  C   UNL     1       2.087   7.660  19.265  0.00  0.00    +0.000 A 
ATOM      9  C   UNL     1       2.998   6.970  18.413  0.00  0.00    +0.000 A 
ATOM     10  C   UNL     1       3.331   5.578  18.646  0.00  0.00    +0.000 A 
ENDROOT
BRANCH  10  11
ATOM     11  C   UNL     1       4.393   4.922  17.801  0.00  0.00    +0.000 A 
ATOM     12  C   UNL     1       5.764   5.084  18.070  0.00  0.00    +0.000 A 
ATOM     13  C   UNL     1       6.755   4.670  17.168  0.00  0.00    +0.000 A 
ATOM     14  C   UNL     1       6.395   4.106  15.949  0.00  0.00    +0.000 A 
ATOM     15  C   UNL     1       5.056   3.848  15.691  0.00  0.00    +0.000 A 
ATOM     16  C   UNL     1       4.082   4.187  16.638  0.00  0.00    +0.000 A 
ENDBRANCH  10  11
BRANCH   9  17
ATOM     17  N   UNL     1       3.730   7.786  17.493  0.00  0.00    +0.000 N 
ATOM     18  H   UNL     1       3.547   8.779  17.589  0.00  0.00    +0.000 HD
ATOM     19  H   UNL     1       3.753   7.493  16.530  0.00  0.00    +0.000 HD
ENDBRANCH   9  17
BRANCH   1  20
ATOM     20  N   UNL     1       2.864   3.628  20.146  0.00  0.00    +0.000 N 
BRANCH  20  22
ATOM     21  C   UNL     1       1.001   2.581  18.770  0.00  0.00    +0.000 C 
ATOM     22  C   UNL     1       1.693   2.736  20.114  0.00  0.00    +0.000 C 
ENDBRANCH  20  22
BRANCH  20  23
ATOM     23  C   UNL     1       4.181   3.104  20.489  0.00  0.00    +0.000 C 
ATOM     24  C   UNL     1       4.523   1.819  19.756  0.00  0.00    +0.000 C 
ENDBRANCH  20  23
ENDBRANCH   1  20
TORSDOF 5
ENDMDL
MODEL 9
REMARK VINA RESULT:      -6.5      0.412      1.722
REMARK  Name = 
REMARK  7 active torsions:
REMARK  status: ('A' for Active; 'I' for Inactive)
REMARK    1  A    between atoms: C_1  and  C_2
REMARK    2  A    between atoms: C_2  and  N_3
REMARK    3  A    between atoms: N_3  and  C_4
REMARK    4  A    between atoms: N_3  and  C_6
REMARK    5  A    between atoms: C_4  and  C_5
REMARK    6  A    between atoms: C_14  and  N_15
REMARK    7  A    between atoms: C_16  and  C_17
REMARK                            x       y       z     vdW  Elec       q    Type
REMARK                         _______ _______ _______ _____ _____    ______ ____
ROOT
ATOM      1  C   UNL     1       3.348   5.766  17.822  0.00  0.00    +0.000 A 
ATOM      2  N   UNL     1       4.172   6.321  16.892  0.00  0.00    +0.000 NA
ATOM      3  C   UNL     1       4.987   5.570  16.140  0.00  0.00    +0.000 A 
ATOM      4  C   UNL     1       5.859   6.211  15.261  0.00  0.00    +0.000 A 
ATOM      5  C   UNL     1       6.740   5.509  14.434  0.00  0.00    +0.000 A 
ATOM      6  C   UNL     1       6.757   4.126  14.477  0.00  0.00    +0.000 A 
ATOM      7  C   UNL     1       5.921   3.464  15.375  0.00  0.00    +0.000 A 
ATOM      8  C   UNL     1       5.032   4.173  16.227  0.00  0.00    +0.000 A 
ATOM      9  C   UNL     1       4.207   3.561  17.215  0.00  0.00    +0.000 A 
ATOM     10  C   UNL     1       3.342   4.356  18.064  0.00  0.00    +0.000 A 
ENDROOT
BRANCH  10  11
ATOM     11  C   UNL     1       2.582   3.684  19.180  0.00  0.00    +0.000 A 
ATOM     12  C   UNL     1       1.187   3.513  19.133  0.00  0.00    +0.000 A 
ATOM     13  C   UNL     1       0.448   3.099  20.251  0.00  0.00    +0.000 A 
ATOM     14  C   UNL     1       1.088   2.874  21.464  0.00  0.00    +0.000 A 
ATOM     15  C   UNL     1       2.473   2.945  21.522  0.00  0.00    +0.000 A 
ATOM     16  C   UNL     1       3.207   3.275  20.376  0.00  0.00    +0.000 A 
ENDBRANCH  10  11
BRANCH   9  17
ATOM     17  N   UNL     1       4.469   2.177  17.474  0.00  0.00    +0.000 N 
ATOM     18  H   UNL     1       4.310   1.903  18.437  0.00  0.00    +0.000 HD
ATOM     19  H   UNL     1       5.318   1.788  17.100  0.00  0.00    +0.000 HD
ENDBRANCH   9  17
BRANCH   1  20
ATOM     20  N   UNL     1       2.603   6.701  18.540  0.00  0.00    +0.000 N 
BRANCH  20  22
ATOM     21  C   UNL     1       1.537   6.845  20.844  0.00  0.00    +0.000 C 
ATOM     22  C   UNL     1       2.797   6.736  19.999  0.00  0.00    +0.000 C 
ENDBRANCH  20  22
BRANCH  20  23
ATOM     23  C   UNL     1       1.740   7.678  17.887  0.00  0.00    +0.000 C 
ATOM     24  C   UNL     1       2.256   9.101  17.997  0.00  0.00    +0.000 C 
ENDBRANCH  20  23
ENDBRANCH   1  20
TORSDOF 5
ENDMDL
