MODEL 1
REMARK VINA RESULT:      -7.0      0.000      0.000
REMARK  Name = 
REMARK  13 active torsions:
REMARK  status: ('A' for Active; 'I' for Inactive)
REMARK    1  A    between atoms: C_1  and  C_2
REMARK    2  A    between atoms: C_2  and  C_3
REMARK    3  A    between atoms: C_3  and  N_4
REMARK    4  A    between atoms: N_4  and  C_5
REMARK    5  A    between atoms: N_4  and  C_8
REMARK    6  A    between atoms: C_5  and  C_6
REMARK    7  A    between atoms: C_6  and  C_7
REMARK    8  A    between atoms: C_8  and  C_9
REMARK    9  A    between atoms: C_9  and  C_10
REMARK   10  A    between atoms: C_10  and  O_11
REMARK   11  A    between atoms: O_11  and  C_12
REMARK   12  A    between atoms: C_15  and  C_16
REMARK   13  A    between atoms: C_19  and  C_20
REMARK                            x       y       z     vdW  Elec       q    Type
REMARK                         _______ _______ _______ _____ _____    ______ ____
ROOT
ATOM      1  C   UNL     1       2.490   7.281  18.926  0.00  0.00    +0.000 A 
ATOM      2  C   UNL     1       2.271   8.226  17.912  0.00  0.00    +0.000 A 
ATOM      3  C   UNL     1       1.529   9.369  18.158  0.00  0.00    +0.000 A 
ATOM      4  C   UNL     1       0.972   9.618  19.428  0.00  0.00    +0.000 A 
ATOM      5  C   UNL     1       1.208   8.683  20.454  0.00  0.00    +0.000 A 
ATOM      6  C   UNL     1       1.959   7.523  20.203  0.00  0.00    +0.000 A 
ENDROOT
BRANCH   4   7
ATOM      7  C   UNL     1       0.133  10.833  19.655  0.00  0.00    +0.000 A 
ATOM      8  C   UNL     1       0.304  12.022  18.945  0.00  0.00    +0.000 A 
ATOM      9  S   UNL     1      -0.838  13.119  19.466  0.00  0.00    +0.000 S 
ATOM     10  C   UNL     1      -1.507  12.063  20.586  0.00  0.00    +0.000 A 
ATOM     11  N   UNL     1      -0.877  10.863  20.574  0.00  0.00    +0.000 NA
BRANCH  10  12
ATOM     12  C   UNL     1      -2.606  12.422  21.509  0.00  0.00    +0.000 A 
ATOM     13  C   UNL     1      -2.459  12.181  22.892  0.00  0.00    +0.000 A 
ATOM     14  C   UNL     1      -3.507  12.470  23.769  0.00  0.00    +0.000 A 
ATOM     15  C   UNL     1      -4.701  12.995  23.287  0.00  0.00    +0.000 A 
ATOM     16  C   UNL     1      -4.854  13.252  21.917  0.00  0.00    +0.000 A 
ATOM     17  C   UNL     1      -3.806  12.964  21.031  0.00  0.00    +0.000 A 
ENDBRANCH  10  12
ENDBRANCH   4   7
BRANCH   1  18
ATOM     18  O   UNL     1       3.192   6.141  18.691  0.00  0.00    +0.000 OA
BRANCH  18  19
ATOM     19  C   UNL     1       2.753   4.863  19.005  0.00  0.00    +0.000 C 
BRANCH  19  20
ATOM     20  C   UNL     1       3.869   3.854  18.741  0.00  0.00    +0.000 C 
BRANCH  20  21
ATOM     21  C   UNL     1       5.257   4.532  18.664  0.00  0.00    +0.000 C 
BRANCH  21  22
ATOM     22  N   UNL     1       5.977   4.286  17.380  0.00  0.00    +0.000 NA
BRANCH  22  23
ATOM     23  C   UNL     1       5.090   4.641  16.236  0.00  0.00    +0.000 C 
BRANCH  23  25
ATOM     24  C   UNL     1       6.144   3.921  13.918  0.00  0.00    +0.000 C 
ATOM     25  C   UNL     1       5.795   5.040  14.909  0.00  0.00    +0.000 C 
ENDBRANCH  23  25
ENDBRANCH  22  23
BRANCH  22  26
ATOM     26  C   UNL     1       7.328   4.910  17.328  0.00  0.00    +0.000 C 
BRANCH  26  27
ATOM     27  C   UNL     1       7.572   6.050  18.344  0.00  0.00    +0.000 C 
ATOM     28  C   UNL     1       7.630   7.398  17.619  0.00  0.00    +0.000 C 
ENDBRANCH  26  27
ENDBRANCH  22  26
ENDBRANCH  21  22
ENDBRANCH  20  21
ENDBRANCH  19  20
ENDBRANCH  18  19
ENDBRANCH   1  18
TORSDOF 11
ENDMDL
MODEL 2
REMARK VINA RESULT:      -6.9      1.756      2.344
REMARK  Name = 
REMARK  13 active torsions:
REMARK  status: ('A' for Active; 'I' for Inactive)
REMARK    1  A    between atoms: C_1  and  C_2
REMARK    2  A    between atoms: C_2  and  C_3
REMARK    3  A    between atoms: C_3  and  N_4
REMARK    4  A    between atoms: N_4  and  C_5
REMARK    5  A    between atoms: N_4  and  C_8
REMARK    6  A    between atoms: C_5  and  C_6
REMARK    7  A    between atoms: C_6  and  C_7
REMARK    8  A    between atoms: C_8  and  C_9
REMARK    9  A    between atoms: C_9  and  C_10
REMARK   10  A    between atoms: C_10  and  O_11
REMARK   11  A    between atoms: O_11  and  C_12
REMARK   12  A    between atoms: C_15  and  C_16
REMARK   13  A    between atoms: C_19  and  C_20
REMARK                            x       y       z     vdW  Elec       q    Type
REMARK                         _______ _______ _______ _____ _____    ______ ____
ROOT
ATOM      1  C   UNL     1       2.633   7.112  19.468  0.00  0.00    +0.000 A 
ATOM      2  C   UNL     1       2.535   7.794  18.246  0.00  0.00    +0.000 A 
ATOM      3  C   UNL     1       1.718   8.905  18.120  0.00  0.00    +0.000 A 
ATOM      4  C   UNL     1       0.963   9.383  19.210  0.00  0.00    +0.000 A 
ATOM      5  C   UNL     1       1.076   8.714  20.443  0.00  0.00    +0.000 A 
ATOM      6  C   UNL     1       1.903   7.586  20.570  0.00  0.00    +0.000 A 
ENDROOT
BRANCH   4   7
ATOM      7  C   UNL     1       0.050  10.552  19.034  0.00  0.00    +0.000 A 
ATOM      8  C   UNL     1       0.489  11.876  19.076  0.00  0.00    +0.000 A 
ATOM      9  S   UNL     1      -0.817  12.876  18.809  0.00  0.00    +0.000 S 
ATOM     10  C   UNL     1      -1.904  11.606  18.665  0.00  0.00    +0.000 A 
ATOM     11  N   UNL     1      -1.289  10.408  18.809  0.00  0.00    +0.000 NA
BRANCH  10  12
ATOM     12  C   UNL     1      -3.360  11.780  18.464  0.00  0.00    +0.000 A 
ATOM     13  C   UNL     1      -3.941  11.416  17.231  0.00  0.00    +0.000 A 
ATOM     14  C   UNL     1      -5.305  11.619  17.011  0.00  0.00    +0.000 A 
ATOM     15  C   UNL     1      -6.099  12.182  18.004  0.00  0.00    +0.000 A 
ATOM     16  C   UNL     1      -5.537  12.536  19.239  0.00  0.00    +0.000 A 
ATOM     17  C   UNL     1      -4.168  12.334  19.466  0.00  0.00    +0.000 A 
ENDBRANCH  10  12
ENDBRANCH   4   7
BRANCH   1  18
ATOM     18  O   UNL     1       3.409   6.003  19.600  0.00  0.00    +0.000 OA
BRANCH  18  19
ATOM     19  C   UNL     1       2.947   4.698  19.505  0.00  0.00    +0.000 C 
BRANCH  19  20
ATOM     20  C   UNL     1       3.816   3.913  18.523  0.00  0.00    +0.000 C 
BRANCH  20  21
ATOM     21  C   UNL     1       5.320   4.227  18.701  0.00  0.00    +0.000 C 
BRANCH  21  22
ATOM     22  N   UNL     1       5.964   4.797  17.480  0.00  0.00    +0.000 NA
BRANCH  22  23
ATOM     23  C   UNL     1       5.209   4.363  16.271  0.00  0.00    +0.000 C 
BRANCH  23  25
ATOM     24  C   UNL     1       7.014   4.766  14.378  0.00  0.00    +0.000 C 
ATOM     25  C   UNL     1       5.606   5.036  14.927  0.00  0.00    +0.000 C 
ENDBRANCH  23  25
ENDBRANCH  22  23
BRANCH  22  26
ATOM     26  C   UNL     1       6.199   6.266  17.566  0.00  0.00    +0.000 C 
BRANCH  26  27
ATOM     27  C   UNL     1       7.604   6.686  18.055  0.00  0.00    +0.000 C 
ATOM     28  C   UNL     1       7.908   8.121  17.614  0.00  0.00    +0.000 C 
ENDBRANCH  26  27
ENDBRANCH  22  26
ENDBRANCH  21  22
ENDBRANCH  20  21
ENDBRANCH  19  20
ENDBRANCH  18  19
ENDBRANCH   1  18
TORSDOF 11
ENDMDL
MODEL 3
REMARK VINA RESULT:      -6.9      2.704      3.903
REMARK  Name = 
REMARK  13 active torsions:
REMARK  status: ('A' for Active; 'I' for Inactive)
REMARK    1  A    between atoms: C_1  and  C_2
REMARK    2  A    between atoms: C_2  and  C_3
REMARK    3  A    between atoms: C_3  and  N_4
REMARK    4  A    between atoms: N_4  and  C_5
REMARK    5  A    between atoms: N_4  and  C_8
REMARK    6  A    between atoms: C_5  and  C_6
REMARK    7  A    between atoms: C_6  and  C_7
REMARK    8  A    between atoms: C_8  and  C_9
REMARK    9  A    between atoms: C_9  and  C_10
REMARK   10  A    between atoms: C_10  and  O_11
REMARK   11  A    between atoms: O_11  and  C_12
REMARK   12  A    between atoms: C_15  and  C_16
REMARK   13  A    between atoms: C_19  and  C_20
REMARK                            x       y       z     vdW  Elec       q    Type
REMARK                         _______ _______ _______ _____ _____    ______ ____
ROOT
ATOM      1  C   UNL     1       2.577   6.498  19.139  0.00  0.00    +0.000 A 
ATOM      2  C   UNL     1       2.738   7.268  17.977  0.00  0.00    +0.000 A 
ATOM      3  C   UNL     1       2.251   8.563  17.914  0.00  0.00    +0.000 A 
ATOM      4  C   UNL     1       1.583   9.146  19.010  0.00  0.00    +0.000 A 
ATOM      5  C   UNL     1       1.440   8.384  20.184  0.00  0.00    +0.000 A 
ATOM      6  C   UNL     1       1.931   7.069  20.247  0.00  0.00    +0.000 A 
ENDROOT
BRANCH   4   7
ATOM      7  C   UNL     1       1.023  10.526  18.899  0.00  0.00    +0.000 A 
ATOM      8  C   UNL     1      -0.344  10.800  18.940  0.00  0.00    +0.000 A 
ATOM      9  S   UNL     1      -0.558  12.449  18.816  0.00  0.00    +0.000 S 
ATOM     10  C   UNL     1       1.085  12.768  18.699  0.00  0.00    +0.000 A 
ATOM     11  N   UNL     1       1.817  11.629  18.760  0.00  0.00    +0.000 NA
BRANCH  10  12
ATOM     12  C   UNL     1       1.654  14.118  18.495  0.00  0.00    +0.000 A 
ATOM     13  C   UNL     1       2.976  14.251  18.019  0.00  0.00    +0.000 A 
ATOM     14  C   UNL     1       3.543  15.518  17.867  0.00  0.00    +0.000 A 
ATOM     15  C   UNL     1       2.810  16.657  18.185  0.00  0.00    +0.000 A 
ATOM     16  C   UNL     1       1.491  16.539  18.646  0.00  0.00    +0.000 A 
ATOM     17  C   UNL     1       0.917  15.269  18.800  0.00  0.00    +0.000 A 
ENDBRANCH  10  12
ENDBRANCH   4   7
BRANCH   1  18
ATOM     18  O   UNL     1       3.024   5.215  19.206  0.00  0.00    +0.000 OA
BRANCH  18  19
ATOM     19  C   UNL     1       3.053   4.331  18.138  0.00  0.00    +0.000 C 
BRANCH  19  20
ATOM     20  C   UNL     1       4.497   3.937  17.833  0.00  0.00    +0.000 C 
BRANCH  20  21
ATOM     21  C   UNL     1       5.057   4.690  16.604  0.00  0.00    +0.000 C 
BRANCH  21  22
ATOM     22  N   UNL     1       6.393   4.199  16.155  0.00  0.00    +0.000 NA
BRANCH  22  23
ATOM     23  C   UNL     1       6.626   4.612  14.741  0.00  0.00    +0.000 C 
BRANCH  23  25
ATOM     24  C   UNL     1       6.190   3.374  12.443  0.00  0.00    +0.000 C 
ATOM     25  C   UNL     1       5.620   4.070  13.686  0.00  0.00    +0.000 C 
ENDBRANCH  23  25
ENDBRANCH  22  23
BRANCH  22  26
ATOM     26  C   UNL     1       7.499   4.551  17.089  0.00  0.00    +0.000 C 
BRANCH  26  27
ATOM     27  C   UNL     1       7.421   5.967  17.705  0.00  0.00    +0.000 C 
ATOM     28  C   UNL     1       7.778   5.913  19.194  0.00  0.00    +0.000 C 
ENDBRANCH  26  27
ENDBRANCH  22  26
ENDBRANCH  21  22
ENDBRANCH  20  21
ENDBRANCH  19  20
ENDBRANCH  18  19
ENDBRANCH   1  18
TORSDOF 11
ENDMDL
MODEL 4
REMARK VINA RESULT:      -6.7      2.338      3.517
REMARK  Name = 
REMARK  13 active torsions:
REMARK  status: ('A' for Active; 'I' for Inactive)
REMARK    1  A    between atoms: C_1  and  C_2
REMARK    2  A    between atoms: C_2  and  C_3
REMARK    3  A    between atoms: C_3  and  N_4
REMARK    4  A    between atoms: N_4  and  C_5
REMARK    5  A    between atoms: N_4  and  C_8
REMARK    6  A    between atoms: C_5  and  C_6
REMARK    7  A    between atoms: C_6  and  C_7
REMARK    8  A    between atoms: C_8  and  C_9
REMARK    9  A    between atoms: C_9  and  C_10
REMARK   10  A    between atoms: C_10  and  O_11
REMARK   11  A    between atoms: O_11  and  C_12
REMARK   12  A    between atoms: C_15  and  C_16
REMARK   13  A    between atoms: C_19  and  C_20
REMARK                            x       y       z     vdW  Elec       q    Type
REMARK                         _______ _______ _______ _____ _____    ______ ____
ROOT
ATOM      1  C   UNL     1       2.537   6.846  18.894  0.00  0.00    +0.000 A 
ATOM      2  C   UNL     1       2.484   7.773  17.842  0.00  0.00    +0.000 A 
ATOM      3  C   UNL     1       1.892   9.012  18.021  0.00  0.00    +0.000 A 
ATOM      4  C   UNL     1       1.327   9.380  19.258  0.00  0.00    +0.000 A 
ATOM      5  C   UNL     1       1.398   8.461  20.322  0.00  0.00    +0.000 A 
ATOM      6  C   UNL     1       1.996   7.203  20.140  0.00  0.00    +0.000 A 
ENDROOT
BRANCH   4   7
ATOM      7  C   UNL     1       0.650  10.702  19.411  0.00  0.00    +0.000 A 
ATOM      8  C   UNL     1      -0.630  10.846  19.947  0.00  0.00    +0.000 A 
ATOM      9  S   UNL     1      -1.014  12.468  19.975  0.00  0.00    +0.000 S 
ATOM     10  C   UNL     1       0.444  12.941  19.293  0.00  0.00    +0.000 A 
ATOM     11  N   UNL     1       1.244  11.875  19.043  0.00  0.00    +0.000 NA
BRANCH  10  12
ATOM     12  C   UNL     1       0.786  14.340  18.955  0.00  0.00    +0.000 A 
ATOM     13  C   UNL     1      -0.229  15.320  18.936  0.00  0.00    +0.000 A 
ATOM     14  C   UNL     1       0.071  16.634  18.571  0.00  0.00    +0.000 A 
ATOM     15  C   UNL     1       1.370  16.987  18.224  0.00  0.00    +0.000 A 
ATOM     16  C   UNL     1       2.391  16.026  18.252  0.00  0.00    +0.000 A 
ATOM     17  C   UNL     1       2.096  14.704  18.617  0.00  0.00    +0.000 A 
ENDBRANCH  10  12
ENDBRANCH   4   7
BRANCH   1  18
ATOM     18  O   UNL     1       3.089   5.615  18.726  0.00  0.00    +0.000 OA
BRANCH  18  19
ATOM     19  C   UNL     1       3.951   5.005  19.625  0.00  0.00    +0.000 C 
BRANCH  19  20
ATOM     20  C   UNL     1       4.890   4.058  18.880  0.00  0.00    +0.000 C 
BRANCH  20  21
ATOM     21  C   UNL     1       4.653   4.091  17.352  0.00  0.00    +0.000 C 
BRANCH  21  22
ATOM     22  N   UNL     1       5.815   4.614  16.574  0.00  0.00    +0.000 NA
BRANCH  22  23
ATOM     23  C   UNL     1       6.105   3.698  15.435  0.00  0.00    +0.000 C 
BRANCH  23  25
ATOM     24  C   UNL     1       6.347   3.617  12.801  0.00  0.00    +0.000 C 
ATOM     25  C   UNL     1       5.608   4.154  14.034  0.00  0.00    +0.000 C 
ENDBRANCH  23  25
ENDBRANCH  22  23
BRANCH  22  26
ATOM     26  C   UNL     1       5.675   6.047  16.192  0.00  0.00    +0.000 C 
BRANCH  26  27
ATOM     27  C   UNL     1       5.998   7.067  17.309  0.00  0.00    +0.000 C 
ATOM     28  C   UNL     1       7.515   7.207  17.470  0.00  0.00    +0.000 C 
ENDBRANCH  26  27
ENDBRANCH  22  26
ENDBRANCH  21  22
ENDBRANCH  20  21
ENDBRANCH  19  20
ENDBRANCH  18  19
ENDBRANCH   1  18
TORSDOF 11
ENDMDL
MODEL 5
REMARK VINA RESULT:      -6.7      1.695      2.323
REMARK  Name = 
REMARK  13 active torsions:
REMARK  status: ('A' for Active; 'I' for Inactive)
REMARK    1  A    between atoms: C_1  and  C_2
REMARK    2  A    between atoms: C_2  and  C_3
REMARK    3  A    between atoms: C_3  and  N_4
REMARK    4  A    between atoms: N_4  and  C_5
REMARK    5  A    between atoms: N_4  and  C_8
REMARK    6  A    between atoms: C_5  and  C_6
REMARK    7  A    between atoms: C_6  and  C_7
REMARK    8  A    between atoms: C_8  and  C_9
REMARK    9  A    between atoms: C_9  and  C_10
REMARK   10  A    between atoms: C_10  and  O_11
REMARK   11  A    between atoms: O_11  and  C_12
REMARK   12  A    between atoms: C_15  and  C_16
REMARK   13  A    between atoms: C_19  and  C_20
REMARK                            x       y       z     vdW  Elec       q    Type
REMARK                         _______ _______ _______ _____ _____    ______ ____
ROOT
ATOM      1  C   UNL     1       3.441   5.642  18.435  0.00  0.00    +0.000 A 
ATOM      2  C   UNL     1       3.621   6.698  17.529  0.00  0.00    +0.000 A 
ATOM      3  C   UNL     1       3.050   7.937  17.764  0.00  0.00    +0.000 A 
ATOM      4  C   UNL     1       2.274   8.176  18.916  0.00  0.00    +0.000 A 
ATOM      5  C   UNL     1       2.109   7.125  19.838  0.00  0.00    +0.000 A 
ATOM      6  C   UNL     1       2.687   5.867  19.597  0.00  0.00    +0.000 A 
ENDROOT
BRANCH   4   7
ATOM      7  C   UNL     1       1.626   9.506  19.121  0.00  0.00    +0.000 A 
ATOM      8  C   UNL     1       1.612  10.506  18.149  0.00  0.00    +0.000 A 
ATOM      9  S   UNL     1       0.773  11.816  18.748  0.00  0.00    +0.000 S 
ATOM     10  C   UNL     1       0.465  11.086  20.227  0.00  0.00    +0.000 A 
ATOM     11  N   UNL     1       0.988   9.837  20.282  0.00  0.00    +0.000 NA
BRANCH  10  12
ATOM     12  C   UNL     1      -0.238  11.749  21.347  0.00  0.00    +0.000 A 
ATOM     13  C   UNL     1      -1.117  10.999  22.158  0.00  0.00    +0.000 A 
ATOM     14  C   UNL     1      -1.824  11.622  23.189  0.00  0.00    +0.000 A 
ATOM     15  C   UNL     1      -1.668  12.984  23.423  0.00  0.00    +0.000 A 
ATOM     16  C   UNL     1      -0.787  13.737  22.634  0.00  0.00    +0.000 A 
ATOM     17  C   UNL     1      -0.075  13.117  21.597  0.00  0.00    +0.000 A 
ENDBRANCH  10  12
ENDBRANCH   4   7
BRANCH   1  18
ATOM     18  O   UNL     1       3.972   4.411  18.204  0.00  0.00    +0.000 OA
BRANCH  18  19
ATOM     19  C   UNL     1       4.957   3.816  18.978  0.00  0.00    +0.000 C 
BRANCH  19  20
ATOM     20  C   UNL     1       6.142   4.770  19.127  0.00  0.00    +0.000 C 
BRANCH  20  21
ATOM     21  C   UNL     1       7.228   4.517  18.055  0.00  0.00    +0.000 C 
BRANCH  21  22
ATOM     22  N   UNL     1       7.701   5.758  17.374  0.00  0.00    +0.000 NA
BRANCH  22  23
ATOM     23  C   UNL     1       7.007   5.903  16.063  0.00  0.00    +0.000 C 
BRANCH  23  25
ATOM     24  C   UNL     1       5.328   4.344  14.740  0.00  0.00    +0.000 C 
ATOM     25  C   UNL     1       6.747   4.592  15.268  0.00  0.00    +0.000 C 
ENDBRANCH  23  25
ENDBRANCH  22  23
BRANCH  22  26
ATOM     26  C   UNL     1       7.640   6.969  18.240  0.00  0.00    +0.000 C 
BRANCH  26  27
ATOM     27  C   UNL     1       7.645   8.322  17.491  0.00  0.00    +0.000 C 
ATOM     28  C   UNL     1       8.499   9.341  18.251  0.00  0.00    +0.000 C 
ENDBRANCH  26  27
ENDBRANCH  22  26
ENDBRANCH  21  22
ENDBRANCH  20  21
ENDBRANCH  19  20
ENDBRANCH  18  19
ENDBRANCH   1  18
TORSDOF 11
ENDMDL
MODEL 6
REMARK VINA RESULT:      -6.7      2.376      4.018
REMARK  Name = 
REMARK  13 active torsions:
REMARK  status: ('A' for Active; 'I' for Inactive)
REMARK    1  A    between atoms: C_1  and  C_2
REMARK    2  A    between atoms: C_2  and  C_3
REMARK    3  A    between atoms: C_3  and  N_4
REMARK    4  A    between atoms: N_4  and  C_5
REMARK    5  A    between atoms: N_4  and  C_8
REMARK    6  A    between atoms: C_5  and  C_6
REMARK    7  A    between atoms: C_6  and  C_7
REMARK    8  A    between atoms: C_8  and  C_9
REMARK    9  A    between atoms: C_9  and  C_10
REMARK   10  A    between atoms: C_10  and  O_11
REMARK   11  A    between atoms: O_11  and  C_12
REMARK   12  A    between atoms: C_15  and  C_16
REMARK   13  A    between atoms: C_19  and  C_20
REMARK                            x       y       z     vdW  Elec       q    Type
REMARK                         _______ _______ _______ _____ _____    ______ ____
ROOT
ATOM      1  C   UNL     1       2.270   6.758  18.871  0.00  0.00    +0.000 A 
ATOM      2  C   UNL     1       1.857   7.248  20.119  0.00  0.00    +0.000 A 
ATOM      3  C   UNL     1       1.457   8.565  20.264  0.00  0.00    +0.000 A 
ATOM      4  C   UNL     1       1.451   9.452  19.169  0.00  0.00    +0.000 A 
ATOM      5  C   UNL     1       1.844   8.958  17.911  0.00  0.00    +0.000 A 
ATOM      6  C   UNL     1       2.253   7.622  17.764  0.00  0.00    +0.000 A 
ENDROOT
BRANCH   4   7
ATOM      7  C   UNL     1       1.064  10.881  19.362  0.00  0.00    +0.000 A 
ATOM      8  C   UNL     1      -0.046  11.276  20.109  0.00  0.00    +0.000 A 
ATOM      9  S   UNL     1      -0.119  12.942  20.109  0.00  0.00    +0.000 S 
ATOM     10  C   UNL     1       1.246  13.115  19.151  0.00  0.00    +0.000 A 
ATOM     11  N   UNL     1       1.780  11.912  18.825  0.00  0.00    +0.000 NA
BRANCH  10  12
ATOM     12  C   UNL     1       1.765  14.416  18.674  0.00  0.00    +0.000 A 
ATOM     13  C   UNL     1       0.987  15.581  18.846  0.00  0.00    +0.000 A 
ATOM     14  C   UNL     1       1.443  16.808  18.358  0.00  0.00    +0.000 A 
ATOM     15  C   UNL     1       2.665  16.890  17.701  0.00  0.00    +0.000 A 
ATOM     16  C   UNL     1       3.455  15.743  17.536  0.00  0.00    +0.000 A 
ATOM     17  C   UNL     1       3.002  14.508  18.023  0.00  0.00    +0.000 A 
ENDBRANCH  10  12
ENDBRANCH   4   7
BRANCH   1  18
ATOM     18  O   UNL     1       2.693   5.475  18.718  0.00  0.00    +0.000 OA
BRANCH  18  19
ATOM     19  C   UNL     1       3.011   4.617  19.761  0.00  0.00    +0.000 C 
BRANCH  19  20
ATOM     20  C   UNL     1       4.353   3.941  19.483  0.00  0.00    +0.000 C 
BRANCH  20  21
ATOM     21  C   UNL     1       5.458   4.966  19.136  0.00  0.00    +0.000 C 
BRANCH  21  22
ATOM     22  N   UNL     1       6.103   4.729  17.810  0.00  0.00    +0.000 NA
BRANCH  22  23
ATOM     23  C   UNL     1       5.218   5.244  16.727  0.00  0.00    +0.000 C 
BRANCH  23  25
ATOM     24  C   UNL     1       6.039   3.906  14.597  0.00  0.00    +0.000 C 
ATOM     25  C   UNL     1       5.813   5.256  15.291  0.00  0.00    +0.000 C 
ENDBRANCH  23  25
ENDBRANCH  22  23
BRANCH  22  26
ATOM     26  C   UNL     1       7.509   5.216  17.740  0.00  0.00    +0.000 C 
BRANCH  26  27
ATOM     27  C   UNL     1       7.807   6.504  18.541  0.00  0.00    +0.000 C 
ATOM     28  C   UNL     1       7.744   7.725  17.617  0.00  0.00    +0.000 C 
ENDBRANCH  26  27
ENDBRANCH  22  26
ENDBRANCH  21  22
ENDBRANCH  20  21
ENDBRANCH  19  20
ENDBRANCH  18  19
ENDBRANCH   1  18
TORSDOF 11
ENDMDL
MODEL 7
REMARK VINA RESULT:      -6.7      0.835      2.275
REMARK  Name = 
REMARK  13 active torsions:
REMARK  status: ('A' for Active; 'I' for Inactive)
REMARK    1  A    between atoms: C_1  and  C_2
REMARK    2  A    between atoms: C_2  and  C_3
REMARK    3  A    between atoms: C_3  and  N_4
REMARK    4  A    between atoms: N_4  and  C_5
REMARK    5  A    between atoms: N_4  and  C_8
REMARK    6  A    between atoms: C_5  and  C_6
REMARK    7  A    between atoms: C_6  and  C_7
REMARK    8  A    between atoms: C_8  and  C_9
REMARK    9  A    between atoms: C_9  and  C_10
REMARK   10  A    between atoms: C_10  and  O_11
REMARK   11  A    between atoms: O_11  and  C_12
REMARK   12  A    between atoms: C_15  and  C_16
REMARK   13  A    between atoms: C_19  and  C_20
REMARK                            x       y       z     vdW  Elec       q    Type
REMARK                         _______ _______ _______ _____ _____    ______ ____
ROOT
ATOM      1  C   UNL     1       2.297   7.089  19.211  0.00  0.00    +0.000 A 
ATOM      2  C   UNL     1       1.790   7.327  20.497  0.00  0.00    +0.000 A 
ATOM      3  C   UNL     1       1.147   8.517  20.795  0.00  0.00    +0.000 A 
ATOM      4  C   UNL     1       0.981   9.521  19.820  0.00  0.00    +0.000 A 
ATOM      5  C   UNL     1       1.469   9.276  18.523  0.00  0.00    +0.000 A 
ATOM      6  C   UNL     1       2.123   8.070  18.222  0.00  0.00    +0.000 A 
ENDROOT
BRANCH   4   7
ATOM      7  C   UNL     1       0.329  10.816  20.180  0.00  0.00    +0.000 A 
ATOM      8  C   UNL     1       0.837  12.058  19.798  0.00  0.00    +0.000 A 
ATOM      9  S   UNL     1      -0.186  13.245  20.364  0.00  0.00    +0.000 S 
ATOM     10  C   UNL     1      -1.234  12.155  21.090  0.00  0.00    +0.000 A 
ATOM     11  N   UNL     1      -0.826  10.876  20.906  0.00  0.00    +0.000 NA
BRANCH  10  12
ATOM     12  C   UNL     1      -2.421  12.548  21.882  0.00  0.00    +0.000 A 
ATOM     13  C   UNL     1      -2.551  12.097  23.212  0.00  0.00    +0.000 A 
ATOM     14  C   UNL     1      -3.689  12.420  23.955  0.00  0.00    +0.000 A 
ATOM     15  C   UNL     1      -4.701  13.187  23.389  0.00  0.00    +0.000 A 
ATOM     16  C   UNL     1      -4.578  13.653  22.072  0.00  0.00    +0.000 A 
ATOM     17  C   UNL     1      -3.438  13.332  21.321  0.00  0.00    +0.000 A 
ENDBRANCH  10  12
ENDBRANCH   4   7
BRANCH   1  18
ATOM     18  O   UNL     1       2.956   5.938  18.911  0.00  0.00    +0.000 OA
BRANCH  18  19
ATOM     19  C   UNL     1       2.393   4.852  18.256  0.00  0.00    +0.000 C 
BRANCH  19  20
ATOM     20  C   UNL     1       3.470   4.112  17.465  0.00  0.00    +0.000 C 
BRANCH  20  21
ATOM     21  C   UNL     1       4.874   4.724  17.682  0.00  0.00    +0.000 C 
BRANCH  21  22
ATOM     22  N   UNL     1       5.328   5.598  16.560  0.00  0.00    +0.000 NA
BRANCH  22  23
ATOM     23  C   UNL     1       5.870   6.873  17.110  0.00  0.00    +0.000 C 
BRANCH  23  25
ATOM     24  C   UNL     1       7.934   6.454  18.712  0.00  0.00    +0.000 C 
ATOM     25  C   UNL     1       7.406   6.927  17.351  0.00  0.00    +0.000 C 
ENDBRANCH  23  25
ENDBRANCH  22  23
BRANCH  22  26
ATOM     26  C   UNL     1       6.234   4.907  15.600  0.00  0.00    +0.000 C 
BRANCH  26  27
ATOM     27  C   UNL     1       5.545   4.303  14.354  0.00  0.00    +0.000 C 
ATOM     28  C   UNL     1       6.592   3.963  13.288  0.00  0.00    +0.000 C 
ENDBRANCH  26  27
ENDBRANCH  22  26
ENDBRANCH  21  22
ENDBRANCH  20  21
ENDBRANCH  19  20
ENDBRANCH  18  19
ENDBRANCH   1  18
TORSDOF 11
ENDMDL
MODEL 8
REMARK VINA RESULT:      -6.7      0.709      1.196
REMARK  Name = 
REMARK  13 active torsions:
REMARK  status: ('A' for Active; 'I' for Inactive)
REMARK    1  A    between atoms: C_1  and  C_2
REMARK    2  A    between atoms: C_2  and  C_3
REMARK    3  A    between atoms: C_3  and  N_4
REMARK    4  A    between atoms: N_4  and  C_5
REMARK    5  A    between atoms: N_4  and  C_8
REMARK    6  A    between atoms: C_5  and  C_6
REMARK    7  A    between atoms: C_6  and  C_7
REMARK    8  A    between atoms: C_8  and  C_9
REMARK    9  A    between atoms: C_9  and  C_10
REMARK   10  A    between atoms: C_10  and  O_11
REMARK   11  A    between atoms: O_11  and  C_12
REMARK   12  A    between atoms: C_15  and  C_16
REMARK   13  A    between atoms: C_19  and  C_20
REMARK                            x       y       z     vdW  Elec       q    Type
REMARK                         _______ _______ _______ _____ _____    ______ ____
ROOT
ATOM      1  C   UNL     1       2.588   7.087  18.796  0.00  0.00    +0.000 A 
ATOM      2  C   UNL     1       2.000   7.265  20.057  0.00  0.00    +0.000 A 
ATOM      3  C   UNL     1       1.319   8.431  20.362  0.00  0.00    +0.000 A 
ATOM      4  C   UNL     1       1.195   9.471  19.420  0.00  0.00    +0.000 A 
ATOM      5  C   UNL     1       1.765   9.288  18.146  0.00  0.00    +0.000 A 
ATOM      6  C   UNL     1       2.458   8.105  17.838  0.00  0.00    +0.000 A 
ENDROOT
BRANCH   4   7
ATOM      7  C   UNL     1       0.499  10.740  19.790  0.00  0.00    +0.000 A 
ATOM      8  C   UNL     1       0.971  12.003  19.428  0.00  0.00    +0.000 A 
ATOM      9  S   UNL     1      -0.094  13.150  20.001  0.00  0.00    +0.000 S 
ATOM     10  C   UNL     1      -1.113  12.018  20.704  0.00  0.00    +0.000 A 
ATOM     11  N   UNL     1      -0.663  10.755  20.507  0.00  0.00    +0.000 NA
BRANCH  10  12
ATOM     12  C   UNL     1      -2.318  12.363  21.491  0.00  0.00    +0.000 A 
ATOM     13  C   UNL     1      -2.291  12.241  22.896  0.00  0.00    +0.000 A 
ATOM     14  C   UNL     1      -3.436  12.517  23.647  0.00  0.00    +0.000 A 
ATOM     15  C   UNL     1      -4.609  12.913  23.015  0.00  0.00    +0.000 A 
ATOM     16  C   UNL     1      -4.646  13.051  21.621  0.00  0.00    +0.000 A 
ATOM     17  C   UNL     1      -3.500  12.776  20.861  0.00  0.00    +0.000 A 
ENDBRANCH  10  12
ENDBRANCH   4   7
BRANCH   1  18
ATOM     18  O   UNL     1       3.284   5.959  18.491  0.00  0.00    +0.000 OA
BRANCH  18  19
ATOM     19  C   UNL     1       4.158   5.312  19.353  0.00  0.00    +0.000 C 
BRANCH  19  20
ATOM     20  C   UNL     1       4.899   4.207  18.602  0.00  0.00    +0.000 C 
BRANCH  20  21
ATOM     21  C   UNL     1       6.379   4.576  18.342  0.00  0.00    +0.000 C 
BRANCH  21  22
ATOM     22  N   UNL     1       6.663   4.958  16.927  0.00  0.00    +0.000 NA
BRANCH  22  23
ATOM     23  C   UNL     1       5.524   4.542  16.060  0.00  0.00    +0.000 C 
BRANCH  23  25
ATOM     24  C   UNL     1       7.036   4.745  13.898  0.00  0.00    +0.000 C 
ATOM     25  C   UNL     1       5.885   4.044  14.632  0.00  0.00    +0.000 C 
ENDBRANCH  23  25
ENDBRANCH  22  23
BRANCH  22  26
ATOM     26  C   UNL     1       7.069   6.383  16.768  0.00  0.00    +0.000 C 
BRANCH  26  27
ATOM     27  C   UNL     1       7.752   7.020  18.001  0.00  0.00    +0.000 C 
ATOM     28  C   UNL     1       7.931   8.525  17.784  0.00  0.00    +0.000 C 
ENDBRANCH  26  27
ENDBRANCH  22  26
ENDBRANCH  21  22
ENDBRANCH  20  21
ENDBRANCH  19  20
ENDBRANCH  18  19
ENDBRANCH   1  18
TORSDOF 11
ENDMDL
MODEL 9
REMARK VINA RESULT:      -6.7      0.597      1.150
REMARK  Name = 
REMARK  13 active torsions:
REMARK  status: ('A' for Active; 'I' for Inactive)
REMARK    1  A    between atoms: C_1  and  C_2
REMARK    2  A    between atoms: C_2  and  C_3
REMARK    3  A    between atoms: C_3  and  N_4
REMARK    4  A    between atoms: N_4  and  C_5
REMARK    5  A    between atoms: N_4  and  C_8
REMARK    6  A    between atoms: C_5  and  C_6
REMARK    7  A    between atoms: C_6  and  C_7
REMARK    8  A    between atoms: C_8  and  C_9
REMARK    9  A    between atoms: C_9  and  C_10
REMARK   10  A    between atoms: C_10  and  O_11
REMARK   11  A    between atoms: O_11  and  C_12
REMARK   12  A    between atoms: C_15  and  C_16
REMARK   13  A    between atoms: C_19  and  C_20
REMARK                            x       y       z     vdW  Elec       q    Type
REMARK                         _______ _______ _______ _____ _____    ______ ____
ROOT
ATOM      1  C   UNL     1       2.388   7.073  19.211  0.00  0.00    +0.000 A 
ATOM      2  C   UNL     1       2.183   7.993  18.171  0.00  0.00    +0.000 A 
ATOM      3  C   UNL     1       1.466   9.158  18.388  0.00  0.00    +0.000 A 
ATOM      4  C   UNL     1       0.923   9.455  19.653  0.00  0.00    +0.000 A 
ATOM      5  C   UNL     1       1.145   8.546  20.704  0.00  0.00    +0.000 A 
ATOM      6  C   UNL     1       1.870   7.363  20.483  0.00  0.00    +0.000 A 
ENDROOT
BRANCH   4   7
ATOM      7  C   UNL     1       0.110  10.694  19.849  0.00  0.00    +0.000 A 
ATOM      8  C   UNL     1       0.280  11.847  19.082  0.00  0.00    +0.000 A 
ATOM      9  S   UNL     1      -0.828  12.986  19.584  0.00  0.00    +0.000 S 
ATOM     10  C   UNL     1      -1.481  11.994  20.769  0.00  0.00    +0.000 A 
ATOM     11  N   UNL     1      -0.872  10.783  20.793  0.00  0.00    +0.000 NA
BRANCH  10  12
ATOM     12  C   UNL     1      -2.547  12.412  21.706  0.00  0.00    +0.000 A 
ATOM     13  C   UNL     1      -3.695  13.064  21.208  0.00  0.00    +0.000 A 
ATOM     14  C   UNL     1      -4.686  13.507  22.086  0.00  0.00    +0.000 A 
ATOM     15  C   UNL     1      -4.549  13.311  23.456  0.00  0.00    +0.000 A 
ATOM     16  C   UNL     1      -3.419  12.653  23.962  0.00  0.00    +0.000 A 
ATOM     17  C   UNL     1      -2.420  12.205  23.086  0.00  0.00    +0.000 A 
ENDBRANCH  10  12
ENDBRANCH   4   7
BRANCH   1  18
ATOM     18  O   UNL     1       3.065   5.912  19.007  0.00  0.00    +0.000 OA
BRANCH  18  19
ATOM     19  C   UNL     1       2.657   4.898  18.152  0.00  0.00    +0.000 C 
BRANCH  19  20
ATOM     20  C   UNL     1       3.818   3.940  17.896  0.00  0.00    +0.000 C 
BRANCH  20  21
ATOM     21  C   UNL     1       5.162   4.507  18.410  0.00  0.00    +0.000 C 
BRANCH  21  22
ATOM     22  N   UNL     1       6.095   4.923  17.321  0.00  0.00    +0.000 NA
BRANCH  22  23
ATOM     23  C   UNL     1       5.833   4.106  16.102  0.00  0.00    +0.000 C 
BRANCH  23  25
ATOM     24  C   UNL     1       6.968   4.639  13.772  0.00  0.00    +0.000 C 
ATOM     25  C   UNL     1       5.806   4.869  14.748  0.00  0.00    +0.000 C 
ENDBRANCH  23  25
ENDBRANCH  22  23
BRANCH  22  26
ATOM     26  C   UNL     1       6.113   6.393  17.084  0.00  0.00    +0.000 C 
BRANCH  26  27
ATOM     27  C   UNL     1       7.410   7.119  17.511  0.00  0.00    +0.000 C 
ATOM     28  C   UNL     1       8.019   6.429  18.735  0.00  0.00    +0.000 C 
ENDBRANCH  26  27
ENDBRANCH  22  26
ENDBRANCH  21  22
ENDBRANCH  20  21
ENDBRANCH  19  20
ENDBRANCH  18  19
ENDBRANCH   1  18
TORSDOF 11
ENDMDL
