MODEL 1
REMARK VINA RESULT:      -7.5      0.000      0.000
REMARK  Name = 
REMARK  4 active torsions:
REMARK  status: ('A' for Active; 'I' for Inactive)
REMARK    1  A    between atoms: N_3  and  C_4
REMARK    2  A    between atoms: C_4  and  C_5
REMARK    3  A    between atoms: C_5  and  C_6
REMARK    4  A    between atoms: N_13  and  C_14
REMARK                            x       y       z     vdW  Elec       q    Type
REMARK                         _______ _______ _______ _____ _____    ______ ____
ROOT
ATOM      1  O   UNL     1       8.674   7.729  18.898  0.00  0.00    +0.000 OA
ATOM      2  C   UNL     1       8.157   8.454  18.058  0.00  0.00    +0.000 C 
ATOM      3  N   UNL     1       7.204   7.984  17.175  0.00  0.00    +0.000 N 
ATOM      4  N   UNL     1       8.391   9.799  17.884  0.00  0.00    +0.000 N 
ATOM      5  H   UNL     1       7.245   8.405  16.261  0.00  0.00    +0.000 HD
ATOM      6  H   UNL     1       7.707  10.302  17.342  0.00  0.00    +0.000 HD
ENDROOT
BRANCH   4   7
ATOM      7  C   UNL     1       9.340  10.566  18.598  0.00  0.00    +0.000 A 
ATOM      8  C   UNL     1       9.274  10.762  19.981  0.00  0.00    +0.000 A 
ATOM      9  C   UNL     1      10.242  11.520  20.644  0.00  0.00    +0.000 A 
ATOM     10  C   UNL     1      11.288  12.090  19.929  0.00  0.00    +0.000 A 
ATOM     11  C   UNL     1      11.365  11.904  18.549  0.00  0.00    +0.000 A 
ATOM     12  C   UNL     1      10.398  11.140  17.887  0.00  0.00    +0.000 A 
ENDBRANCH   4   7
BRANCH   3  13
ATOM     13  C   UNL     1       6.848   6.568  17.213  0.00  0.00    +0.000 C 
BRANCH  13  14
ATOM     14  C   UNL     1       5.721   6.207  16.237  0.00  0.00    +0.000 C 
BRANCH  14  15
ATOM     15  C   UNL     1       4.502   5.650  16.931  0.00  0.00    +0.000 A 
ATOM     16  C   UNL     1       3.646   6.503  17.648  0.00  0.00    +0.000 A 
ATOM     17  C   UNL     1       2.500   5.997  18.263  0.00  0.00    +0.000 A 
ATOM     18  C   UNL     1       2.217   4.641  18.166  0.00  0.00    +0.000 A 
ATOM     19  F   UNL     1       1.112   4.155  18.749  0.00  0.00    +0.000 F 
ATOM     20  C   UNL     1       3.057   3.779  17.471  0.00  0.00    +0.000 A 
ATOM     21  C   UNL     1       4.203   4.284  16.855  0.00  0.00    +0.000 A 
ENDBRANCH  14  15
ENDBRANCH  13  14
ENDBRANCH   3  13
TORSDOF 4
ENDMDL
MODEL 2
REMARK VINA RESULT:      -7.5      4.144      7.644
REMARK  Name = 
REMARK  4 active torsions:
REMARK  status: ('A' for Active; 'I' for Inactive)
REMARK    1  A    between atoms: N_3  and  C_4
REMARK    2  A    between atoms: C_4  and  C_5
REMARK    3  A    between atoms: C_5  and  C_6
REMARK    4  A    between atoms: N_13  and  C_14
REMARK                            x       y       z     vdW  Elec       q    Type
REMARK                         _______ _______ _______ _____ _____    ______ ____
ROOT
ATOM      1  O   UNL     1       5.017   5.668  19.772  0.00  0.00    +0.000 OA
ATOM      2  C   UNL     1       5.538   4.647  19.341  0.00  0.00    +0.000 C 
ATOM      3  N   UNL     1       6.886   4.586  19.044  0.00  0.00    +0.000 N 
ATOM      4  N   UNL     1       4.915   3.438  19.131  0.00  0.00    +0.000 N 
ATOM      5  H   UNL     1       7.108   4.001  18.254  0.00  0.00    +0.000 HD
ATOM      6  H   UNL     1       5.521   2.638  19.032  0.00  0.00    +0.000 HD
ENDROOT
BRANCH   4   7
ATOM      7  C   UNL     1       3.535   3.185  19.298  0.00  0.00    +0.000 A 
ATOM      8  C   UNL     1       2.976   2.795  20.519  0.00  0.00    +0.000 A 
ATOM      9  C   UNL     1       1.602   2.568  20.636  0.00  0.00    +0.000 A 
ATOM     10  C   UNL     1       0.774   2.729  19.533  0.00  0.00    +0.000 A 
ATOM     11  C   UNL     1       1.319   3.116  18.309  0.00  0.00    +0.000 A 
ATOM     12  C   UNL     1       2.693   3.350  18.194  0.00  0.00    +0.000 A 
ENDBRANCH   4   7
BRANCH   3  13
ATOM     13  C   UNL     1       7.695   5.792  19.196  0.00  0.00    +0.000 C 
BRANCH  13  14
ATOM     14  C   UNL     1       7.721   6.659  17.931  0.00  0.00    +0.000 C 
BRANCH  14  15
ATOM     15  C   UNL     1       6.988   6.027  16.772  0.00  0.00    +0.000 A 
ATOM     16  C   UNL     1       7.523   4.899  16.129  0.00  0.00    +0.000 A 
ATOM     17  C   UNL     1       6.832   4.293  15.079  0.00  0.00    +0.000 A 
ATOM     18  C   UNL     1       5.613   4.819  14.671  0.00  0.00    +0.000 A 
ATOM     19  F   UNL     1       4.944   4.233  13.669  0.00  0.00    +0.000 F 
ATOM     20  C   UNL     1       5.073   5.941  15.288  0.00  0.00    +0.000 A 
ATOM     21  C   UNL     1       5.762   6.548  16.338  0.00  0.00    +0.000 A 
ENDBRANCH  14  15
ENDBRANCH  13  14
ENDBRANCH   3  13
TORSDOF 4
ENDMDL
MODEL 3
REMARK VINA RESULT:      -7.5      4.165      7.572
REMARK  Name = 
REMARK  4 active torsions:
REMARK  status: ('A' for Active; 'I' for Inactive)
REMARK    1  A    between atoms: N_3  and  C_4
REMARK    2  A    between atoms: C_4  and  C_5
REMARK    3  A    between atoms: C_5  and  C_6
REMARK    4  A    between atoms: N_13  and  C_14
REMARK                            x       y       z     vdW  Elec       q    Type
REMARK                         _______ _______ _______ _____ _____    ______ ____
ROOT
ATOM      1  O   UNL     1       4.968   5.740  19.698  0.00  0.00    +0.000 OA
ATOM      2  C   UNL     1       5.514   4.704  19.339  0.00  0.00    +0.000 C 
ATOM      3  N   UNL     1       6.866   4.649  19.064  0.00  0.00    +0.000 N 
ATOM      4  N   UNL     1       4.914   3.473  19.198  0.00  0.00    +0.000 N 
ATOM      5  H   UNL     1       7.109   4.020  18.315  0.00  0.00    +0.000 HD
ATOM      6  H   UNL     1       5.535   2.680  19.158  0.00  0.00    +0.000 HD
ENDROOT
BRANCH   4   7
ATOM      7  C   UNL     1       3.537   3.207  19.364  0.00  0.00    +0.000 A 
ATOM      8  C   UNL     1       2.974   2.845  20.592  0.00  0.00    +0.000 A 
ATOM      9  C   UNL     1       1.603   2.603  20.707  0.00  0.00    +0.000 A 
ATOM     10  C   UNL     1       0.780   2.720  19.594  0.00  0.00    +0.000 A 
ATOM     11  C   UNL     1       1.328   3.078  18.363  0.00  0.00    +0.000 A 
ATOM     12  C   UNL     1       2.700   3.327  18.250  0.00  0.00    +0.000 A 
ENDBRANCH   4   7
BRANCH   3  13
ATOM     13  C   UNL     1       7.652   5.877  19.149  0.00  0.00    +0.000 C 
BRANCH  13  14
ATOM     14  C   UNL     1       7.628   6.695  17.852  0.00  0.00    +0.000 C 
BRANCH  14  15
ATOM     15  C   UNL     1       6.913   5.988  16.726  0.00  0.00    +0.000 A 
ATOM     16  C   UNL     1       5.720   6.515  16.205  0.00  0.00    +0.000 A 
ATOM     17  C   UNL     1       5.074   5.880  15.142  0.00  0.00    +0.000 A 
ATOM     18  C   UNL     1       5.618   4.719  14.609  0.00  0.00    +0.000 A 
ATOM     19  F   UNL     1       5.004   4.114  13.583  0.00  0.00    +0.000 F 
ATOM     20  C   UNL     1       6.792   4.177  15.118  0.00  0.00    +0.000 A 
ATOM     21  C   UNL     1       7.439   4.810  16.180  0.00  0.00    +0.000 A 
ENDBRANCH  14  15
ENDBRANCH  13  14
ENDBRANCH   3  13
TORSDOF 4
ENDMDL
MODEL 4
REMARK VINA RESULT:      -7.4      4.184      7.737
REMARK  Name = 
REMARK  4 active torsions:
REMARK  status: ('A' for Active; 'I' for Inactive)
REMARK    1  A    between atoms: N_3  and  C_4
REMARK    2  A    between atoms: C_4  and  C_5
REMARK    3  A    between atoms: C_5  and  C_6
REMARK    4  A    between atoms: N_13  and  C_14
REMARK                            x       y       z     vdW  Elec       q    Type
REMARK                         _______ _______ _______ _____ _____    ______ ____
ROOT
ATOM      1  O   UNL     1       5.028   5.610  19.746  0.00  0.00    +0.000 OA
ATOM      2  C   UNL     1       5.562   4.596  19.313  0.00  0.00    +0.000 C 
ATOM      3  N   UNL     1       6.908   4.555  19.008  0.00  0.00    +0.000 N 
ATOM      4  N   UNL     1       4.955   3.378  19.108  0.00  0.00    +0.000 N 
ATOM      5  H   UNL     1       7.135   3.972  18.217  0.00  0.00    +0.000 HD
ATOM      6  H   UNL     1       5.572   2.587  19.006  0.00  0.00    +0.000 HD
ENDROOT
BRANCH   4   7
ATOM      7  C   UNL     1       3.580   3.106  19.284  0.00  0.00    +0.000 A 
ATOM      8  C   UNL     1       2.670   3.070  18.222  0.00  0.00    +0.000 A 
ATOM      9  C   UNL     1       1.321   2.785  18.446  0.00  0.00    +0.000 A 
ATOM     10  C   UNL     1       0.868   2.532  19.735  0.00  0.00    +0.000 A 
ATOM     11  C   UNL     1       1.764   2.566  20.802  0.00  0.00    +0.000 A 
ATOM     12  C   UNL     1       3.116   2.846  20.577  0.00  0.00    +0.000 A 
ENDBRANCH   4   7
BRANCH   3  13
ATOM     13  C   UNL     1       7.700   5.772  19.154  0.00  0.00    +0.000 C 
BRANCH  13  14
ATOM     14  C   UNL     1       7.642   6.677  17.916  0.00  0.00    +0.000 C 
BRANCH  14  15
ATOM     15  C   UNL     1       6.942   6.027  16.747  0.00  0.00    +0.000 A 
ATOM     16  C   UNL     1       7.506   4.901  16.124  0.00  0.00    +0.000 A 
ATOM     17  C   UNL     1       6.845   4.277  15.065  0.00  0.00    +0.000 A 
ATOM     18  C   UNL     1       5.628   4.784  14.627  0.00  0.00    +0.000 A 
ATOM     19  F   UNL     1       4.988   4.181  13.616  0.00  0.00    +0.000 F 
ATOM     20  C   UNL     1       5.060   5.903  15.224  0.00  0.00    +0.000 A 
ATOM     21  C   UNL     1       5.719   6.527  16.284  0.00  0.00    +0.000 A 
ENDBRANCH  14  15
ENDBRANCH  13  14
ENDBRANCH   3  13
TORSDOF 4
ENDMDL
MODEL 5
REMARK VINA RESULT:      -7.3      4.869      6.635
REMARK  Name = 
REMARK  4 active torsions:
REMARK  status: ('A' for Active; 'I' for Inactive)
REMARK    1  A    between atoms: N_3  and  C_4
REMARK    2  A    between atoms: C_4  and  C_5
REMARK    3  A    between atoms: C_5  and  C_6
REMARK    4  A    between atoms: N_13  and  C_14
REMARK                            x       y       z     vdW  Elec       q    Type
REMARK                         _______ _______ _______ _____ _____    ______ ____
ROOT
ATOM      1  O   UNL     1       5.017   6.932  15.303  0.00  0.00    +0.000 OA
ATOM      2  C   UNL     1       5.209   5.931  15.982  0.00  0.00    +0.000 C 
ATOM      3  N   UNL     1       4.867   5.880  17.319  0.00  0.00    +0.000 N 
ATOM      4  N   UNL     1       5.732   4.736  15.544  0.00  0.00    +0.000 N 
ATOM      5  H   UNL     1       5.495   5.333  17.886  0.00  0.00    +0.000 HD
ATOM      6  H   UNL     1       5.581   3.939  16.144  0.00  0.00    +0.000 HD
ENDROOT
BRANCH   4   7
ATOM      7  C   UNL     1       6.219   4.480  14.243  0.00  0.00    +0.000 A 
ATOM      8  C   UNL     1       7.363   5.096  13.724  0.00  0.00    +0.000 A 
ATOM      9  C   UNL     1       7.811   4.801  12.434  0.00  0.00    +0.000 A 
ATOM     10  C   UNL     1       7.119   3.887  11.649  0.00  0.00    +0.000 A 
ATOM     11  C   UNL     1       5.977   3.267  12.153  0.00  0.00    +0.000 A 
ATOM     12  C   UNL     1       5.532   3.558  13.447  0.00  0.00    +0.000 A 
ENDBRANCH   4   7
BRANCH   3  13
ATOM     13  C   UNL     1       4.312   7.075  17.949  0.00  0.00    +0.000 C 
BRANCH  13  14
ATOM     14  C   UNL     1       2.779   7.060  18.017  0.00  0.00    +0.000 C 
BRANCH  14  15
ATOM     15  C   UNL     1       2.237   5.838  18.719  0.00  0.00    +0.000 A 
ATOM     16  C   UNL     1       1.772   4.743  17.972  0.00  0.00    +0.000 A 
ATOM     17  C   UNL     1       1.300   3.599  18.617  0.00  0.00    +0.000 A 
ATOM     18  C   UNL     1       1.288   3.556  20.005  0.00  0.00    +0.000 A 
ATOM     19  F   UNL     1       0.843   2.455  20.627  0.00  0.00    +0.000 F 
ATOM     20  C   UNL     1       1.733   4.634  20.761  0.00  0.00    +0.000 A 
ATOM     21  C   UNL     1       2.206   5.777  20.118  0.00  0.00    +0.000 A 
ENDBRANCH  14  15
ENDBRANCH  13  14
ENDBRANCH   3  13
TORSDOF 4
ENDMDL
MODEL 6
REMARK VINA RESULT:      -7.3      4.859      6.551
REMARK  Name = 
REMARK  4 active torsions:
REMARK  status: ('A' for Active; 'I' for Inactive)
REMARK    1  A    between atoms: N_3  and  C_4
REMARK    2  A    between atoms: C_4  and  C_5
REMARK    3  A    between atoms: C_5  and  C_6
REMARK    4  A    between atoms: N_13  and  C_14
REMARK                            x       y       z     vdW  Elec       q    Type
REMARK                         _______ _______ _______ _____ _____    ______ ____
ROOT
ATOM      1  O   UNL     1       4.984   6.987  15.284  0.00  0.00    +0.000 OA
ATOM      2  C   UNL     1       5.184   6.000  15.981  0.00  0.00    +0.000 C 
ATOM      3  N   UNL     1       4.839   5.970  17.318  0.00  0.00    +0.000 N 
ATOM      4  N   UNL     1       5.719   4.802  15.565  0.00  0.00    +0.000 N 
ATOM      5  H   UNL     1       5.471   5.439  17.895  0.00  0.00    +0.000 HD
ATOM      6  H   UNL     1       5.574   4.015  16.179  0.00  0.00    +0.000 HD
ENDROOT
BRANCH   4   7
ATOM      7  C   UNL     1       6.211   4.528  14.270  0.00  0.00    +0.000 A 
ATOM      8  C   UNL     1       7.361   5.132  13.749  0.00  0.00    +0.000 A 
ATOM      9  C   UNL     1       7.814   4.819  12.466  0.00  0.00    +0.000 A 
ATOM     10  C   UNL     1       7.122   3.899  11.688  0.00  0.00    +0.000 A 
ATOM     11  C   UNL     1       5.974   3.291  12.194  0.00  0.00    +0.000 A 
ATOM     12  C   UNL     1       5.524   3.600  13.482  0.00  0.00    +0.000 A 
ENDBRANCH   4   7
BRANCH   3  13
ATOM     13  C   UNL     1       4.271   7.170  17.925  0.00  0.00    +0.000 C 
BRANCH  13  14
ATOM     14  C   UNL     1       2.741   7.121  18.034  0.00  0.00    +0.000 C 
BRANCH  14  15
ATOM     15  C   UNL     1       2.242   5.870  18.716  0.00  0.00    +0.000 A 
ATOM     16  C   UNL     1       2.181   5.807  20.118  0.00  0.00    +0.000 A 
ATOM     17  C   UNL     1       1.689   4.664  20.750  0.00  0.00    +0.000 A 
ATOM     18  C   UNL     1       1.268   3.587  19.982  0.00  0.00    +0.000 A 
ATOM     19  F   UNL     1       0.787   2.493  20.588  0.00  0.00    +0.000 F 
ATOM     20  C   UNL     1       1.331   3.627  18.594  0.00  0.00    +0.000 A 
ATOM     21  C   UNL     1       1.822   4.768  17.960  0.00  0.00    +0.000 A 
ENDBRANCH  14  15
ENDBRANCH  13  14
ENDBRANCH   3  13
TORSDOF 4
ENDMDL
MODEL 7
REMARK VINA RESULT:      -7.3      1.251      1.980
REMARK  Name = 
REMARK  4 active torsions:
REMARK  status: ('A' for Active; 'I' for Inactive)
REMARK    1  A    between atoms: N_3  and  C_4
REMARK    2  A    between atoms: C_4  and  C_5
REMARK    3  A    between atoms: C_5  and  C_6
REMARK    4  A    between atoms: N_13  and  C_14
REMARK                            x       y       z     vdW  Elec       q    Type
REMARK                         _______ _______ _______ _____ _____    ______ ____
ROOT
ATOM      1  O   UNL     1       8.638   7.694  18.734  0.00  0.00    +0.000 OA
ATOM      2  C   UNL     1       8.091   8.461  17.953  0.00  0.00    +0.000 C 
ATOM      3  N   UNL     1       7.099   8.039  17.090  0.00  0.00    +0.000 N 
ATOM      4  N   UNL     1       8.327   9.812  17.835  0.00  0.00    +0.000 N 
ATOM      5  H   UNL     1       7.104   8.504  16.196  0.00  0.00    +0.000 HD
ATOM      6  H   UNL     1       7.624  10.345  17.347  0.00  0.00    +0.000 HD
ENDROOT
BRANCH   4   7
ATOM      7  C   UNL     1       9.310  10.539  18.544  0.00  0.00    +0.000 A 
ATOM      8  C   UNL     1      10.433  11.100  17.929  0.00  0.00    +0.000 A 
ATOM      9  C   UNL     1      11.372  11.820  18.672  0.00  0.00    +0.000 A 
ATOM     10  C   UNL     1      11.196  11.986  20.040  0.00  0.00    +0.000 A 
ATOM     11  C   UNL     1      10.082  11.429  20.667  0.00  0.00    +0.000 A 
ATOM     12  C   UNL     1       9.139  10.714  19.921  0.00  0.00    +0.000 A 
ENDBRANCH   4   7
BRANCH   3  13
ATOM     13  C   UNL     1       6.735   6.625  17.074  0.00  0.00    +0.000 C 
BRANCH  13  14
ATOM     14  C   UNL     1       5.312   6.378  16.558  0.00  0.00    +0.000 C 
BRANCH  14  15
ATOM     15  C   UNL     1       4.273   6.442  17.652  0.00  0.00    +0.000 A 
ATOM     16  C   UNL     1       4.261   5.477  18.672  0.00  0.00    +0.000 A 
ATOM     17  C   UNL     1       3.322   5.552  19.702  0.00  0.00    +0.000 A 
ATOM     18  C   UNL     1       2.396   6.587  19.706  0.00  0.00    +0.000 A 
ATOM     19  F   UNL     1       1.500   6.666  20.700  0.00  0.00    +0.000 F 
ATOM     20  C   UNL     1       2.386   7.546  18.700  0.00  0.00    +0.000 A 
ATOM     21  C   UNL     1       3.324   7.472  17.669  0.00  0.00    +0.000 A 
ENDBRANCH  14  15
ENDBRANCH  13  14
ENDBRANCH   3  13
TORSDOF 4
ENDMDL
MODEL 8
REMARK VINA RESULT:      -7.2      4.702      7.795
REMARK  Name = 
REMARK  4 active torsions:
REMARK  status: ('A' for Active; 'I' for Inactive)
REMARK    1  A    between atoms: N_3  and  C_4
REMARK    2  A    between atoms: C_4  and  C_5
REMARK    3  A    between atoms: C_5  and  C_6
REMARK    4  A    between atoms: N_13  and  C_14
REMARK                            x       y       z     vdW  Elec       q    Type
REMARK                         _______ _______ _______ _____ _____    ______ ____
ROOT
ATOM      1  O   UNL     1       5.286   5.420  19.617  0.00  0.00    +0.000 OA
ATOM      2  C   UNL     1       5.490   4.354  19.051  0.00  0.00    +0.000 C 
ATOM      3  N   UNL     1       6.631   4.129  18.307  0.00  0.00    +0.000 N 
ATOM      4  N   UNL     1       4.681   3.241  19.092  0.00  0.00    +0.000 N 
ATOM      5  H   UNL     1       6.489   3.543  17.500  0.00  0.00    +0.000 HD
ATOM      6  H   UNL     1       5.106   2.373  18.804  0.00  0.00    +0.000 HD
ENDROOT
BRANCH   4   7
ATOM      7  C   UNL     1       3.424   3.162  19.731  0.00  0.00    +0.000 A 
ATOM      8  C   UNL     1       2.236   3.593  19.130  0.00  0.00    +0.000 A 
ATOM      9  C   UNL     1       1.015   3.484  19.799  0.00  0.00    +0.000 A 
ATOM     10  C   UNL     1       0.968   2.943  21.078  0.00  0.00    +0.000 A 
ATOM     11  C   UNL     1       2.144   2.511  21.689  0.00  0.00    +0.000 A 
ATOM     12  C   UNL     1       3.367   2.615  21.016  0.00  0.00    +0.000 A 
ENDBRANCH   4   7
BRANCH   3  13
ATOM     13  C   UNL     1       7.592   5.217  18.148  0.00  0.00    +0.000 C 
BRANCH  13  14
ATOM     14  C   UNL     1       7.227   6.177  17.008  0.00  0.00    +0.000 C 
BRANCH  14  15
ATOM     15  C   UNL     1       6.687   5.463  15.792  0.00  0.00    +0.000 A 
ATOM     16  C   UNL     1       7.551   5.094  14.747  0.00  0.00    +0.000 A 
ATOM     17  C   UNL     1       7.061   4.406  13.637  0.00  0.00    +0.000 A 
ATOM     18  C   UNL     1       5.709   4.094  13.571  0.00  0.00    +0.000 A 
ATOM     19  F   UNL     1       5.238   3.425  12.509  0.00  0.00    +0.000 F 
ATOM     20  C   UNL     1       4.837   4.460  14.589  0.00  0.00    +0.000 A 
ATOM     21  C   UNL     1       5.325   5.148  15.700  0.00  0.00    +0.000 A 
ENDBRANCH  14  15
ENDBRANCH  13  14
ENDBRANCH   3  13
TORSDOF 4
ENDMDL
MODEL 9
REMARK VINA RESULT:      -7.2      5.117      6.459
REMARK  Name = 
REMARK  4 active torsions:
REMARK  status: ('A' for Active; 'I' for Inactive)
REMARK    1  A    between atoms: N_3  and  C_4
REMARK    2  A    between atoms: C_4  and  C_5
REMARK    3  A    between atoms: C_5  and  C_6
REMARK    4  A    between atoms: N_13  and  C_14
REMARK                            x       y       z     vdW  Elec       q    Type
REMARK                         _______ _______ _______ _____ _____    ______ ____
ROOT
ATOM      1  O   UNL     1       6.309   5.907  16.726  0.00  0.00    +0.000 OA
ATOM      2  C   UNL     1       6.129   4.701  16.838  0.00  0.00    +0.000 C 
ATOM      3  N   UNL     1       5.807   4.120  18.048  0.00  0.00    +0.000 N 
ATOM      4  N   UNL     1       6.173   3.772  15.823  0.00  0.00    +0.000 N 
ATOM      5  H   UNL     1       6.198   3.201  18.182  0.00  0.00    +0.000 HD
ATOM      6  H   UNL     1       5.748   2.880  16.020  0.00  0.00    +0.000 HD
ENDROOT
BRANCH   4   7
ATOM      7  C   UNL     1       6.518   4.040  14.479  0.00  0.00    +0.000 A 
ATOM      8  C   UNL     1       7.529   4.936  14.117  0.00  0.00    +0.000 A 
ATOM      9  C   UNL     1       7.841   5.159  12.774  0.00  0.00    +0.000 A 
ATOM     10  C   UNL     1       7.144   4.487  11.777  0.00  0.00    +0.000 A 
ATOM     11  C   UNL     1       6.132   3.593  12.124  0.00  0.00    +0.000 A 
ATOM     12  C   UNL     1       5.824   3.366  13.470  0.00  0.00    +0.000 A 
ENDBRANCH   4   7
BRANCH   3  13
ATOM     13  C   UNL     1       5.735   4.965  19.237  0.00  0.00    +0.000 C 
BRANCH  13  14
ATOM     14  C   UNL     1       4.363   5.626  19.421  0.00  0.00    +0.000 C 
BRANCH  14  15
ATOM     15  C   UNL     1       3.217   4.667  19.203  0.00  0.00    +0.000 A 
ATOM     16  C   UNL     1       2.357   4.832  18.105  0.00  0.00    +0.000 A 
ATOM     17  C   UNL     1       1.317   3.928  17.883  0.00  0.00    +0.000 A 
ATOM     18  C   UNL     1       1.136   2.868  18.761  0.00  0.00    +0.000 A 
ATOM     19  F   UNL     1       0.143   1.994  18.544  0.00  0.00    +0.000 F 
ATOM     20  C   UNL     1       1.970   2.695  19.859  0.00  0.00    +0.000 A 
ATOM     21  C   UNL     1       3.010   3.596  20.083  0.00  0.00    +0.000 A 
ENDBRANCH  14  15
ENDBRANCH  13  14
ENDBRANCH   3  13
TORSDOF 4
ENDMDL
