MODEL 1
REMARK VINA RESULT:      -8.7      0.000      0.000
REMARK  Name = 
REMARK  3 active torsions:
REMARK  status: ('A' for Active; 'I' for Inactive)
REMARK    1  A    between atoms: O_1  and  C_2
REMARK    2  A    between atoms: C_2  and  C_3
REMARK    3  A    between atoms: C_14  and  C_15
REMARK                            x       y       z     vdW  Elec       q    Type
REMARK                         _______ _______ _______ _____ _____    ______ ____
ROOT
ATOM      1  C   UNL     1       4.087   3.290  18.497  0.00  0.00    +0.000 C 
ATOM      2  C   UNL     1       4.625   4.089  17.320  0.00  0.00    +0.000 A 
ATOM      3  C   UNL     1       5.499   3.631  16.334  0.00  0.00    +0.000 A 
ATOM      4  C   UNL     1       5.880   4.508  15.326  0.00  0.00    +0.000 A 
ATOM      5  C   UNL     1       5.392   5.817  15.319  0.00  0.00    +0.000 A 
ATOM      6  C   UNL     1       4.519   6.269  16.319  0.00  0.00    +0.000 A 
ATOM      7  C   UNL     1       4.118   5.414  17.337  0.00  0.00    +0.000 A 
ATOM      8  C   UNL     1       3.228   5.580  18.493  0.00  0.00    +0.000 A 
ATOM      9  C   UNL     1       2.467   6.635  19.012  0.00  0.00    +0.000 A 
ATOM     10  C   UNL     1       1.693   6.379  20.180  0.00  0.00    +0.000 A 
ATOM     11  C   UNL     1       1.686   5.144  20.832  0.00  0.00    +0.000 A 
ATOM     12  C   UNL     1       2.458   4.107  20.339  0.00  0.00    +0.000 A 
ATOM     13  C   UNL     1       3.198   4.326  19.179  0.00  0.00    +0.000 A 
ENDROOT
BRANCH   1  14
ATOM     14  C   UNL     1       3.341   1.976  18.089  0.00  0.00    +0.000 C 
ATOM     15  F   UNL     1       2.469   2.235  17.075  0.00  0.00    +0.000 F 
ATOM     16  F   UNL     1       4.161   0.993  17.653  0.00  0.00    +0.000 F 
ATOM     17  F   UNL     1       2.598   1.449  19.091  0.00  0.00    +0.000 F 
ENDBRANCH   1  14
BRANCH   9  18
ATOM     18  C   UNL     1       2.346   8.049  18.500  0.00  0.00    +0.000 C 
ATOM     19  F   UNL     1       3.474   8.660  18.073  0.00  0.00    +0.000 F 
ATOM     20  F   UNL     1       1.477   8.130  17.450  0.00  0.00    +0.000 F 
ATOM     21  F   UNL     1       1.833   8.886  19.451  0.00  0.00    +0.000 F 
ENDBRANCH   9  18
BRANCH   1  22
ATOM     22  O   UNL     1       5.197   3.061  19.390  0.00  0.00    +0.000 OA
ATOM     23  H   UNL     1       6.005   3.089  18.849  0.00  0.00    +0.000 HD
ENDBRANCH   1  22
TORSDOF 3
ENDMDL
MODEL 2
REMARK VINA RESULT:      -8.5      0.068      1.137
REMARK  Name = 
REMARK  3 active torsions:
REMARK  status: ('A' for Active; 'I' for Inactive)
REMARK    1  A    between atoms: O_1  and  C_2
REMARK    2  A    between atoms: C_2  and  C_3
REMARK    3  A    between atoms: C_14  and  C_15
REMARK                            x       y       z     vdW  Elec       q    Type
REMARK                         _______ _______ _______ _____ _____    ______ ____
ROOT
ATOM      1  C   UNL     1       4.104   3.270  18.503  0.00  0.00    +0.000 C 
ATOM      2  C   UNL     1       4.636   4.064  17.319  0.00  0.00    +0.000 A 
ATOM      3  C   UNL     1       5.506   3.601  16.332  0.00  0.00    +0.000 A 
ATOM      4  C   UNL     1       5.881   4.473  15.317  0.00  0.00    +0.000 A 
ATOM      5  C   UNL     1       5.391   5.781  15.305  0.00  0.00    +0.000 A 
ATOM      6  C   UNL     1       4.523   6.238  16.307  0.00  0.00    +0.000 A 
ATOM      7  C   UNL     1       4.128   5.388  17.331  0.00  0.00    +0.000 A 
ATOM      8  C   UNL     1       3.243   5.559  18.491  0.00  0.00    +0.000 A 
ATOM      9  C   UNL     1       2.484   6.617  19.008  0.00  0.00    +0.000 A 
ATOM     10  C   UNL     1       1.715   6.366  20.181  0.00  0.00    +0.000 A 
ATOM     11  C   UNL     1       1.712   5.135  20.839  0.00  0.00    +0.000 A 
ATOM     12  C   UNL     1       2.484   4.096  20.348  0.00  0.00    +0.000 A 
ATOM     13  C   UNL     1       3.218   4.309  19.184  0.00  0.00    +0.000 A 
ENDROOT
BRANCH   1  14
ATOM     14  C   UNL     1       3.358   1.954  18.106  0.00  0.00    +0.000 C 
ATOM     15  F   UNL     1       2.692   1.455  19.185  0.00  0.00    +0.000 F 
ATOM     16  F   UNL     1       2.439   2.119  17.127  0.00  0.00    +0.000 F 
ATOM     17  F   UNL     1       4.191   0.968  17.696  0.00  0.00    +0.000 F 
ENDBRANCH   1  14
BRANCH   9  18
ATOM     18  C   UNL     1       2.359   8.028  18.488  0.00  0.00    +0.000 C 
ATOM     19  F   UNL     1       1.538   8.237  17.435  0.00  0.00    +0.000 F 
ATOM     20  F   UNL     1       1.920   8.883  19.459  0.00  0.00    +0.000 F 
ATOM     21  F   UNL     1       3.568   8.528  18.094  0.00  0.00    +0.000 F 
ENDBRANCH   9  18
BRANCH   1  22
ATOM     22  O   UNL     1       5.219   3.047  19.392  0.00  0.00    +0.000 OA
ATOM     23  H   UNL     1       5.192   2.109  19.649  0.00  0.00    +0.000 HD
ENDBRANCH   1  22
TORSDOF 3
ENDMDL
MODEL 3
REMARK VINA RESULT:      -7.3      2.443      4.229
REMARK  Name = 
REMARK  3 active torsions:
REMARK  status: ('A' for Active; 'I' for Inactive)
REMARK    1  A    between atoms: O_1  and  C_2
REMARK    2  A    between atoms: C_2  and  C_3
REMARK    3  A    between atoms: C_14  and  C_15
REMARK                            x       y       z     vdW  Elec       q    Type
REMARK                         _______ _______ _______ _____ _____    ______ ____
ROOT
ATOM      1  C   UNL     1       3.885   5.162  18.198  0.00  0.00    +0.000 C 
ATOM      2  C   UNL     1       3.359   4.432  19.426  0.00  0.00    +0.000 A 
ATOM      3  C   UNL     1       3.642   3.118  19.796  0.00  0.00    +0.000 A 
ATOM      4  C   UNL     1       3.072   2.620  20.961  0.00  0.00    +0.000 A 
ATOM      5  C   UNL     1       2.233   3.430  21.729  0.00  0.00    +0.000 A 
ATOM      6  C   UNL     1       1.949   4.748  21.343  0.00  0.00    +0.000 A 
ATOM      7  C   UNL     1       2.506   5.274  20.185  0.00  0.00    +0.000 A 
ATOM      8  C   UNL     1       2.415   6.588  19.536  0.00  0.00    +0.000 A 
ATOM      9  C   UNL     1       1.740   7.783  19.813  0.00  0.00    +0.000 A 
ATOM     10  C   UNL     1       1.935   8.875  18.918  0.00  0.00    +0.000 A 
ATOM     11  C   UNL     1       2.738   8.790  17.779  0.00  0.00    +0.000 A 
ATOM     12  C   UNL     1       3.384   7.602  17.486  0.00  0.00    +0.000 A 
ATOM     13  C   UNL     1       3.233   6.531  18.365  0.00  0.00    +0.000 A 
ENDROOT
BRANCH   1  14
ATOM     14  C   UNL     1       5.446   5.204  18.101  0.00  0.00    +0.000 C 
ATOM     15  F   UNL     1       5.914   4.009  17.642  0.00  0.00    +0.000 F 
ATOM     16  F   UNL     1       5.917   6.153  17.260  0.00  0.00    +0.000 F 
ATOM     17  F   UNL     1       6.051   5.405  19.296  0.00  0.00    +0.000 F 
ENDBRANCH   1  14
BRANCH   9  18
ATOM     18  C   UNL     1       0.805   8.093  20.956  0.00  0.00    +0.000 C 
ATOM     19  F   UNL     1      -0.135   7.172  21.264  0.00  0.00    +0.000 F 
ATOM     20  F   UNL     1       1.488   8.310  22.119  0.00  0.00    +0.000 F 
ATOM     21  F   UNL     1       0.105   9.246  20.735  0.00  0.00    +0.000 F 
ENDBRANCH   9  18
BRANCH   1  22
ATOM     22  O   UNL     1       3.258   4.554  17.049  0.00  0.00    +0.000 OA
ATOM     23  H   UNL     1       2.328   4.842  17.051  0.00  0.00    +0.000 HD
ENDBRANCH   1  22
TORSDOF 3
ENDMDL
MODEL 4
REMARK VINA RESULT:      -7.3      2.424      4.203
REMARK  Name = 
REMARK  3 active torsions:
REMARK  status: ('A' for Active; 'I' for Inactive)
REMARK    1  A    between atoms: O_1  and  C_2
REMARK    2  A    between atoms: C_2  and  C_3
REMARK    3  A    between atoms: C_14  and  C_15
REMARK                            x       y       z     vdW  Elec       q    Type
REMARK                         _______ _______ _______ _____ _____    ______ ____
ROOT
ATOM      1  C   UNL     1       3.807   5.140  18.155  0.00  0.00    +0.000 C 
ATOM      2  C   UNL     1       3.310   4.424  19.403  0.00  0.00    +0.000 A 
ATOM      3  C   UNL     1       3.587   3.107  19.771  0.00  0.00    +0.000 A 
ATOM      4  C   UNL     1       3.048   2.623  20.956  0.00  0.00    +0.000 A 
ATOM      5  C   UNL     1       2.245   3.449  21.746  0.00  0.00    +0.000 A 
ATOM      6  C   UNL     1       1.967   4.769  21.362  0.00  0.00    +0.000 A 
ATOM      7  C   UNL     1       2.495   5.282  20.185  0.00  0.00    +0.000 A 
ATOM      8  C   UNL     1       2.401   6.594  19.532  0.00  0.00    +0.000 A 
ATOM      9  C   UNL     1       1.752   7.800  19.824  0.00  0.00    +0.000 A 
ATOM     10  C   UNL     1       1.933   8.884  18.918  0.00  0.00    +0.000 A 
ATOM     11  C   UNL     1       2.698   8.783  17.754  0.00  0.00    +0.000 A 
ATOM     12  C   UNL     1       3.317   7.583  17.447  0.00  0.00    +0.000 A 
ATOM     13  C   UNL     1       3.179   6.520  18.335  0.00  0.00    +0.000 A 
ENDROOT
BRANCH   1  14
ATOM     14  C   UNL     1       5.364   5.160  18.007  0.00  0.00    +0.000 C 
ATOM     15  F   UNL     1       5.938   5.497  19.196  0.00  0.00    +0.000 F 
ATOM     16  F   UNL     1       5.895   3.969  17.645  0.00  0.00    +0.000 F 
ATOM     17  F   UNL     1       5.805   6.073  17.110  0.00  0.00    +0.000 F 
ENDBRANCH   1  14
BRANCH   9  18
ATOM     18  C   UNL     1       0.859   8.128  20.995  0.00  0.00    +0.000 C 
ATOM     19  F   UNL     1       1.446   8.314  22.198  0.00  0.00    +0.000 F 
ATOM     20  F   UNL     1       0.135   9.264  20.772  0.00  0.00    +0.000 F 
ATOM     21  F   UNL     1      -0.072   7.150  21.208  0.00  0.00    +0.000 F 
ENDBRANCH   9  18
BRANCH   1  22
ATOM     22  O   UNL     1       3.134   4.536  17.030  0.00  0.00    +0.000 OA
ATOM     23  H   UNL     1       2.384   5.114  16.807  0.00  0.00    +0.000 HD
ENDBRANCH   1  22
TORSDOF 3
ENDMDL
MODEL 5
REMARK VINA RESULT:      -7.2      2.276      4.547
REMARK  Name = 
REMARK  3 active torsions:
REMARK  status: ('A' for Active; 'I' for Inactive)
REMARK    1  A    between atoms: O_1  and  C_2
REMARK    2  A    between atoms: C_2  and  C_3
REMARK    3  A    between atoms: C_14  and  C_15
REMARK                            x       y       z     vdW  Elec       q    Type
REMARK                         _______ _______ _______ _____ _____    ______ ____
ROOT
ATOM      1  C   UNL     1       1.727   3.925  20.135  0.00  0.00    +0.000 C 
ATOM      2  C   UNL     1       1.728   5.446  20.179  0.00  0.00    +0.000 A 
ATOM      3  C   UNL     1       1.000   6.253  21.054  0.00  0.00    +0.000 A 
ATOM      4  C   UNL     1       1.132   7.632  20.950  0.00  0.00    +0.000 A 
ATOM      5  C   UNL     1       1.977   8.180  19.982  0.00  0.00    +0.000 A 
ATOM      6  C   UNL     1       2.698   7.360  19.103  0.00  0.00    +0.000 A 
ATOM      7  C   UNL     1       2.589   5.979  19.185  0.00  0.00    +0.000 A 
ATOM      8  C   UNL     1       3.207   4.878  18.436  0.00  0.00    +0.000 A 
ATOM      9  C   UNL     1       4.112   4.793  17.370  0.00  0.00    +0.000 A 
ATOM     10  C   UNL     1       4.494   3.492  16.931  0.00  0.00    +0.000 A 
ATOM     11  C   UNL     1       3.988   2.319  17.495  0.00  0.00    +0.000 A 
ATOM     12  C   UNL     1       3.072   2.400  18.529  0.00  0.00    +0.000 A 
ATOM     13  C   UNL     1       2.709   3.661  18.996  0.00  0.00    +0.000 A 
ENDROOT
BRANCH   1  14
ATOM     14  C   UNL     1       2.120   3.247  21.489  0.00  0.00    +0.000 C 
ATOM     15  F   UNL     1       2.523   4.194  22.381  0.00  0.00    +0.000 F 
ATOM     16  F   UNL     1       1.107   2.568  22.075  0.00  0.00    +0.000 F 
ATOM     17  F   UNL     1       3.154   2.381  21.373  0.00  0.00    +0.000 F 
ENDBRANCH   1  14
BRANCH   9  18
ATOM     18  C   UNL     1       4.759   5.912  16.593  0.00  0.00    +0.000 C 
ATOM     19  F   UNL     1       4.028   7.027  16.375  0.00  0.00    +0.000 F 
ATOM     20  F   UNL     1       5.904   6.347  17.198  0.00  0.00    +0.000 F 
ATOM     21  F   UNL     1       5.150   5.501  15.349  0.00  0.00    +0.000 F 
ENDBRANCH   9  18
BRANCH   1  22
ATOM     22  O   UNL     1       0.430   3.521  19.649  0.00  0.00    +0.000 OA
ATOM     23  H   UNL     1       0.318   3.926  18.771  0.00  0.00    +0.000 HD
ENDBRANCH   1  22
TORSDOF 3
ENDMDL
MODEL 6
REMARK VINA RESULT:      -7.2      2.323      4.108
REMARK  Name = 
REMARK  3 active torsions:
REMARK  status: ('A' for Active; 'I' for Inactive)
REMARK    1  A    between atoms: O_1  and  C_2
REMARK    2  A    between atoms: C_2  and  C_3
REMARK    3  A    between atoms: C_14  and  C_15
REMARK                            x       y       z     vdW  Elec       q    Type
REMARK                         _______ _______ _______ _____ _____    ______ ____
ROOT
ATOM      1  C   UNL     1       5.133   5.182  17.741  0.00  0.00    +0.000 C 
ATOM      2  C   UNL     1       4.103   6.298  17.833  0.00  0.00    +0.000 A 
ATOM      3  C   UNL     1       4.190   7.560  17.245  0.00  0.00    +0.000 A 
ATOM      4  C   UNL     1       3.143   8.453  17.434  0.00  0.00    +0.000 A 
ATOM      5  C   UNL     1       2.038   8.080  18.202  0.00  0.00    +0.000 A 
ATOM      6  C   UNL     1       1.964   6.811  18.795  0.00  0.00    +0.000 A 
ATOM      7  C   UNL     1       2.994   5.896  18.621  0.00  0.00    +0.000 A 
ATOM      8  C   UNL     1       3.202   4.520  19.089  0.00  0.00    +0.000 A 
ATOM      9  C   UNL     1       2.473   3.624  19.881  0.00  0.00    +0.000 A 
ATOM     10  C   UNL     1       3.027   2.328  20.092  0.00  0.00    +0.000 A 
ATOM     11  C   UNL     1       4.262   1.935  19.572  0.00  0.00    +0.000 A 
ATOM     12  C   UNL     1       4.999   2.828  18.814  0.00  0.00    +0.000 A 
ATOM     13  C   UNL     1       4.461   4.089  18.567  0.00  0.00    +0.000 A 
ENDROOT
BRANCH   1  14
ATOM     14  C   UNL     1       5.483   4.755  16.277  0.00  0.00    +0.000 C 
ATOM     15  F   UNL     1       4.462   4.020  15.754  0.00  0.00    +0.000 F 
ATOM     16  F   UNL     1       5.682   5.795  15.435  0.00  0.00    +0.000 F 
ATOM     17  F   UNL     1       6.584   3.971  16.197  0.00  0.00    +0.000 F 
ENDBRANCH   1  14
BRANCH   9  18
ATOM     18  C   UNL     1       1.146   3.837  20.566  0.00  0.00    +0.000 C 
ATOM     19  F   UNL     1       0.819   5.100  20.919  0.00  0.00    +0.000 F 
ATOM     20  F   UNL     1       0.107   3.401  19.794  0.00  0.00    +0.000 F 
ATOM     21  F   UNL     1       1.055   3.116  21.723  0.00  0.00    +0.000 F 
ENDBRANCH   9  18
BRANCH   1  22
ATOM     22  O   UNL     1       6.283   5.611  18.500  0.00  0.00    +0.000 OA
ATOM     23  H   UNL     1       6.743   6.279  17.962  0.00  0.00    +0.000 HD
ENDBRANCH   1  22
TORSDOF 3
ENDMDL
MODEL 7
REMARK VINA RESULT:      -7.2      2.355      4.217
REMARK  Name = 
REMARK  3 active torsions:
REMARK  status: ('A' for Active; 'I' for Inactive)
REMARK    1  A    between atoms: O_1  and  C_2
REMARK    2  A    between atoms: C_2  and  C_3
REMARK    3  A    between atoms: C_14  and  C_15
REMARK                            x       y       z     vdW  Elec       q    Type
REMARK                         _______ _______ _______ _____ _____    ______ ____
ROOT
ATOM      1  C   UNL     1       4.972   4.651  17.280  0.00  0.00    +0.000 C 
ATOM      2  C   UNL     1       4.099   5.855  17.600  0.00  0.00    +0.000 A 
ATOM      3  C   UNL     1       4.334   7.176  17.220  0.00  0.00    +0.000 A 
ATOM      4  C   UNL     1       3.417   8.148  17.601  0.00  0.00    +0.000 A 
ATOM      5  C   UNL     1       2.295   7.793  18.352  0.00  0.00    +0.000 A 
ATOM      6  C   UNL     1       2.072   6.462  18.735  0.00  0.00    +0.000 A 
ATOM      7  C   UNL     1       2.969   5.468  18.366  0.00  0.00    +0.000 A 
ATOM      8  C   UNL     1       3.009   4.018  18.595  0.00  0.00    +0.000 A 
ATOM      9  C   UNL     1       2.192   3.101  19.267  0.00  0.00    +0.000 A 
ATOM     10  C   UNL     1       2.577   1.729  19.239  0.00  0.00    +0.000 A 
ATOM     11  C   UNL     1       3.736   1.278  18.603  0.00  0.00    +0.000 A 
ATOM     12  C   UNL     1       4.561   2.186  17.964  0.00  0.00    +0.000 A 
ATOM     13  C   UNL     1       4.186   3.527  17.950  0.00  0.00    +0.000 A 
ENDROOT
BRANCH   1  14
ATOM     14  C   UNL     1       5.223   4.432  15.751  0.00  0.00    +0.000 C 
ATOM     15  F   UNL     1       6.217   3.518  15.571  0.00  0.00    +0.000 F 
ATOM     16  F   UNL     1       4.144   3.969  15.080  0.00  0.00    +0.000 F 
ATOM     17  F   UNL     1       5.630   5.554  15.110  0.00  0.00    +0.000 F 
ENDBRANCH   1  14
BRANCH   9  18
ATOM     18  C   UNL     1       0.923   3.360  20.040  0.00  0.00    +0.000 C 
ATOM     19  F   UNL     1       0.689   4.625  20.454  0.00  0.00    +0.000 F 
ATOM     20  F   UNL     1      -0.184   3.009  19.321  0.00  0.00    +0.000 F 
ATOM     21  F   UNL     1       0.862   2.604  21.176  0.00  0.00    +0.000 F 
ENDBRANCH   9  18
BRANCH   1  22
ATOM     22  O   UNL     1       6.189   4.801  18.042  0.00  0.00    +0.000 OA
ATOM     23  H   UNL     1       5.976   5.368  18.804  0.00  0.00    +0.000 HD
ENDBRANCH   1  22
TORSDOF 3
ENDMDL
MODEL 8
REMARK VINA RESULT:      -7.1      2.120      4.292
REMARK  Name = 
REMARK  3 active torsions:
REMARK  status: ('A' for Active; 'I' for Inactive)
REMARK    1  A    between atoms: O_1  and  C_2
REMARK    2  A    between atoms: C_2  and  C_3
REMARK    3  A    between atoms: C_14  and  C_15
REMARK                            x       y       z     vdW  Elec       q    Type
REMARK                         _______ _______ _______ _____ _____    ______ ____
ROOT
ATOM      1  C   UNL     1       2.013   3.861  19.769  0.00  0.00    +0.000 C 
ATOM      2  C   UNL     1       1.897   5.366  19.959  0.00  0.00    +0.000 A 
ATOM      3  C   UNL     1       1.104   6.027  20.897  0.00  0.00    +0.000 A 
ATOM      4  C   UNL     1       1.132   7.416  20.927  0.00  0.00    +0.000 A 
ATOM      5  C   UNL     1       1.937   8.117  20.027  0.00  0.00    +0.000 A 
ATOM      6  C   UNL     1       2.724   7.443  19.083  0.00  0.00    +0.000 A 
ATOM      7  C   UNL     1       2.720   6.056  19.031  0.00  0.00    +0.000 A 
ATOM      8  C   UNL     1       3.425   5.081  18.189  0.00  0.00    +0.000 A 
ATOM      9  C   UNL     1       4.340   5.168  17.131  0.00  0.00    +0.000 A 
ATOM     10  C   UNL     1       4.823   3.948  16.575  0.00  0.00    +0.000 A 
ATOM     11  C   UNL     1       4.405   2.692  17.018  0.00  0.00    +0.000 A 
ATOM     12  C   UNL     1       3.479   2.603  18.043  0.00  0.00    +0.000 A 
ATOM     13  C   UNL     1       3.018   3.782  18.623  0.00  0.00    +0.000 A 
ENDROOT
BRANCH   1  14
ATOM     14  C   UNL     1       2.448   3.087  21.057  0.00  0.00    +0.000 C 
ATOM     15  F   UNL     1       1.564   2.083  21.316  0.00  0.00    +0.000 F 
ATOM     16  F   UNL     1       3.670   2.512  20.964  0.00  0.00    +0.000 F 
ATOM     17  F   UNL     1       2.465   3.862  22.167  0.00  0.00    +0.000 F 
ENDBRANCH   1  14
BRANCH   9  18
ATOM     18  C   UNL     1       4.904   6.402  16.473  0.00  0.00    +0.000 C 
ATOM     19  F   UNL     1       5.886   7.066  17.123  0.00  0.00    +0.000 F 
ATOM     20  F   UNL     1       5.418   6.124  15.239  0.00  0.00    +0.000 F 
ATOM     21  F   UNL     1       3.936   7.341  16.250  0.00  0.00    +0.000 F 
ENDBRANCH   9  18
BRANCH   1  22
ATOM     22  O   UNL     1       0.753   3.409  19.231  0.00  0.00    +0.000 OA
ATOM     23  H   UNL     1       0.339   2.849  19.912  0.00  0.00    +0.000 HD
ENDBRANCH   1  22
TORSDOF 3
ENDMDL
