MODEL 1
REMARK VINA RESULT:      -7.0      0.000      0.000
REMARK  Name = 
REMARK  4 active torsions:
REMARK  status: ('A' for Active; 'I' for Inactive)
REMARK    1  A    between atoms: C_2  and  C_3
REMARK    2  A    between atoms: N_5  and  C_6
REMARK    3  A    between atoms: N_9  and  C_10
REMARK    4  A    between atoms: C_10  and  C_11
REMARK                            x       y       z     vdW  Elec       q    Type
REMARK                         _______ _______ _______ _____ _____    ______ ____
ROOT
ATOM      1  C   UNL     1       6.026   5.936  16.926  0.00  0.00    +0.000 A 
ATOM      2  C   UNL     1       6.453   4.766  16.264  0.00  0.00    +0.000 A 
ATOM      3  N   UNL     1       5.562   3.777  16.357  0.00  0.00    +0.000 NA
ATOM      4  N   UNL     1       4.564   4.312  17.091  0.00  0.00    +0.000 N 
ATOM      5  C   UNL     1       4.838   5.583  17.526  0.00  0.00    +0.000 A 
ENDROOT
BRANCH   1   8
ATOM      6  C   UNL     1       7.597   7.544  17.832  0.00  0.00    +0.000 C 
ATOM      7  O   UNL     1       8.122   6.808  18.668  0.00  0.00    +0.000 OA
ATOM      8  N   UNL     1       6.574   7.203  16.978  0.00  0.00    +0.000 N 
ATOM      9  H   UNL     1       6.284   7.850  16.258  0.00  0.00    +0.000 HD
BRANCH   6  11
ATOM     10  C   UNL     1       8.761   9.555  18.601  0.00  0.00    +0.000 C 
ATOM     11  C   UNL     1       8.059   8.941  17.639  0.00  0.00    +0.000 C 
ENDBRANCH   6  11
ENDBRANCH   1   8
BRANCH   4  12
ATOM     12  C   UNL     1       3.288   3.609  17.172  0.00  0.00    +0.000 C 
BRANCH  12  13
ATOM     13  C   UNL     1       2.744   3.526  18.575  0.00  0.00    +0.000 A 
ATOM     14  C   UNL     1       1.498   4.097  18.882  0.00  0.00    +0.000 A 
ATOM     15  C   UNL     1       0.958   3.981  20.164  0.00  0.00    +0.000 A 
ATOM     16  C   UNL     1       1.649   3.280  21.152  0.00  0.00    +0.000 A 
ATOM     17  C   UNL     1       2.886   2.709  20.862  0.00  0.00    +0.000 A 
ATOM     18  C   UNL     1       3.432   2.834  19.584  0.00  0.00    +0.000 A 
ENDBRANCH  12  13
ENDBRANCH   4  12
TORSDOF 4
ENDMDL
MODEL 2
REMARK VINA RESULT:      -7.0      2.584      3.759
REMARK  Name = 
REMARK  4 active torsions:
REMARK  status: ('A' for Active; 'I' for Inactive)
REMARK    1  A    between atoms: C_2  and  C_3
REMARK    2  A    between atoms: N_5  and  C_6
REMARK    3  A    between atoms: N_9  and  C_10
REMARK    4  A    between atoms: C_10  and  C_11
REMARK                            x       y       z     vdW  Elec       q    Type
REMARK                         _______ _______ _______ _____ _____    ______ ____
ROOT
ATOM      1  C   UNL     1       6.976   5.361  16.730  0.00  0.00    +0.000 A 
ATOM      2  C   UNL     1       7.559   4.669  17.812  0.00  0.00    +0.000 A 
ATOM      3  N   UNL     1       6.804   4.720  18.912  0.00  0.00    +0.000 NA
ATOM      4  N   UNL     1       5.738   5.457  18.536  0.00  0.00    +0.000 N 
ATOM      5  C   UNL     1       5.839   5.934  17.255  0.00  0.00    +0.000 A 
ENDROOT
BRANCH   1   8
ATOM      6  C   UNL     1       6.913   4.592  14.432  0.00  0.00    +0.000 C 
ATOM      7  O   UNL     1       6.182   3.617  14.604  0.00  0.00    +0.000 OA
ATOM      8  N   UNL     1       7.352   5.460  15.405  0.00  0.00    +0.000 N 
ATOM      9  H   UNL     1       7.867   6.290  15.143  0.00  0.00    +0.000 HD
BRANCH   6  11
ATOM     10  C   UNL     1       7.109   4.182  12.027  0.00  0.00    +0.000 C 
ATOM     11  C   UNL     1       7.399   4.959  13.079  0.00  0.00    +0.000 C 
ENDBRANCH   6  11
ENDBRANCH   1   8
BRANCH   4  12
ATOM     12  C   UNL     1       4.565   5.500  19.403  0.00  0.00    +0.000 C 
BRANCH  12  13
ATOM     13  C   UNL     1       3.506   4.499  19.018  0.00  0.00    +0.000 A 
ATOM     14  C   UNL     1       3.564   3.187  19.516  0.00  0.00    +0.000 A 
ATOM     15  C   UNL     1       2.561   2.265  19.211  0.00  0.00    +0.000 A 
ATOM     16  C   UNL     1       1.480   2.647  18.417  0.00  0.00    +0.000 A 
ATOM     17  C   UNL     1       1.409   3.944  17.916  0.00  0.00    +0.000 A 
ATOM     18  C   UNL     1       2.417   4.864  18.211  0.00  0.00    +0.000 A 
ENDBRANCH  12  13
ENDBRANCH   4  12
TORSDOF 4
ENDMDL
MODEL 3
REMARK VINA RESULT:      -7.0      2.647      3.620
REMARK  Name = 
REMARK  4 active torsions:
REMARK  status: ('A' for Active; 'I' for Inactive)
REMARK    1  A    between atoms: C_2  and  C_3
REMARK    2  A    between atoms: N_5  and  C_6
REMARK    3  A    between atoms: N_9  and  C_10
REMARK    4  A    between atoms: C_10  and  C_11
REMARK                            x       y       z     vdW  Elec       q    Type
REMARK                         _______ _______ _______ _____ _____    ______ ____
ROOT
ATOM      1  C   UNL     1       6.977   5.346  16.714  0.00  0.00    +0.000 A 
ATOM      2  C   UNL     1       7.609   4.707  17.801  0.00  0.00    +0.000 A 
ATOM      3  N   UNL     1       6.866   4.737  18.909  0.00  0.00    +0.000 NA
ATOM      4  N   UNL     1       5.757   5.409  18.534  0.00  0.00    +0.000 N 
ATOM      5  C   UNL     1       5.817   5.867  17.243  0.00  0.00    +0.000 A 
ENDROOT
BRANCH   1   8
ATOM      6  C   UNL     1       6.879   4.568  14.421  0.00  0.00    +0.000 C 
ATOM      7  O   UNL     1       6.153   3.592  14.608  0.00  0.00    +0.000 OA
ATOM      8  N   UNL     1       7.332   5.440  15.383  0.00  0.00    +0.000 N 
ATOM      9  H   UNL     1       7.840   6.271  15.109  0.00  0.00    +0.000 HD
BRANCH   6  11
ATOM     10  C   UNL     1       7.087   4.119  12.023  0.00  0.00    +0.000 C 
ATOM     11  C   UNL     1       7.342   4.931  13.058  0.00  0.00    +0.000 C 
ENDBRANCH   6  11
ENDBRANCH   1   8
BRANCH   4  12
ATOM     12  C   UNL     1       4.594   5.404  19.415  0.00  0.00    +0.000 C 
BRANCH  12  13
ATOM     13  C   UNL     1       3.574   4.358  19.046  0.00  0.00    +0.000 A 
ATOM     14  C   UNL     1       2.353   4.739  18.466  0.00  0.00    +0.000 A 
ATOM     15  C   UNL     1       1.422   3.777  18.071  0.00  0.00    +0.000 A 
ATOM     16  C   UNL     1       1.706   2.421  18.238  0.00  0.00    +0.000 A 
ATOM     17  C   UNL     1       2.912   2.028  18.812  0.00  0.00    +0.000 A 
ATOM     18  C   UNL     1       3.839   2.990  19.218  0.00  0.00    +0.000 A 
ENDBRANCH  12  13
ENDBRANCH   4  12
TORSDOF 4
ENDMDL
MODEL 4
REMARK VINA RESULT:      -6.9      2.601      3.937
REMARK  Name = 
REMARK  4 active torsions:
REMARK  status: ('A' for Active; 'I' for Inactive)
REMARK    1  A    between atoms: C_2  and  C_3
REMARK    2  A    between atoms: N_5  and  C_6
REMARK    3  A    between atoms: N_9  and  C_10
REMARK    4  A    between atoms: C_10  and  C_11
REMARK                            x       y       z     vdW  Elec       q    Type
REMARK                         _______ _______ _______ _____ _____    ______ ____
ROOT
ATOM      1  C   UNL     1       6.073   4.388  16.279  0.00  0.00    +0.000 A 
ATOM      2  C   UNL     1       7.140   4.392  17.202  0.00  0.00    +0.000 A 
ATOM      3  N   UNL     1       6.770   4.844  18.402  0.00  0.00    +0.000 NA
ATOM      4  N   UNL     1       5.463   5.140  18.244  0.00  0.00    +0.000 N 
ATOM      5  C   UNL     1       5.022   4.960  16.959  0.00  0.00    +0.000 A 
ENDROOT
BRANCH   1   8
ATOM      6  C   UNL     1       6.689   4.439  13.936  0.00  0.00    +0.000 C 
ATOM      7  O   UNL     1       7.432   5.419  13.981  0.00  0.00    +0.000 OA
ATOM      8  N   UNL     1       5.988   3.901  14.989  0.00  0.00    +0.000 N 
ATOM      9  H   UNL     1       5.485   3.032  14.867  0.00  0.00    +0.000 HD
BRANCH   6  11
ATOM     10  C   UNL     1       5.244   3.407  12.250  0.00  0.00    +0.000 C 
ATOM     11  C   UNL     1       6.484   3.688  12.672  0.00  0.00    +0.000 C 
ENDBRANCH   6  11
ENDBRANCH   1   8
BRANCH   4  12
ATOM     12  C   UNL     1       4.650   5.410  19.426  0.00  0.00    +0.000 C 
BRANCH  12  13
ATOM     13  C   UNL     1       3.462   4.492  19.552  0.00  0.00    +0.000 A 
ATOM     14  C   UNL     1       3.629   3.104  19.420  0.00  0.00    +0.000 A 
ATOM     15  C   UNL     1       2.547   2.238  19.587  0.00  0.00    +0.000 A 
ATOM     16  C   UNL     1       1.287   2.748  19.903  0.00  0.00    +0.000 A 
ATOM     17  C   UNL     1       1.107   4.122  20.037  0.00  0.00    +0.000 A 
ATOM     18  C   UNL     1       2.186   4.990  19.859  0.00  0.00    +0.000 A 
ENDBRANCH  12  13
ENDBRANCH   4  12
TORSDOF 4
ENDMDL
MODEL 5
REMARK VINA RESULT:      -6.9      2.621      3.765
REMARK  Name = 
REMARK  4 active torsions:
REMARK  status: ('A' for Active; 'I' for Inactive)
REMARK    1  A    between atoms: C_2  and  C_3
REMARK    2  A    between atoms: N_5  and  C_6
REMARK    3  A    between atoms: N_9  and  C_10
REMARK    4  A    between atoms: C_10  and  C_11
REMARK                            x       y       z     vdW  Elec       q    Type
REMARK                         _______ _______ _______ _____ _____    ______ ____
ROOT
ATOM      1  C   UNL     1       6.136   4.355  16.281  0.00  0.00    +0.000 A 
ATOM      2  C   UNL     1       7.175   4.341  17.235  0.00  0.00    +0.000 A 
ATOM      3  N   UNL     1       6.767   4.754  18.436  0.00  0.00    +0.000 NA
ATOM      4  N   UNL     1       5.462   5.045  18.249  0.00  0.00    +0.000 N 
ATOM      5  C   UNL     1       5.060   4.899  16.946  0.00  0.00    +0.000 A 
ENDROOT
BRANCH   1   8
ATOM      6  C   UNL     1       6.813   4.487  13.958  0.00  0.00    +0.000 C 
ATOM      7  O   UNL     1       7.539   5.477  14.053  0.00  0.00    +0.000 OA
ATOM      8  N   UNL     1       6.094   3.907  14.976  0.00  0.00    +0.000 N 
ATOM      9  H   UNL     1       5.609   3.034  14.814  0.00  0.00    +0.000 HD
BRANCH   6  11
ATOM     10  C   UNL     1       5.442   3.369  12.266  0.00  0.00    +0.000 C 
ATOM     11  C   UNL     1       6.655   3.771  12.667  0.00  0.00    +0.000 C 
ENDBRANCH   6  11
ENDBRANCH   1   8
BRANCH   4  12
ATOM     12  C   UNL     1       4.612   5.273  19.413  0.00  0.00    +0.000 C 
BRANCH  12  13
ATOM     13  C   UNL     1       3.455   4.312  19.501  0.00  0.00    +0.000 A 
ATOM     14  C   UNL     1       2.162   4.791  19.767  0.00  0.00    +0.000 A 
ATOM     15  C   UNL     1       1.072   3.919  19.798  0.00  0.00    +0.000 A 
ATOM     16  C   UNL     1       1.260   2.559  19.551  0.00  0.00    +0.000 A 
ATOM     17  C   UNL     1       2.537   2.070  19.287  0.00  0.00    +0.000 A 
ATOM     18  C   UNL     1       3.629   2.939  19.266  0.00  0.00    +0.000 A 
ENDBRANCH  12  13
ENDBRANCH   4  12
TORSDOF 4
ENDMDL
MODEL 6
REMARK VINA RESULT:      -6.9      2.431      3.870
REMARK  Name = 
REMARK  4 active torsions:
REMARK  status: ('A' for Active; 'I' for Inactive)
REMARK    1  A    between atoms: C_2  and  C_3
REMARK    2  A    between atoms: N_5  and  C_6
REMARK    3  A    between atoms: N_9  and  C_10
REMARK    4  A    between atoms: C_10  and  C_11
REMARK                            x       y       z     vdW  Elec       q    Type
REMARK                         _______ _______ _______ _____ _____    ______ ____
ROOT
ATOM      1  C   UNL     1       5.183   5.201  15.715  0.00  0.00    +0.000 A 
ATOM      2  C   UNL     1       5.156   6.537  16.167  0.00  0.00    +0.000 A 
ATOM      3  N   UNL     1       4.923   6.624  17.478  0.00  0.00    +0.000 NA
ATOM      4  N   UNL     1       4.789   5.338  17.866  0.00  0.00    +0.000 N 
ATOM      5  C   UNL     1       4.856   4.452  16.823  0.00  0.00    +0.000 A 
ENDROOT
BRANCH   1   8
ATOM      6  C   UNL     1       6.765   4.717  13.944  0.00  0.00    +0.000 C 
ATOM      7  O   UNL     1       7.747   5.265  14.444  0.00  0.00    +0.000 OA
ATOM      8  N   UNL     1       5.501   4.664  14.483  0.00  0.00    +0.000 N 
ATOM      9  H   UNL     1       4.788   4.100  14.039  0.00  0.00    +0.000 HD
BRANCH   6  11
ATOM     10  C   UNL     1       5.867   3.198  12.246  0.00  0.00    +0.000 C 
ATOM     11  C   UNL     1       6.863   4.001  12.647  0.00  0.00    +0.000 C 
ENDBRANCH   6  11
ENDBRANCH   1   8
BRANCH   4  12
ATOM     12  C   UNL     1       4.793   5.024  19.292  0.00  0.00    +0.000 C 
BRANCH  12  13
ATOM     13  C   UNL     1       3.496   4.424  19.771  0.00  0.00    +0.000 A 
ATOM     14  C   UNL     1       3.415   3.048  20.039  0.00  0.00    +0.000 A 
ATOM     15  C   UNL     1       2.236   2.488  20.534  0.00  0.00    +0.000 A 
ATOM     16  C   UNL     1       1.128   3.299  20.781  0.00  0.00    +0.000 A 
ATOM     17  C   UNL     1       1.194   4.666  20.520  0.00  0.00    +0.000 A 
ATOM     18  C   UNL     1       2.369   5.225  20.014  0.00  0.00    +0.000 A 
ENDBRANCH  12  13
ENDBRANCH   4  12
TORSDOF 4
ENDMDL
MODEL 7
REMARK VINA RESULT:      -6.9      0.176      1.177
REMARK  Name = 
REMARK  4 active torsions:
REMARK  status: ('A' for Active; 'I' for Inactive)
REMARK    1  A    between atoms: C_2  and  C_3
REMARK    2  A    between atoms: N_5  and  C_6
REMARK    3  A    between atoms: N_9  and  C_10
REMARK    4  A    between atoms: C_10  and  C_11
REMARK                            x       y       z     vdW  Elec       q    Type
REMARK                         _______ _______ _______ _____ _____    ______ ____
ROOT
ATOM      1  C   UNL     1       5.986   5.995  17.057  0.00  0.00    +0.000 A 
ATOM      2  C   UNL     1       6.430   4.768  16.520  0.00  0.00    +0.000 A 
ATOM      3  N   UNL     1       5.503   3.812  16.607  0.00  0.00    +0.000 NA
ATOM      4  N   UNL     1       4.464   4.426  17.212  0.00  0.00    +0.000 N 
ATOM      5  C   UNL     1       4.741   5.718  17.576  0.00  0.00    +0.000 A 
ENDROOT
BRANCH   1   8
ATOM      6  C   UNL     1       7.599   7.591  17.908  0.00  0.00    +0.000 C 
ATOM      7  O   UNL     1       8.103   6.872  18.771  0.00  0.00    +0.000 OA
ATOM      8  N   UNL     1       6.568   7.247  17.065  0.00  0.00    +0.000 N 
ATOM      9  H   UNL     1       6.296   7.876  16.322  0.00  0.00    +0.000 HD
BRANCH   6  11
ATOM     10  C   UNL     1       8.743   9.629  18.637  0.00  0.00    +0.000 C 
ATOM     11  C   UNL     1       8.099   8.968  17.666  0.00  0.00    +0.000 C 
ENDBRANCH   6  11
ENDBRANCH   1   8
BRANCH   4  12
ATOM     12  C   UNL     1       3.164   3.763  17.234  0.00  0.00    +0.000 C 
BRANCH  12  13
ATOM     13  C   UNL     1       2.638   3.533  18.627  0.00  0.00    +0.000 A 
ATOM     14  C   UNL     1       3.468   2.965  19.607  0.00  0.00    +0.000 A 
ATOM     15  C   UNL     1       3.012   2.795  20.915  0.00  0.00    +0.000 A 
ATOM     16  C   UNL     1       1.724   3.203  21.264  0.00  0.00    +0.000 A 
ATOM     17  C   UNL     1       0.889   3.767  20.302  0.00  0.00    +0.000 A 
ATOM     18  C   UNL     1       1.341   3.928  18.991  0.00  0.00    +0.000 A 
ENDBRANCH  12  13
ENDBRANCH   4  12
TORSDOF 4
ENDMDL
MODEL 8
REMARK VINA RESULT:      -6.9      2.480      3.767
REMARK  Name = 
REMARK  4 active torsions:
REMARK  status: ('A' for Active; 'I' for Inactive)
REMARK    1  A    between atoms: C_2  and  C_3
REMARK    2  A    between atoms: N_5  and  C_6
REMARK    3  A    between atoms: N_9  and  C_10
REMARK    4  A    between atoms: C_10  and  C_11
REMARK                            x       y       z     vdW  Elec       q    Type
REMARK                         _______ _______ _______ _____ _____    ______ ____
ROOT
ATOM      1  C   UNL     1       5.195   5.048  15.666  0.00  0.00    +0.000 A 
ATOM      2  C   UNL     1       5.141   6.375  16.142  0.00  0.00    +0.000 A 
ATOM      3  N   UNL     1       4.921   6.433  17.456  0.00  0.00    +0.000 NA
ATOM      4  N   UNL     1       4.823   5.138  17.824  0.00  0.00    +0.000 N 
ATOM      5  C   UNL     1       4.898   4.272  16.764  0.00  0.00    +0.000 A 
ENDROOT
BRANCH   1   8
ATOM      6  C   UNL     1       6.760   4.660  13.857  0.00  0.00    +0.000 C 
ATOM      7  O   UNL     1       7.725   5.249  14.343  0.00  0.00    +0.000 OA
ATOM      8  N   UNL     1       5.512   4.540  14.422  0.00  0.00    +0.000 N 
ATOM      9  H   UNL     1       4.818   3.947  13.987  0.00  0.00    +0.000 HD
BRANCH   6  11
ATOM     10  C   UNL     1       5.868   3.172  12.129  0.00  0.00    +0.000 C 
ATOM     11  C   UNL     1       6.864   3.963  12.550  0.00  0.00    +0.000 C 
ENDBRANCH   6  11
ENDBRANCH   1   8
BRANCH   4  12
ATOM     12  C   UNL     1       4.850   4.800  19.243  0.00  0.00    +0.000 C 
BRANCH  12  13
ATOM     13  C   UNL     1       3.532   4.279  19.755  0.00  0.00    +0.000 A 
ATOM     14  C   UNL     1       2.535   5.176  20.171  0.00  0.00    +0.000 A 
ATOM     15  C   UNL     1       1.290   4.709  20.597  0.00  0.00    +0.000 A 
ATOM     16  C   UNL     1       1.021   3.341  20.598  0.00  0.00    +0.000 A 
ATOM     17  C   UNL     1       2.000   2.439  20.189  0.00  0.00    +0.000 A 
ATOM     18  C   UNL     1       3.249   2.904  19.773  0.00  0.00    +0.000 A 
ENDBRANCH  12  13
ENDBRANCH   4  12
TORSDOF 4
ENDMDL
MODEL 9
REMARK VINA RESULT:      -6.9      2.576      3.598
REMARK  Name = 
REMARK  4 active torsions:
REMARK  status: ('A' for Active; 'I' for Inactive)
REMARK    1  A    between atoms: C_2  and  C_3
REMARK    2  A    between atoms: N_5  and  C_6
REMARK    3  A    between atoms: N_9  and  C_10
REMARK    4  A    between atoms: C_10  and  C_11
REMARK                            x       y       z     vdW  Elec       q    Type
REMARK                         _______ _______ _______ _____ _____    ______ ____
ROOT
ATOM      1  C   UNL     1       5.931   5.889  16.549  0.00  0.00    +0.000 A 
ATOM      2  C   UNL     1       6.197   5.330  17.817  0.00  0.00    +0.000 A 
ATOM      3  N   UNL     1       5.226   5.584  18.696  0.00  0.00    +0.000 NA
ATOM      4  N   UNL     1       4.339   6.318  17.992  0.00  0.00    +0.000 N 
ATOM      5  C   UNL     1       4.762   6.597  16.718  0.00  0.00    +0.000 A 
ENDROOT
BRANCH   1   8
ATOM      6  C   UNL     1       6.568   4.632  14.577  0.00  0.00    +0.000 C 
ATOM      7  O   UNL     1       5.997   3.579  14.861  0.00  0.00    +0.000 OA
ATOM      8  N   UNL     1       6.598   5.772  15.346  0.00  0.00    +0.000 N 
ATOM      9  H   UNL     1       7.010   6.618  14.974  0.00  0.00    +0.000 HD
BRANCH   6  11
ATOM     10  C   UNL     1       6.988   4.018  12.245  0.00  0.00    +0.000 C 
ATOM     11  C   UNL     1       7.301   4.788  13.296  0.00  0.00    +0.000 C 
ENDBRANCH   6  11
ENDBRANCH   1   8
BRANCH   4  12
ATOM     12  C   UNL     1       3.011   6.553  18.551  0.00  0.00    +0.000 C 
BRANCH  12  13
ATOM     13  C   UNL     1       2.304   5.285  18.956  0.00  0.00    +0.000 A 
ATOM     14  C   UNL     1       1.962   5.069  20.300  0.00  0.00    +0.000 A 
ATOM     15  C   UNL     1       1.260   3.924  20.681  0.00  0.00    +0.000 A 
ATOM     16  C   UNL     1       0.878   2.988  19.720  0.00  0.00    +0.000 A 
ATOM     17  C   UNL     1       1.210   3.189  18.383  0.00  0.00    +0.000 A 
ATOM     18  C   UNL     1       1.922   4.328  18.003  0.00  0.00    +0.000 A 
ENDBRANCH  12  13
ENDBRANCH   4  12
TORSDOF 4
ENDMDL
