MODEL 1
REMARK VINA RESULT:      -8.5      0.000      0.000
REMARK  Name = 
REMARK  11 active torsions:
REMARK  status: ('A' for Active; 'I' for Inactive)
REMARK    1  A    between atoms: C_1  and  O_2
REMARK    2  A    between atoms: O_2  and  C_3
REMARK    3  A    between atoms: C_6  and  O_7
REMARK    4  A    between atoms: O_7  and  C_8
REMARK    5  A    between atoms: C_11  and  O_12
REMARK    6  A    between atoms: C_13  and  C_14
REMARK    7  A    between atoms: C_14  and  C_15
REMARK    8  A    between atoms: C_15  and  N_16
REMARK    9  A    between atoms: C_17  and  C_19
REMARK   10  A    between atoms: C_22  and  S_23
REMARK   11  A    between atoms: S_23  and  N_26
REMARK                            x       y       z     vdW  Elec       q    Type
REMARK                         _______ _______ _______ _____ _____    ______ ____
ROOT
ATOM      1  C   UNL     1       8.067   9.278  17.776  0.00  0.00    +0.000 C 
ENDROOT
BRANCH   1   2
ATOM      2  N   UNL     1       7.047   8.260  17.985  0.00  0.00    +0.000 N 
ATOM      3  C   UNL     1       7.074   7.090  17.258  0.00  0.00    +0.000 C 
ATOM      4  O   UNL     1       7.913   6.859  16.390  0.00  0.00    +0.000 OA
ATOM      5  H   UNL     1       6.426   8.358  18.776  0.00  0.00    +0.000 HD
BRANCH   3   6
ATOM      6  C   UNL     1       6.075   6.036  17.597  0.00  0.00    +0.000 A 
ATOM      7  C   UNL     1       6.358   4.935  18.414  0.00  0.00    +0.000 A 
ATOM      8  C   UNL     1       5.373   3.956  18.638  0.00  0.00    +0.000 A 
ATOM      9  C   UNL     1       4.109   4.083  18.042  0.00  0.00    +0.000 A 
ATOM     10  C   UNL     1       3.822   5.197  17.251  0.00  0.00    +0.000 A 
ATOM     11  C   UNL     1       4.793   6.176  17.047  0.00  0.00    +0.000 A 
BRANCH   9  12
ATOM     12  S   UNL     1       2.952   2.713  18.069  0.00  0.00    +0.000 S 
ATOM     13  O   UNL     1       2.036   2.940  16.972  0.00  0.00    +0.000 OA
ATOM     14  O   UNL     1       3.739   1.505  18.149  0.00  0.00    +0.000 OA
BRANCH  12  15
ATOM     15  N   UNL     1       2.088   2.842  19.507  0.00  0.00    +0.000 NA
ATOM     16  C   UNL     1       0.971   3.786  19.643  0.00  0.00    +0.000 C 
ATOM     17  C   UNL     1       1.486   4.804  20.642  0.00  0.00    +0.000 C 
ATOM     18  C   UNL     1       2.345   3.982  21.591  0.00  0.00    +0.000 C 
ATOM     19  C   UNL     1       2.791   2.756  20.797  0.00  0.00    +0.000 C 
ENDBRANCH  12  15
ENDBRANCH   9  12
ENDBRANCH   3   6
ENDBRANCH   1   2
BRANCH   1  20
ATOM     20  C   UNL     1       9.134   9.256  18.875  0.00  0.00    +0.000 C 
BRANCH  20  28
ATOM     21  C   UNL     1       9.074  12.996  22.183  0.00  0.00    +0.000 A 
ATOM     22  C   UNL     1       9.452  14.288  22.539  0.00  0.00    +0.000 A 
ATOM     23  C   UNL     1      10.237  15.047  21.677  0.00  0.00    +0.000 A 
ATOM     24  C   UNL     1      10.656  14.520  20.450  0.00  0.00    +0.000 A 
ATOM     25  C   UNL     1      10.288  13.217  20.059  0.00  0.00    +0.000 A 
ATOM     26  N   UNL     1      10.690  12.717  18.865  0.00  0.00    +0.000 NA
ATOM     27  C   UNL     1      10.314  11.473  18.534  0.00  0.00    +0.000 A 
ATOM     28  C   UNL     1       9.541  10.635  19.307  0.00  0.00    +0.000 A 
ATOM     29  C   UNL     1       9.124  11.152  20.533  0.00  0.00    +0.000 A 
ATOM     30  C   UNL     1       9.489  12.454  20.943  0.00  0.00    +0.000 A 
BRANCH  21  32
ATOM     31  C   UNL     1       7.459  12.794  23.925  0.00  0.00    +0.000 C 
ATOM     32  O   UNL     1       8.350  12.168  23.008  0.00  0.00    +0.000 OA
ENDBRANCH  21  32
BRANCH  24  33
ATOM     33  O   UNL     1      11.445  15.212  19.555  0.00  0.00    +0.000 OA
ATOM     34  C   UNL     1      10.949  16.442  19.045  0.00  0.00    +0.000 C 
ENDBRANCH  24  33
BRANCH  27  35
ATOM     35  O   UNL     1      10.778  11.095  17.319  0.00  0.00    +0.000 OA
ATOM     36  H   UNL     1      10.149  10.370  17.138  0.00  0.00    +0.000 HD
ENDBRANCH  27  35
ENDBRANCH  20  28
ENDBRANCH   1  20
TORSDOF 9
ENDMDL
MODEL 2
REMARK VINA RESULT:      -8.4      5.687      8.204
REMARK  Name = 
REMARK  11 active torsions:
REMARK  status: ('A' for Active; 'I' for Inactive)
REMARK    1  A    between atoms: C_1  and  O_2
REMARK    2  A    between atoms: O_2  and  C_3
REMARK    3  A    between atoms: C_6  and  O_7
REMARK    4  A    between atoms: O_7  and  C_8
REMARK    5  A    between atoms: C_11  and  O_12
REMARK    6  A    between atoms: C_13  and  C_14
REMARK    7  A    between atoms: C_14  and  C_15
REMARK    8  A    between atoms: C_15  and  N_16
REMARK    9  A    between atoms: C_17  and  C_19
REMARK   10  A    between atoms: C_22  and  S_23
REMARK   11  A    between atoms: S_23  and  N_26
REMARK                            x       y       z     vdW  Elec       q    Type
REMARK                         _______ _______ _______ _____ _____    ______ ____
ROOT
ATOM      1  C   UNL     1       0.931   7.948  21.684  0.00  0.00    +0.000 C 
ENDROOT
BRANCH   1   2
ATOM      2  N   UNL     1       1.864   7.497  20.659  0.00  0.00    +0.000 N 
ATOM      3  C   UNL     1       1.892   6.173  20.281  0.00  0.00    +0.000 C 
ATOM      4  O   UNL     1       1.180   5.313  20.796  0.00  0.00    +0.000 OA
ATOM      5  H   UNL     1       2.365   8.194  20.126  0.00  0.00    +0.000 HD
BRANCH   3   6
ATOM      6  C   UNL     1       2.782   5.791  19.148  0.00  0.00    +0.000 A 
ATOM      7  C   UNL     1       3.221   4.482  18.915  0.00  0.00    +0.000 A 
ATOM      8  C   UNL     1       4.107   4.217  17.855  0.00  0.00    +0.000 A 
ATOM      9  C   UNL     1       4.549   5.263  17.032  0.00  0.00    +0.000 A 
ATOM     10  C   UNL     1       4.088   6.562  17.250  0.00  0.00    +0.000 A 
ATOM     11  C   UNL     1       3.194   6.820  18.289  0.00  0.00    +0.000 A 
BRANCH   9  12
ATOM     12  S   UNL     1       5.895   5.000  15.877  0.00  0.00    +0.000 S 
ATOM     13  O   UNL     1       5.940   3.575  15.630  0.00  0.00    +0.000 OA
ATOM     14  O   UNL     1       5.707   5.940  14.797  0.00  0.00    +0.000 OA
BRANCH  12  15
ATOM     15  N   UNL     1       7.308   5.437  16.677  0.00  0.00    +0.000 NA
ATOM     16  C   UNL     1       7.824   4.645  17.802  0.00  0.00    +0.000 C 
ATOM     17  C   UNL     1       7.657   5.570  18.993  0.00  0.00    +0.000 C 
ATOM     18  C   UNL     1       7.919   6.954  18.419  0.00  0.00    +0.000 C 
ATOM     19  C   UNL     1       7.602   6.857  16.929  0.00  0.00    +0.000 C 
ENDBRANCH  12  15
ENDBRANCH   9  12
ENDBRANCH   3   6
ENDBRANCH   1   2
BRANCH   1  20
ATOM     20  C   UNL     1      -0.256   8.708  21.085  0.00  0.00    +0.000 C 
BRANCH  20  28
ATOM     21  C   UNL     1       0.955  13.366  19.751  0.00  0.00    +0.000 A 
ATOM     22  C   UNL     1       1.017  14.723  20.056  0.00  0.00    +0.000 A 
ATOM     23  C   UNL     1       0.549  15.183  21.283  0.00  0.00    +0.000 A 
ATOM     24  C   UNL     1       0.010  14.290  22.216  0.00  0.00    +0.000 A 
ATOM     25  C   UNL     1      -0.064  12.910  21.939  0.00  0.00    +0.000 A 
ATOM     26  N   UNL     1      -0.579  12.051  22.852  0.00  0.00    +0.000 NA
ATOM     27  C   UNL     1      -0.627  10.746  22.545  0.00  0.00    +0.000 A 
ATOM     28  C   UNL     1      -0.194  10.182  21.366  0.00  0.00    +0.000 A 
ATOM     29  C   UNL     1       0.339  11.066  20.429  0.00  0.00    +0.000 A 
ATOM     30  C   UNL     1       0.415  12.453  20.688  0.00  0.00    +0.000 A 
BRANCH  21  32
ATOM     31  C   UNL     1       2.686  13.093  18.134  0.00  0.00    +0.000 C 
ATOM     32  O   UNL     1       1.343  12.848  18.538  0.00  0.00    +0.000 OA
ENDBRANCH  21  32
BRANCH  24  33
ATOM     33  O   UNL     1      -0.483  14.680  23.445  0.00  0.00    +0.000 OA
ATOM     34  C   UNL     1      -1.204  15.902  23.512  0.00  0.00    +0.000 C 
ENDBRANCH  24  33
BRANCH  27  35
ATOM     35  O   UNL     1      -1.160   9.997  23.540  0.00  0.00    +0.000 OA
ATOM     36  H   UNL     1      -1.650  10.701  24.009  0.00  0.00    +0.000 HD
ENDBRANCH  27  35
ENDBRANCH  20  28
ENDBRANCH   1  20
TORSDOF 9
ENDMDL
MODEL 3
REMARK VINA RESULT:      -8.3      3.076     10.362
REMARK  Name = 
REMARK  11 active torsions:
REMARK  status: ('A' for Active; 'I' for Inactive)
REMARK    1  A    between atoms: C_1  and  O_2
REMARK    2  A    between atoms: O_2  and  C_3
REMARK    3  A    between atoms: C_6  and  O_7
REMARK    4  A    between atoms: O_7  and  C_8
REMARK    5  A    between atoms: C_11  and  O_12
REMARK    6  A    between atoms: C_13  and  C_14
REMARK    7  A    between atoms: C_14  and  C_15
REMARK    8  A    between atoms: C_15  and  N_16
REMARK    9  A    between atoms: C_17  and  C_19
REMARK   10  A    between atoms: C_22  and  S_23
REMARK   11  A    between atoms: S_23  and  N_26
REMARK                            x       y       z     vdW  Elec       q    Type
REMARK                         _______ _______ _______ _____ _____    ______ ____
ROOT
ATOM      1  C   UNL     1       7.190   6.476  16.635  0.00  0.00    +0.000 C 
ENDROOT
BRANCH   1   2
ATOM      2  N   UNL     1       7.476   7.869  16.950  0.00  0.00    +0.000 N 
ATOM      3  C   UNL     1       8.151   8.194  18.106  0.00  0.00    +0.000 C 
ATOM      4  O   UNL     1       8.507   7.357  18.933  0.00  0.00    +0.000 OA
ATOM      5  H   UNL     1       7.318   8.565  16.236  0.00  0.00    +0.000 HD
BRANCH   3   6
ATOM      6  C   UNL     1       8.519   9.623  18.319  0.00  0.00    +0.000 A 
ATOM      7  C   UNL     1       8.129  10.659  17.461  0.00  0.00    +0.000 A 
ATOM      8  C   UNL     1       8.567  11.974  17.705  0.00  0.00    +0.000 A 
ATOM      9  C   UNL     1       9.393  12.246  18.806  0.00  0.00    +0.000 A 
ATOM     10  C   UNL     1       9.756  11.215  19.674  0.00  0.00    +0.000 A 
ATOM     11  C   UNL     1       9.305   9.916  19.442  0.00  0.00    +0.000 A 
BRANCH   9  12
ATOM     12  S   UNL     1      10.198  13.840  18.963  0.00  0.00    +0.000 S 
ATOM     13  O   UNL     1      11.582  13.561  19.280  0.00  0.00    +0.000 OA
ATOM     14  O   UNL     1       9.839  14.606  17.793  0.00  0.00    +0.000 OA
BRANCH  12  15
ATOM     15  N   UNL     1       9.501  14.602  20.291  0.00  0.00    +0.000 NA
ATOM     16  C   UNL     1      10.102  14.506  21.628  0.00  0.00    +0.000 C 
ATOM     17  C   UNL     1       9.094  13.688  22.413  0.00  0.00    +0.000 C 
ATOM     18  C   UNL     1       7.751  14.123  21.846  0.00  0.00    +0.000 C 
ATOM     19  C   UNL     1       8.036  14.633  20.435  0.00  0.00    +0.000 C 
ENDBRANCH  12  15
ENDBRANCH   9  12
ENDBRANCH   3   6
ENDBRANCH   1   2
BRANCH   1  20
ATOM     20  C   UNL     1       5.768   6.289  16.099  0.00  0.00    +0.000 C 
BRANCH  20  28
ATOM     21  C   UNL     1       2.228   6.978  19.554  0.00  0.00    +0.000 A 
ATOM     22  C   UNL     1       1.387   6.451  20.530  0.00  0.00    +0.000 A 
ATOM     23  C   UNL     1       1.400   5.086  20.799  0.00  0.00    +0.000 A 
ATOM     24  C   UNL     1       2.253   4.232  20.090  0.00  0.00    +0.000 A 
ATOM     25  C   UNL     1       3.119   4.734  19.098  0.00  0.00    +0.000 A 
ATOM     26  N   UNL     1       3.949   3.903  18.423  0.00  0.00    +0.000 NA
ATOM     27  C   UNL     1       4.757   4.426  17.489  0.00  0.00    +0.000 A 
ATOM     28  C   UNL     1       4.827   5.757  17.142  0.00  0.00    +0.000 A 
ATOM     29  C   UNL     1       3.976   6.612  17.840  0.00  0.00    +0.000 A 
ATOM     30  C   UNL     1       3.098   6.125  18.833  0.00  0.00    +0.000 A 
BRANCH  21  32
ATOM     31  C   UNL     1       1.213   9.125  19.765  0.00  0.00    +0.000 C 
ATOM     32  O   UNL     1       2.227   8.305  19.194  0.00  0.00    +0.000 OA
ENDBRANCH  21  32
BRANCH  24  33
ATOM     33  O   UNL     1       2.308   2.869  20.296  0.00  0.00    +0.000 OA
ATOM     34  C   UNL     1       2.695   2.408  21.583  0.00  0.00    +0.000 C 
ENDBRANCH  24  33
BRANCH  27  35
ATOM     35  O   UNL     1       5.534   3.492  16.891  0.00  0.00    +0.000 OA
ATOM     36  H   UNL     1       6.398   3.939  16.978  0.00  0.00    +0.000 HD
ENDBRANCH  27  35
ENDBRANCH  20  28
ENDBRANCH   1  20
TORSDOF 9
ENDMDL
MODEL 4
REMARK VINA RESULT:      -8.3      7.094     10.195
REMARK  Name = 
REMARK  11 active torsions:
REMARK  status: ('A' for Active; 'I' for Inactive)
REMARK    1  A    between atoms: C_1  and  O_2
REMARK    2  A    between atoms: O_2  and  C_3
REMARK    3  A    between atoms: C_6  and  O_7
REMARK    4  A    between atoms: O_7  and  C_8
REMARK    5  A    between atoms: C_11  and  O_12
REMARK    6  A    between atoms: C_13  and  C_14
REMARK    7  A    between atoms: C_14  and  C_15
REMARK    8  A    between atoms: C_15  and  N_16
REMARK    9  A    between atoms: C_17  and  C_19
REMARK   10  A    between atoms: C_22  and  S_23
REMARK   11  A    between atoms: S_23  and  N_26
REMARK                            x       y       z     vdW  Elec       q    Type
REMARK                         _______ _______ _______ _____ _____    ______ ____
ROOT
ATOM      1  C   UNL     1      -0.196  11.286  21.998  0.00  0.00    +0.000 C 
ENDROOT
BRANCH   1   2
ATOM      2  N   UNL     1       0.646  10.324  21.299  0.00  0.00    +0.000 N 
ATOM      3  C   UNL     1       0.351   8.980  21.347  0.00  0.00    +0.000 C 
ATOM      4  O   UNL     1      -0.590   8.522  21.993  0.00  0.00    +0.000 OA
ATOM      5  H   UNL     1       1.342  10.674  20.656  0.00  0.00    +0.000 HD
BRANCH   3   6
ATOM      6  C   UNL     1       1.177   8.056  20.519  0.00  0.00    +0.000 A 
ATOM      7  C   UNL     1       1.506   6.751  20.909  0.00  0.00    +0.000 A 
ATOM      8  C   UNL     1       2.339   5.964  20.093  0.00  0.00    +0.000 A 
ATOM      9  C   UNL     1       2.838   6.486  18.889  0.00  0.00    +0.000 A 
ATOM     10  C   UNL     1       2.485   7.775  18.491  0.00  0.00    +0.000 A 
ATOM     11  C   UNL     1       1.643   8.547  19.291  0.00  0.00    +0.000 A 
BRANCH   9  12
ATOM     12  S   UNL     1       4.127   5.620  17.992  0.00  0.00    +0.000 S 
ATOM     13  O   UNL     1       4.479   6.470  16.875  0.00  0.00    +0.000 OA
ATOM     14  O   UNL     1       5.114   5.217  18.966  0.00  0.00    +0.000 OA
BRANCH  12  15
ATOM     15  N   UNL     1       3.428   4.217  17.381  0.00  0.00    +0.000 NA
ATOM     16  C   UNL     1       1.973   4.014  17.412  0.00  0.00    +0.000 C 
ATOM     17  C   UNL     1       1.794   2.874  18.396  0.00  0.00    +0.000 C 
ATOM     18  C   UNL     1       3.016   1.998  18.165  0.00  0.00    +0.000 C 
ATOM     19  C   UNL     1       4.088   2.918  17.585  0.00  0.00    +0.000 C 
ENDBRANCH  12  15
ENDBRANCH   9  12
ENDBRANCH   3   6
ENDBRANCH   1   2
BRANCH   1  20
ATOM     20  C   UNL     1      -0.466  12.534  21.152  0.00  0.00    +0.000 C 
BRANCH  20  28
ATOM     21  C   UNL     1      -4.929  11.983  18.981  0.00  0.00    +0.000 A 
ATOM     22  C   UNL     1      -5.684  11.681  17.850  0.00  0.00    +0.000 A 
ATOM     23  C   UNL     1      -5.049  11.366  16.653  0.00  0.00    +0.000 A 
ATOM     24  C   UNL     1      -3.652  11.353  16.574  0.00  0.00    +0.000 A 
ATOM     25  C   UNL     1      -2.859  11.650  17.700  0.00  0.00    +0.000 A 
ATOM     26  N   UNL     1      -1.508  11.626  17.617  0.00  0.00    +0.000 NA
ATOM     27  C   UNL     1      -0.794  11.914  18.716  0.00  0.00    +0.000 A 
ATOM     28  C   UNL     1      -1.315  12.239  19.949  0.00  0.00    +0.000 A 
ATOM     29  C   UNL     1      -2.707  12.259  20.034  0.00  0.00    +0.000 A 
ATOM     30  C   UNL     1      -3.515  11.969  18.913  0.00  0.00    +0.000 A 
BRANCH  21  32
ATOM     31  C   UNL     1      -6.632  11.636  20.613  0.00  0.00    +0.000 C 
ATOM     32  O   UNL     1      -5.487  12.361  20.180  0.00  0.00    +0.000 OA
ENDBRANCH  21  32
BRANCH  24  33
ATOM     33  O   UNL     1      -2.958  11.062  15.416  0.00  0.00    +0.000 OA
ATOM     34  C   UNL     1      -3.497  10.071  14.552  0.00  0.00    +0.000 C 
ENDBRANCH  24  33
BRANCH  27  35
ATOM     35  O   UNL     1       0.541  11.853  18.501  0.00  0.00    +0.000 OA
ATOM     36  H   UNL     1       0.837  11.760  19.427  0.00  0.00    +0.000 HD
ENDBRANCH  27  35
ENDBRANCH  20  28
ENDBRANCH   1  20
TORSDOF 9
ENDMDL
MODEL 5
REMARK VINA RESULT:      -8.2      6.863     10.143
REMARK  Name = 
REMARK  11 active torsions:
REMARK  status: ('A' for Active; 'I' for Inactive)
REMARK    1  A    between atoms: C_1  and  O_2
REMARK    2  A    between atoms: O_2  and  C_3
REMARK    3  A    between atoms: C_6  and  O_7
REMARK    4  A    between atoms: O_7  and  C_8
REMARK    5  A    between atoms: C_11  and  O_12
REMARK    6  A    between atoms: C_13  and  C_14
REMARK    7  A    between atoms: C_14  and  C_15
REMARK    8  A    between atoms: C_15  and  N_16
REMARK    9  A    between atoms: C_17  and  C_19
REMARK   10  A    between atoms: C_22  and  S_23
REMARK   11  A    between atoms: S_23  and  N_26
REMARK                            x       y       z     vdW  Elec       q    Type
REMARK                         _______ _______ _______ _____ _____    ______ ____
ROOT
ATOM      1  C   UNL     1       0.099  11.153  22.011  0.00  0.00    +0.000 C 
ENDROOT
BRANCH   1   2
ATOM      2  N   UNL     1       0.859  10.083  21.380  0.00  0.00    +0.000 N 
ATOM      3  C   UNL     1       0.425   8.779  21.469  0.00  0.00    +0.000 C 
ATOM      4  O   UNL     1      -0.577   8.446  22.099  0.00  0.00    +0.000 OA
ATOM      5  H   UNL     1       1.607  10.333  20.749  0.00  0.00    +0.000 HD
BRANCH   3   6
ATOM      6  C   UNL     1       1.178   7.741  20.707  0.00  0.00    +0.000 A 
ATOM      7  C   UNL     1       1.243   6.395  21.089  0.00  0.00    +0.000 A 
ATOM      8  C   UNL     1       2.022   5.491  20.344  0.00  0.00    +0.000 A 
ATOM      9  C   UNL     1       2.732   5.939  19.219  0.00  0.00    +0.000 A 
ATOM     10  C   UNL     1       2.642   7.274  18.826  0.00  0.00    +0.000 A 
ATOM     11  C   UNL     1       1.853   8.165  19.554  0.00  0.00    +0.000 A 
BRANCH   9  12
ATOM     12  S   UNL     1       3.955   4.883  18.441  0.00  0.00    +0.000 S 
ATOM     13  O   UNL     1       4.166   3.776  19.349  0.00  0.00    +0.000 OA
ATOM     14  O   UNL     1       3.512   4.663  17.084  0.00  0.00    +0.000 OA
BRANCH  12  15
ATOM     15  N   UNL     1       5.379   5.774  18.362  0.00  0.00    +0.000 NA
ATOM     16  C   UNL     1       5.867   6.322  17.089  0.00  0.00    +0.000 C 
ATOM     17  C   UNL     1       7.134   5.532  16.825  0.00  0.00    +0.000 C 
ATOM     18  C   UNL     1       7.717   5.302  18.212  0.00  0.00    +0.000 C 
ATOM     19  C   UNL     1       6.538   5.380  19.179  0.00  0.00    +0.000 C 
ENDBRANCH  12  15
ENDBRANCH   9  12
ENDBRANCH   3   6
ENDBRANCH   1   2
BRANCH   1  20
ATOM     20  C   UNL     1      -0.057  12.366  21.089  0.00  0.00    +0.000 C 
BRANCH  20  28
ATOM     21  C   UNL     1      -4.570  12.089  18.969  0.00  0.00    +0.000 A 
ATOM     22  C   UNL     1      -5.358  11.791  17.860  0.00  0.00    +0.000 A 
ATOM     23  C   UNL     1      -4.763  11.354  16.681  0.00  0.00    +0.000 A 
ATOM     24  C   UNL     1      -3.374  11.213  16.597  0.00  0.00    +0.000 A 
ATOM     25  C   UNL     1      -2.549  11.503  17.702  0.00  0.00    +0.000 A 
ATOM     26  N   UNL     1      -1.205  11.355  17.616  0.00  0.00    +0.000 NA
ATOM     27  C   UNL     1      -0.460  11.641  18.694  0.00  0.00    +0.000 A 
ATOM     28  C   UNL     1      -0.940  12.080  19.908  0.00  0.00    +0.000 A 
ATOM     29  C   UNL     1      -2.323  12.228  19.997  0.00  0.00    +0.000 A 
ATOM     30  C   UNL     1      -3.164  11.947  18.897  0.00  0.00    +0.000 A 
BRANCH  21  32
ATOM     31  C   UNL     1      -6.251  11.949  20.654  0.00  0.00    +0.000 C 
ATOM     32  O   UNL     1      -5.082  12.582  20.147  0.00  0.00    +0.000 OA
ENDBRANCH  21  32
BRANCH  24  33
ATOM     33  O   UNL     1      -2.719  10.797  15.456  0.00  0.00    +0.000 OA
ATOM     34  C   UNL     1      -3.475  10.103  14.473  0.00  0.00    +0.000 C 
ENDBRANCH  24  33
BRANCH  27  35
ATOM     35  O   UNL     1       0.864  11.451  18.478  0.00  0.00    +0.000 OA
ATOM     36  H   UNL     1       1.110  11.107  19.358  0.00  0.00    +0.000 HD
ENDBRANCH  27  35
ENDBRANCH  20  28
ENDBRANCH   1  20
TORSDOF 9
ENDMDL
MODEL 6
REMARK VINA RESULT:      -8.1      6.094      8.434
REMARK  Name = 
REMARK  11 active torsions:
REMARK  status: ('A' for Active; 'I' for Inactive)
REMARK    1  A    between atoms: C_1  and  O_2
REMARK    2  A    between atoms: O_2  and  C_3
REMARK    3  A    between atoms: C_6  and  O_7
REMARK    4  A    between atoms: O_7  and  C_8
REMARK    5  A    between atoms: C_11  and  O_12
REMARK    6  A    between atoms: C_13  and  C_14
REMARK    7  A    between atoms: C_14  and  C_15
REMARK    8  A    between atoms: C_15  and  N_16
REMARK    9  A    between atoms: C_17  and  C_19
REMARK   10  A    between atoms: C_22  and  S_23
REMARK   11  A    between atoms: S_23  and  N_26
REMARK                            x       y       z     vdW  Elec       q    Type
REMARK                         _______ _______ _______ _____ _____    ______ ____
ROOT
ATOM      1  C   UNL     1       0.781   7.915  21.548  0.00  0.00    +0.000 C 
ENDROOT
BRANCH   1   2
ATOM      2  N   UNL     1       1.744   7.472  20.549  0.00  0.00    +0.000 N 
ATOM      3  C   UNL     1       1.858   6.134  20.241  0.00  0.00    +0.000 C 
ATOM      4  O   UNL     1       1.202   5.258  20.800  0.00  0.00    +0.000 OA
ATOM      5  H   UNL     1       2.201   8.170  19.980  0.00  0.00    +0.000 HD
BRANCH   3   6
ATOM      6  C   UNL     1       2.776   5.751  19.129  0.00  0.00    +0.000 A 
ATOM      7  C   UNL     1       3.303   4.464  18.969  0.00  0.00    +0.000 A 
ATOM      8  C   UNL     1       4.207   4.201  17.924  0.00  0.00    +0.000 A 
ATOM      9  C   UNL     1       4.579   5.228  17.043  0.00  0.00    +0.000 A 
ATOM     10  C   UNL     1       4.029   6.502  17.189  0.00  0.00    +0.000 A 
ATOM     11  C   UNL     1       3.118   6.756  18.214  0.00  0.00    +0.000 A 
BRANCH   9  12
ATOM     12  S   UNL     1       5.942   4.993  15.902  0.00  0.00    +0.000 S 
ATOM     13  O   UNL     1       6.008   3.571  15.642  0.00  0.00    +0.000 OA
ATOM     14  O   UNL     1       5.755   5.942  14.829  0.00  0.00    +0.000 OA
BRANCH  12  15
ATOM     15  N   UNL     1       7.340   5.439  16.724  0.00  0.00    +0.000 NA
ATOM     16  C   UNL     1       7.856   4.638  17.842  0.00  0.00    +0.000 C 
ATOM     17  C   UNL     1       7.662   5.541  19.045  0.00  0.00    +0.000 C 
ATOM     18  C   UNL     1       7.908   6.938  18.496  0.00  0.00    +0.000 C 
ATOM     19  C   UNL     1       7.608   6.860  17.001  0.00  0.00    +0.000 C 
ENDBRANCH  12  15
ENDBRANCH   9  12
ENDBRANCH   3   6
ENDBRANCH   1   2
BRANCH   1  20
ATOM     20  C   UNL     1       1.256   9.170  22.285  0.00  0.00    +0.000 C 
BRANCH  20  28
ATOM     21  C   UNL     1       0.877  13.163  19.310  0.00  0.00    +0.000 A 
ATOM     22  C   UNL     1       0.196  14.317  18.933  0.00  0.00    +0.000 A 
ATOM     23  C   UNL     1      -0.974  14.682  19.592  0.00  0.00    +0.000 A 
ATOM     24  C   UNL     1      -1.476  13.894  20.634  0.00  0.00    +0.000 A 
ATOM     25  C   UNL     1      -0.809  12.722  21.042  0.00  0.00    +0.000 A 
ATOM     26  N   UNL     1      -1.297  11.970  22.057  0.00  0.00    +0.000 NA
ATOM     27  C   UNL     1      -0.626  10.863  22.412  0.00  0.00    +0.000 A 
ATOM     28  C   UNL     1       0.537  10.408  21.831  0.00  0.00    +0.000 A 
ATOM     29  C   UNL     1       1.040  11.186  20.790  0.00  0.00    +0.000 A 
ATOM     30  C   UNL     1       0.380  12.360  20.365  0.00  0.00    +0.000 A 
BRANCH  21  32
ATOM     31  C   UNL     1       3.013  13.672  18.382  0.00  0.00    +0.000 C 
ATOM     32  O   UNL     1       2.004  12.709  18.666  0.00  0.00    +0.000 OA
ENDBRANCH  21  32
BRANCH  24  33
ATOM     33  O   UNL     1      -2.636  14.191  21.321  0.00  0.00    +0.000 OA
ATOM     34  C   UNL     1      -2.618  15.303  22.204  0.00  0.00    +0.000 C 
ENDBRANCH  24  33
BRANCH  27  35
ATOM     35  O   UNL     1      -1.216  10.204  23.438  0.00  0.00    +0.000 OA
ATOM     36  H   UNL     1      -1.025   9.289  23.155  0.00  0.00    +0.000 HD
ENDBRANCH  27  35
ENDBRANCH  20  28
ENDBRANCH   1  20
TORSDOF 9
ENDMDL
MODEL 7
REMARK VINA RESULT:      -8.1      1.791      2.292
REMARK  Name = 
REMARK  11 active torsions:
REMARK  status: ('A' for Active; 'I' for Inactive)
REMARK    1  A    between atoms: C_1  and  O_2
REMARK    2  A    between atoms: O_2  and  C_3
REMARK    3  A    between atoms: C_6  and  O_7
REMARK    4  A    between atoms: O_7  and  C_8
REMARK    5  A    between atoms: C_11  and  O_12
REMARK    6  A    between atoms: C_13  and  C_14
REMARK    7  A    between atoms: C_14  and  C_15
REMARK    8  A    between atoms: C_15  and  N_16
REMARK    9  A    between atoms: C_17  and  C_19
REMARK   10  A    between atoms: C_22  and  S_23
REMARK   11  A    between atoms: S_23  and  N_26
REMARK                            x       y       z     vdW  Elec       q    Type
REMARK                         _______ _______ _______ _____ _____    ______ ____
ROOT
ATOM      1  C   UNL     1       8.184   9.269  17.656  0.00  0.00    +0.000 C 
ENDROOT
BRANCH   1   2
ATOM      2  N   UNL     1       7.151   8.277  17.924  0.00  0.00    +0.000 N 
ATOM      3  C   UNL     1       7.124   7.096  17.218  0.00  0.00    +0.000 C 
ATOM      4  O   UNL     1       7.922   6.832  16.320  0.00  0.00    +0.000 OA
ATOM      5  H   UNL     1       6.566   8.402  18.738  0.00  0.00    +0.000 HD
BRANCH   3   6
ATOM      6  C   UNL     1       6.117   6.070  17.615  0.00  0.00    +0.000 A 
ATOM      7  C   UNL     1       6.225   5.286  18.770  0.00  0.00    +0.000 A 
ATOM      8  C   UNL     1       5.259   4.300  19.042  0.00  0.00    +0.000 A 
ATOM      9  C   UNL     1       4.189   4.104  18.156  0.00  0.00    +0.000 A 
ATOM     10  C   UNL     1       4.069   4.906  17.021  0.00  0.00    +0.000 A 
ATOM     11  C   UNL     1       5.017   5.896  16.764  0.00  0.00    +0.000 A 
BRANCH   9  12
ATOM     12  S   UNL     1       3.124   2.671  18.325  0.00  0.00    +0.000 S 
ATOM     13  O   UNL     1       2.343   2.606  17.109  0.00  0.00    +0.000 OA
ATOM     14  O   UNL     1       3.967   1.571  18.731  0.00  0.00    +0.000 OA
BRANCH  12  15
ATOM     15  N   UNL     1       2.079   2.996  19.602  0.00  0.00    +0.000 NA
ATOM     16  C   UNL     1       1.301   4.241  19.653  0.00  0.00    +0.000 C 
ATOM     17  C   UNL     1       1.899   4.985  20.832  0.00  0.00    +0.000 C 
ATOM     18  C   UNL     1       2.262   3.881  21.814  0.00  0.00    +0.000 C 
ATOM     19  C   UNL     1       2.456   2.620  20.974  0.00  0.00    +0.000 C 
ENDBRANCH  12  15
ENDBRANCH   9  12
ENDBRANCH   3   6
ENDBRANCH   1   2
BRANCH   1  20
ATOM     20  C   UNL     1       8.882   9.732  18.938  0.00  0.00    +0.000 C 
BRANCH  20  28
ATOM     21  C   UNL     1       7.825  14.480  17.805  0.00  0.00    +0.000 A 
ATOM     22  C   UNL     1       8.211  15.817  17.762  0.00  0.00    +0.000 A 
ATOM     23  C   UNL     1       9.466  16.195  18.229  0.00  0.00    +0.000 A 
ATOM     24  C   UNL     1      10.346  15.239  18.749  0.00  0.00    +0.000 A 
ATOM     25  C   UNL     1       9.987  13.878  18.804  0.00  0.00    +0.000 A 
ATOM     26  N   UNL     1      10.849  12.958  19.300  0.00  0.00    +0.000 NA
ATOM     27  C   UNL     1      10.465  11.673  19.331  0.00  0.00    +0.000 A 
ATOM     28  C   UNL     1       9.251  11.188  18.897  0.00  0.00    +0.000 A 
ATOM     29  C   UNL     1       8.367  12.135  18.383  0.00  0.00    +0.000 A 
ATOM     30  C   UNL     1       8.709  13.504  18.325  0.00  0.00    +0.000 A 
BRANCH  21  32
ATOM     31  C   UNL     1       5.458  14.712  17.979  0.00  0.00    +0.000 C 
ATOM     32  O   UNL     1       6.581  14.042  17.417  0.00  0.00    +0.000 OA
ENDBRANCH  21  32
BRANCH  24  33
ATOM     33  O   UNL     1      11.598  15.547  19.240  0.00  0.00    +0.000 OA
ATOM     34  C   UNL     1      11.673  16.363  20.401  0.00  0.00    +0.000 C 
ENDBRANCH  24  33
BRANCH  27  35
ATOM     35  O   UNL     1      11.415  10.858  19.846  0.00  0.00    +0.000 OA
ATOM     36  H   UNL     1      11.410  11.187  20.766  0.00  0.00    +0.000 HD
ENDBRANCH  27  35
ENDBRANCH  20  28
ENDBRANCH   1  20
TORSDOF 9
ENDMDL
MODEL 8
REMARK VINA RESULT:      -8.1      7.198     10.236
REMARK  Name = 
REMARK  11 active torsions:
REMARK  status: ('A' for Active; 'I' for Inactive)
REMARK    1  A    between atoms: C_1  and  O_2
REMARK    2  A    between atoms: O_2  and  C_3
REMARK    3  A    between atoms: C_6  and  O_7
REMARK    4  A    between atoms: O_7  and  C_8
REMARK    5  A    between atoms: C_11  and  O_12
REMARK    6  A    between atoms: C_13  and  C_14
REMARK    7  A    between atoms: C_14  and  C_15
REMARK    8  A    between atoms: C_15  and  N_16
REMARK    9  A    between atoms: C_17  and  C_19
REMARK   10  A    between atoms: C_22  and  S_23
REMARK   11  A    between atoms: S_23  and  N_26
REMARK                            x       y       z     vdW  Elec       q    Type
REMARK                         _______ _______ _______ _____ _____    ______ ____
ROOT
ATOM      1  C   UNL     1       0.856  11.284  19.285  0.00  0.00    +0.000 C 
ENDROOT
BRANCH   1   2
ATOM      2  N   UNL     1       1.219   9.875  19.357  0.00  0.00    +0.000 N 
ATOM      3  C   UNL     1       1.911   9.284  18.323  0.00  0.00    +0.000 C 
ATOM      4  O   UNL     1       2.220   9.881  17.294  0.00  0.00    +0.000 OA
ATOM      5  H   UNL     1       1.099   9.393  20.236  0.00  0.00    +0.000 HD
BRANCH   3   6
ATOM      6  C   UNL     1       2.357   7.872  18.502  0.00  0.00    +0.000 A 
ATOM      7  C   UNL     1       2.282   7.185  19.720  0.00  0.00    +0.000 A 
ATOM      8  C   UNL     1       2.778   5.872  19.815  0.00  0.00    +0.000 A 
ATOM      9  C   UNL     1       3.345   5.252  18.692  0.00  0.00    +0.000 A 
ATOM     10  C   UNL     1       3.391   5.930  17.473  0.00  0.00    +0.000 A 
ATOM     11  C   UNL     1       2.882   7.225  17.375  0.00  0.00    +0.000 A 
BRANCH   9  12
ATOM     12  S   UNL     1       4.244   3.710  18.864  0.00  0.00    +0.000 S 
ATOM     13  O   UNL     1       4.526   3.257  17.519  0.00  0.00    +0.000 OA
ATOM     14  O   UNL     1       5.307   3.951  19.811  0.00  0.00    +0.000 OA
BRANCH  12  15
ATOM     15  N   UNL     1       3.184   2.613  19.574  0.00  0.00    +0.000 NA
ATOM     16  C   UNL     1       1.968   2.168  18.879  0.00  0.00    +0.000 C 
ATOM     17  C   UNL     1       0.847   2.765  19.708  0.00  0.00    +0.000 C 
ATOM     18  C   UNL     1       1.376   2.706  21.134  0.00  0.00    +0.000 C 
ATOM     19  C   UNL     1       2.898   2.694  21.015  0.00  0.00    +0.000 C 
ENDBRANCH  12  15
ENDBRANCH   9  12
ENDBRANCH   3   6
ENDBRANCH   1   2
BRANCH   1  20
ATOM     20  C   UNL     1      -0.011  11.715  20.472  0.00  0.00    +0.000 C 
BRANCH  20  28
ATOM     21  C   UNL     1      -3.704  11.538  17.115  0.00  0.00    +0.000 A 
ATOM     22  C   UNL     1      -5.046  11.729  16.797  0.00  0.00    +0.000 A 
ATOM     23  C   UNL     1      -5.936  12.173  17.771  0.00  0.00    +0.000 A 
ATOM     24  C   UNL     1      -5.492  12.426  19.074  0.00  0.00    +0.000 A 
ATOM     25  C   UNL     1      -4.140  12.246  19.427  0.00  0.00    +0.000 A 
ATOM     26  N   UNL     1      -3.717  12.502  20.688  0.00  0.00    +0.000 NA
ATOM     27  C   UNL     1      -2.421  12.318  20.977  0.00  0.00    +0.000 A 
ATOM     28  C   UNL     1      -1.455  11.884  20.096  0.00  0.00    +0.000 A 
ATOM     29  C   UNL     1      -1.891  11.625  18.798  0.00  0.00    +0.000 A 
ATOM     30  C   UNL     1      -3.244  11.795  18.429  0.00  0.00    +0.000 A 
BRANCH  21  32
ATOM     31  C   UNL     1      -3.158   9.895  15.476  0.00  0.00    +0.000 C 
ATOM     32  O   UNL     1      -2.781  11.047  16.222  0.00  0.00    +0.000 OA
ENDBRANCH  21  32
BRANCH  24  33
ATOM     33  O   UNL     1      -6.323  12.854  20.090  0.00  0.00    +0.000 OA
ATOM     34  C   UNL     1      -6.905  14.145  19.971  0.00  0.00    +0.000 C 
ENDBRANCH  24  33
BRANCH  27  35
ATOM     35  O   UNL     1      -2.128  12.610  22.267  0.00  0.00    +0.000 OA
ATOM     36  H   UNL     1      -2.721  13.378  22.383  0.00  0.00    +0.000 HD
ENDBRANCH  27  35
ENDBRANCH  20  28
ENDBRANCH   1  20
TORSDOF 9
ENDMDL
MODEL 9
REMARK VINA RESULT:      -8.0      7.333     10.302
REMARK  Name = 
REMARK  11 active torsions:
REMARK  status: ('A' for Active; 'I' for Inactive)
REMARK    1  A    between atoms: C_1  and  O_2
REMARK    2  A    between atoms: O_2  and  C_3
REMARK    3  A    between atoms: C_6  and  O_7
REMARK    4  A    between atoms: O_7  and  C_8
REMARK    5  A    between atoms: C_11  and  O_12
REMARK    6  A    between atoms: C_13  and  C_14
REMARK    7  A    between atoms: C_14  and  C_15
REMARK    8  A    between atoms: C_15  and  N_16
REMARK    9  A    between atoms: C_17  and  C_19
REMARK   10  A    between atoms: C_22  and  S_23
REMARK   11  A    between atoms: S_23  and  N_26
REMARK                            x       y       z     vdW  Elec       q    Type
REMARK                         _______ _______ _______ _____ _____    ______ ____
ROOT
ATOM      1  C   UNL     1       0.769  11.671  20.024  0.00  0.00    +0.000 C 
ENDROOT
BRANCH   1   2
ATOM      2  N   UNL     1       1.293  10.375  19.617  0.00  0.00    +0.000 N 
ATOM      3  C   UNL     1       1.179   9.286  20.453  0.00  0.00    +0.000 C 
ATOM      4  O   UNL     1       0.677   9.350  21.573  0.00  0.00    +0.000 OA
ATOM      5  H   UNL     1       1.590  10.256  18.659  0.00  0.00    +0.000 HD
BRANCH   3   6
ATOM      6  C   UNL     1       1.628   7.961  19.937  0.00  0.00    +0.000 A 
ATOM      7  C   UNL     1       2.149   7.768  18.652  0.00  0.00    +0.000 A 
ATOM      8  C   UNL     1       2.497   6.473  18.224  0.00  0.00    +0.000 A 
ATOM      9  C   UNL     1       2.321   5.379  19.084  0.00  0.00    +0.000 A 
ATOM     10  C   UNL     1       1.828   5.580  20.373  0.00  0.00    +0.000 A 
ATOM     11  C   UNL     1       1.502   6.866  20.803  0.00  0.00    +0.000 A 
BRANCH   9  12
ATOM     12  S   UNL     1       2.473   3.704  18.462  0.00  0.00    +0.000 S 
ATOM     13  O   UNL     1       2.010   2.837  19.524  0.00  0.00    +0.000 OA
ATOM     14  O   UNL     1       1.853   3.685  17.158  0.00  0.00    +0.000 OA
BRANCH  12  15
ATOM     15  N   UNL     1       4.116   3.422  18.237  0.00  0.00    +0.000 NA
ATOM     16  C   UNL     1       5.093   3.715  19.295  0.00  0.00    +0.000 C 
ATOM     17  C   UNL     1       5.896   4.870  18.727  0.00  0.00    +0.000 C 
ATOM     18  C   UNL     1       5.955   4.575  17.236  0.00  0.00    +0.000 C 
ATOM     19  C   UNL     1       4.739   3.704  16.933  0.00  0.00    +0.000 C 
ENDBRANCH  12  15
ENDBRANCH   9  12
ENDBRANCH   3   6
ENDBRANCH   1   2
BRANCH   1  20
ATOM     20  C   UNL     1       0.043  12.383  18.879  0.00  0.00    +0.000 C 
BRANCH  20  28
ATOM     21  C   UNL     1      -4.148  12.769  21.565  0.00  0.00    +0.000 A 
ATOM     22  C   UNL     1      -5.534  12.655  21.649  0.00  0.00    +0.000 A 
ATOM     23  C   UNL     1      -6.269  12.263  20.535  0.00  0.00    +0.000 A 
ATOM     24  C   UNL     1      -5.627  11.985  19.323  0.00  0.00    +0.000 A 
ATOM     25  C   UNL     1      -4.226  12.087  19.206  0.00  0.00    +0.000 A 
ATOM     26  N   UNL     1      -3.611  11.808  18.032  0.00  0.00    +0.000 NA
ATOM     27  C   UNL     1      -2.276  11.917  17.968  0.00  0.00    +0.000 A 
ATOM     28  C   UNL     1      -1.451  12.296  19.003  0.00  0.00    +0.000 A 
ATOM     29  C   UNL     1      -2.085  12.579  20.212  0.00  0.00    +0.000 A 
ATOM     30  C   UNL     1      -3.488  12.487  20.345  0.00  0.00    +0.000 A 
BRANCH  21  32
ATOM     31  C   UNL     1      -3.464  12.492  23.832  0.00  0.00    +0.000 C 
ATOM     32  O   UNL     1      -3.364  13.207  22.605  0.00  0.00    +0.000 OA
ENDBRANCH  21  32
BRANCH  24  33
ATOM     33  O   UNL     1      -6.296  11.604  18.178  0.00  0.00    +0.000 OA
ATOM     34  C   UNL     1      -7.152  12.556  17.562  0.00  0.00    +0.000 C 
ENDBRANCH  24  33
BRANCH  27  35
ATOM     35  O   UNL     1      -1.787  11.609  16.743  0.00  0.00    +0.000 OA
ATOM     36  H   UNL     1      -2.633  11.500  16.268  0.00  0.00    +0.000 HD
ENDBRANCH  27  35
ENDBRANCH  20  28
ENDBRANCH   1  20
TORSDOF 9
ENDMDL
