MODEL 1
REMARK VINA RESULT:      -6.8      0.000      0.000
REMARK  Name = 
REMARK  7 active torsions:
REMARK  status: ('A' for Active; 'I' for Inactive)
REMARK    1  A    between atoms: C_1  and  C_2
REMARK    2  A    between atoms: C_2  and  O_3
REMARK    3  A    between atoms: O_3  and  C_4
REMARK    4  A    between atoms: C_4  and  C_6
REMARK    5  A    between atoms: C_12  and  O_13
REMARK    6  A    between atoms: O_13  and  C_14
REMARK    7  A    between atoms: C_33  and  C_34
REMARK                            x       y       z     vdW  Elec       q    Type
REMARK                         _______ _______ _______ _____ _____    ______ ____
ROOT
ATOM      1  C   UNL     1      -2.616  11.787  18.022  0.00  0.00    +0.000 C 
ATOM      2  C   UNL     1      -3.801  12.361  18.841  0.00  0.00    +0.000 C 
ATOM      3  C   UNL     1      -5.202  11.795  18.818  0.00  0.00    +0.000 C 
ATOM      4  O   UNL     1      -6.054  12.588  19.673  0.00  0.00    +0.000 OA
ATOM      5  C   UNL     1      -5.595  12.716  20.962  0.00  0.00    +0.000 A 
ATOM      6  C   UNL     1      -6.558  12.911  21.951  0.00  0.00    +0.000 A 
ATOM      7  C   UNL     1      -6.185  12.955  23.293  0.00  0.00    +0.000 A 
ATOM      8  C   UNL     1      -4.841  12.802  23.638  0.00  0.00    +0.000 A 
ATOM      9  C   UNL     1      -3.872  12.633  22.651  0.00  0.00    +0.000 A 
ATOM     10  C   UNL     1      -4.232  12.627  21.298  0.00  0.00    +0.000 A 
ATOM     11  C   UNL     1      -3.250  12.269  20.243  0.00  0.00    +0.000 C 
ATOM     12  N   UNL     1      -1.964  12.910  20.012  0.00  0.00    +0.000 N 
ATOM     13  C   UNL     1      -1.410  13.924  20.739  0.00  0.00    +0.000 C 
ATOM     14  O   UNL     1      -1.984  14.667  21.513  0.00  0.00    +0.000 OA
ATOM     15  C   UNL     1       0.039  14.122  20.541  0.00  0.00    +0.000 A 
ATOM     16  C   UNL     1       0.484  15.394  20.200  0.00  0.00    +0.000 A 
ATOM     17  C   UNL     1       1.840  15.582  19.993  0.00  0.00    +0.000 A 
ATOM     18  F   UNL     1       2.271  16.740  19.474  0.00  0.00    +0.000 F 
ATOM     19  C   UNL     1       2.742  14.556  20.273  0.00  0.00    +0.000 A 
ATOM     20  F   UNL     1       4.054  14.756  20.089  0.00  0.00    +0.000 F 
ATOM     21  C   UNL     1       2.296  13.288  20.639  0.00  0.00    +0.000 A 
ATOM     22  C   UNL     1       0.926  13.032  20.636  0.00  0.00    +0.000 A 
ATOM     23  N   UNL     1       0.525  11.681  20.494  0.00  0.00    +0.000 N 
ATOM     24  C   UNL     1      -0.447  11.205  19.614  0.00  0.00    +0.000 C 
ATOM     25  O   UNL     1      -0.521   9.991  19.443  0.00  0.00    +0.000 OA
ATOM     26  C   UNL     1      -1.340  12.237  18.846  0.00  0.00    +0.000 C 
ATOM     27  C   UNL     1      -0.490  13.081  17.867  0.00  0.00    +0.000 C 
ATOM     28  H   UNL     1       1.167  10.952  20.793  0.00  0.00    +0.000 HD
ENDROOT
BRANCH   1  29
ATOM     29  C   UNL     1      -2.686  10.317  17.721  0.00  0.00    +0.000 C 
ATOM     30  O   UNL     1      -3.208   9.488  18.452  0.00  0.00    +0.000 OA
BRANCH  29  31
ATOM     31  O   UNL     1      -2.179  10.050  16.484  0.00  0.00    +0.000 OA
BRANCH  31  33
ATOM     32  C   UNL     1      -3.088   9.946  14.225  0.00  0.00    +0.000 C 
ATOM     33  C   UNL     1      -2.789  10.816  15.430  0.00  0.00    +0.000 C 
ENDBRANCH  31  33
ENDBRANCH  29  31
ENDBRANCH   1  29
BRANCH   7  34
ATOM     34  O   UNL     1      -7.027  13.116  24.359  0.00  0.00    +0.000 OA
ATOM     35  C   UNL     1      -7.907  14.233  24.310  0.00  0.00    +0.000 C 
ENDBRANCH   7  34
TORSDOF 4
ENDMDL
MODEL 2
REMARK VINA RESULT:      -6.7      3.576      7.384
REMARK  Name = 
REMARK  7 active torsions:
REMARK  status: ('A' for Active; 'I' for Inactive)
REMARK    1  A    between atoms: C_1  and  C_2
REMARK    2  A    between atoms: C_2  and  O_3
REMARK    3  A    between atoms: O_3  and  C_4
REMARK    4  A    between atoms: C_4  and  C_6
REMARK    5  A    between atoms: C_12  and  O_13
REMARK    6  A    between atoms: O_13  and  C_14
REMARK    7  A    between atoms: C_33  and  C_34
REMARK                            x       y       z     vdW  Elec       q    Type
REMARK                         _______ _______ _______ _____ _____    ______ ____
ROOT
ATOM      1  C   UNL     1       1.169  14.234  19.244  0.00  0.00    +0.000 C 
ATOM      2  C   UNL     1       1.361  12.851  18.572  0.00  0.00    +0.000 C 
ATOM      3  C   UNL     1       2.640  12.400  17.906  0.00  0.00    +0.000 C 
ATOM      4  O   UNL     1       2.459  11.074  17.364  0.00  0.00    +0.000 OA
ATOM      5  C   UNL     1       2.028  10.146  18.281  0.00  0.00    +0.000 A 
ATOM      6  C   UNL     1       2.389   8.820  18.045  0.00  0.00    +0.000 A 
ATOM      7  C   UNL     1       2.074   7.832  18.976  0.00  0.00    +0.000 A 
ATOM      8  C   UNL     1       1.395   8.179  20.144  0.00  0.00    +0.000 A 
ATOM      9  C   UNL     1       1.009   9.499  20.373  0.00  0.00    +0.000 A 
ATOM     10  C   UNL     1       1.286  10.492  19.425  0.00  0.00    +0.000 A 
ATOM     11  C   UNL     1       1.049  11.927  19.724  0.00  0.00    +0.000 C 
ATOM     12  N   UNL     1      -0.212  12.521  20.142  0.00  0.00    +0.000 N 
ATOM     13  C   UNL     1      -1.391  11.871  20.369  0.00  0.00    +0.000 C 
ATOM     14  O   UNL     1      -1.691  10.750  20.000  0.00  0.00    +0.000 OA
ATOM     15  C   UNL     1      -2.390  12.632  21.144  0.00  0.00    +0.000 A 
ATOM     16  C   UNL     1      -3.665  12.771  20.606  0.00  0.00    +0.000 A 
ATOM     17  C   UNL     1      -4.602  13.500  21.319  0.00  0.00    +0.000 A 
ATOM     18  F   UNL     1      -5.768  13.816  20.739  0.00  0.00    +0.000 F 
ATOM     19  C   UNL     1      -4.313  13.946  22.607  0.00  0.00    +0.000 A 
ATOM     20  F   UNL     1      -5.235  14.634  23.296  0.00  0.00    +0.000 F 
ATOM     21  C   UNL     1      -3.043  13.785  23.155  0.00  0.00    +0.000 A 
ATOM     22  C   UNL     1      -2.032  13.246  22.360  0.00  0.00    +0.000 A 
ATOM     23  N   UNL     1      -0.697  13.559  22.715  0.00  0.00    +0.000 N 
ATOM     24  C   UNL     1       0.297  14.007  21.845  0.00  0.00    +0.000 C 
ATOM     25  O   UNL     1       1.330  14.453  22.335  0.00  0.00    +0.000 OA
ATOM     26  C   UNL     1       0.020  13.978  20.304  0.00  0.00    +0.000 C 
ATOM     27  C   UNL     1      -1.117  14.959  19.930  0.00  0.00    +0.000 C 
ATOM     28  H   UNL     1      -0.497  13.792  23.685  0.00  0.00    +0.000 HD
ENDROOT
BRANCH   1  29
ATOM     29  C   UNL     1       2.413  14.864  19.802  0.00  0.00    +0.000 C 
ATOM     30  O   UNL     1       3.390  14.237  20.185  0.00  0.00    +0.000 OA
BRANCH  29  31
ATOM     31  O   UNL     1       2.342  16.223  19.732  0.00  0.00    +0.000 OA
BRANCH  31  33
ATOM     32  C   UNL     1       3.193  16.621  17.483  0.00  0.00    +0.000 C 
ATOM     33  C   UNL     1       2.009  16.720  18.424  0.00  0.00    +0.000 C 
ENDBRANCH  31  33
ENDBRANCH  29  31
ENDBRANCH   1  29
BRANCH   7  34
ATOM     34  O   UNL     1       2.388   6.504  18.879  0.00  0.00    +0.000 OA
ATOM     35  C   UNL     1       3.435   6.162  17.978  0.00  0.00    +0.000 C 
ENDBRANCH   7  34
TORSDOF 4
ENDMDL
MODEL 3
REMARK VINA RESULT:      -6.5      2.960      6.379
REMARK  Name = 
REMARK  7 active torsions:
REMARK  status: ('A' for Active; 'I' for Inactive)
REMARK    1  A    between atoms: C_1  and  C_2
REMARK    2  A    between atoms: C_2  and  O_3
REMARK    3  A    between atoms: O_3  and  C_4
REMARK    4  A    between atoms: C_4  and  C_6
REMARK    5  A    between atoms: C_12  and  O_13
REMARK    6  A    between atoms: O_13  and  C_14
REMARK    7  A    between atoms: C_33  and  C_34
REMARK                            x       y       z     vdW  Elec       q    Type
REMARK                         _______ _______ _______ _____ _____    ______ ____
ROOT
ATOM      1  C   UNL     1      -1.349  13.009  22.671  0.00  0.00    +0.000 C 
ATOM      2  C   UNL     1      -0.443  11.752  22.646  0.00  0.00    +0.000 C 
ATOM      3  C   UNL     1      -0.838  10.408  23.212  0.00  0.00    +0.000 C 
ATOM      4  O   UNL     1       0.252   9.475  23.044  0.00  0.00    +0.000 OA
ATOM      5  C   UNL     1       0.693   9.354  21.748  0.00  0.00    +0.000 A 
ATOM      6  C   UNL     1       1.263   8.132  21.394  0.00  0.00    +0.000 A 
ATOM      7  C   UNL     1       1.648   7.893  20.076  0.00  0.00    +0.000 A 
ATOM      8  C   UNL     1       1.457   8.886  19.114  0.00  0.00    +0.000 A 
ATOM      9  C   UNL     1       0.911  10.119  19.467  0.00  0.00    +0.000 A 
ATOM     10  C   UNL     1       0.558  10.382  20.797  0.00  0.00    +0.000 A 
ATOM     11  C   UNL     1      -0.189  11.612  21.165  0.00  0.00    +0.000 C 
ATOM     12  N   UNL     1       0.218  12.981  20.885  0.00  0.00    +0.000 N 
ATOM     13  C   UNL     1       1.333  13.384  20.207  0.00  0.00    +0.000 C 
ATOM     14  O   UNL     1       2.323  12.718  19.966  0.00  0.00    +0.000 OA
ATOM     15  C   UNL     1       1.309  14.781  19.732  0.00  0.00    +0.000 A 
ATOM     16  C   UNL     1       2.377  15.605  20.074  0.00  0.00    +0.000 A 
ATOM     17  C   UNL     1       2.352  16.922  19.648  0.00  0.00    +0.000 A 
ATOM     18  F   UNL     1       3.261  17.783  20.125  0.00  0.00    +0.000 F 
ATOM     19  C   UNL     1       1.358  17.358  18.773  0.00  0.00    +0.000 A 
ATOM     20  F   UNL     1       1.356  18.631  18.351  0.00  0.00    +0.000 F 
ATOM     21  C   UNL     1       0.302  16.525  18.412  0.00  0.00    +0.000 A 
ATOM     22  C   UNL     1       0.204  15.269  19.009  0.00  0.00    +0.000 A 
ATOM     23  N   UNL     1      -1.080  14.673  19.045  0.00  0.00    +0.000 N 
ATOM     24  C   UNL     1      -1.681  14.093  20.162  0.00  0.00    +0.000 C 
ATOM     25  O   UNL     1      -2.878  13.826  20.097  0.00  0.00    +0.000 OA
ATOM     26  C   UNL     1      -0.822  13.874  21.453  0.00  0.00    +0.000 C 
ATOM     27  C   UNL     1      -0.388  15.228  22.062  0.00  0.00    +0.000 C 
ATOM     28  H   UNL     1      -1.759  14.941  18.337  0.00  0.00    +0.000 HD
ENDROOT
BRANCH   1  29
ATOM     29  C   UNL     1      -2.828  12.744  22.663  0.00  0.00    +0.000 C 
ATOM     30  O   UNL     1      -3.355  11.797  22.097  0.00  0.00    +0.000 OA
BRANCH  29  31
ATOM     31  O   UNL     1      -3.486  13.642  23.449  0.00  0.00    +0.000 OA
BRANCH  31  33
ATOM     32  C   UNL     1      -4.839  12.336  24.999  0.00  0.00    +0.000 C 
ATOM     33  C   UNL     1      -4.827  13.245  23.786  0.00  0.00    +0.000 C 
ENDBRANCH  31  33
ENDBRANCH  29  31
ENDBRANCH   1  29
BRANCH   7  34
ATOM     34  O   UNL     1       2.196   6.737  19.593  0.00  0.00    +0.000 OA
ATOM     35  C   UNL     1       1.983   5.561  20.366  0.00  0.00    +0.000 C 
ENDBRANCH   7  34
TORSDOF 4
ENDMDL
MODEL 4
REMARK VINA RESULT:      -6.4      3.128      5.233
REMARK  Name = 
REMARK  7 active torsions:
REMARK  status: ('A' for Active; 'I' for Inactive)
REMARK    1  A    between atoms: C_1  and  C_2
REMARK    2  A    between atoms: C_2  and  O_3
REMARK    3  A    between atoms: O_3  and  C_4
REMARK    4  A    between atoms: C_4  and  C_6
REMARK    5  A    between atoms: C_12  and  O_13
REMARK    6  A    between atoms: O_13  and  C_14
REMARK    7  A    between atoms: C_33  and  C_34
REMARK                            x       y       z     vdW  Elec       q    Type
REMARK                         _______ _______ _______ _____ _____    ______ ____
ROOT
ATOM      1  C   UNL     1       0.828  14.669  21.230  0.00  0.00    +0.000 C 
ATOM      2  C   UNL     1      -0.240  14.529  22.344  0.00  0.00    +0.000 C 
ATOM      3  C   UNL     1      -0.867  15.696  23.071  0.00  0.00    +0.000 C 
ATOM      4  O   UNL     1      -1.797  15.202  24.061  0.00  0.00    +0.000 OA
ATOM      5  C   UNL     1      -2.759  14.360  23.557  0.00  0.00    +0.000 A 
ATOM      6  C   UNL     1      -3.976  14.324  24.237  0.00  0.00    +0.000 A 
ATOM      7  C   UNL     1      -5.036  13.570  23.737  0.00  0.00    +0.000 A 
ATOM      8  C   UNL     1      -4.870  12.851  22.553  0.00  0.00    +0.000 A 
ATOM      9  C   UNL     1      -3.647  12.863  21.883  0.00  0.00    +0.000 A 
ATOM     10  C   UNL     1      -2.565  13.586  22.398  0.00  0.00    +0.000 A 
ATOM     11  C   UNL     1      -1.315  13.761  21.615  0.00  0.00    +0.000 C 
ATOM     12  N   UNL     1      -0.487  12.697  21.068  0.00  0.00    +0.000 N 
ATOM     13  C   UNL     1      -0.722  11.354  21.140  0.00  0.00    +0.000 C 
ATOM     14  O   UNL     1      -1.484  10.785  21.900  0.00  0.00    +0.000 OA
ATOM     15  C   UNL     1       0.046  10.528  20.188  0.00  0.00    +0.000 A 
ATOM     16  C   UNL     1       0.786   9.466  20.695  0.00  0.00    +0.000 A 
ATOM     17  C   UNL     1       1.525   8.699  19.811  0.00  0.00    +0.000 A 
ATOM     18  F   UNL     1       2.396   7.800  20.289  0.00  0.00    +0.000 F 
ATOM     19  C   UNL     1       1.402   8.898  18.436  0.00  0.00    +0.000 A 
ATOM     20  F   UNL     1       2.107   8.136  17.588  0.00  0.00    +0.000 F 
ATOM     21  C   UNL     1       0.641   9.948  17.928  0.00  0.00    +0.000 A 
ATOM     22  C   UNL     1       0.070  10.856  18.819  0.00  0.00    +0.000 A 
ATOM     23  N   UNL     1      -0.234  12.145  18.317  0.00  0.00    +0.000 N 
ATOM     24  C   UNL     1       0.094  13.357  18.924  0.00  0.00    +0.000 C 
ATOM     25  O   UNL     1      -0.032  14.384  18.262  0.00  0.00    +0.000 OA
ATOM     26  C   UNL     1       0.662  13.341  20.384  0.00  0.00    +0.000 C 
ATOM     27  C   UNL     1       2.042  12.643  20.430  0.00  0.00    +0.000 C 
ATOM     28  H   UNL     1      -0.411  12.247  17.321  0.00  0.00    +0.000 HD
ENDROOT
BRANCH   1  29
ATOM     29  C   UNL     1       0.769  15.939  20.430  0.00  0.00    +0.000 C 
ATOM     30  O   UNL     1      -0.257  16.567  20.210  0.00  0.00    +0.000 OA
BRANCH  29  31
ATOM     31  O   UNL     1       2.019  16.344  20.068  0.00  0.00    +0.000 OA
BRANCH  31  33
ATOM     32  C   UNL     1       2.999  16.259  17.838  0.00  0.00    +0.000 C 
ATOM     33  C   UNL     1       2.071  16.993  18.786  0.00  0.00    +0.000 C 
ENDBRANCH  31  33
ENDBRANCH  29  31
ENDBRANCH   1  29
BRANCH   7  34
ATOM     34  O   UNL     1      -6.283  13.467  24.290  0.00  0.00    +0.000 OA
ATOM     35  C   UNL     1      -7.179  12.552  23.671  0.00  0.00    +0.000 C 
ENDBRANCH   7  34
TORSDOF 4
ENDMDL
MODEL 5
REMARK VINA RESULT:      -6.4      2.077      3.231
REMARK  Name = 
REMARK  7 active torsions:
REMARK  status: ('A' for Active; 'I' for Inactive)
REMARK    1  A    between atoms: C_1  and  C_2
REMARK    2  A    between atoms: C_2  and  O_3
REMARK    3  A    between atoms: O_3  and  C_4
REMARK    4  A    between atoms: C_4  and  C_6
REMARK    5  A    between atoms: C_12  and  O_13
REMARK    6  A    between atoms: O_13  and  C_14
REMARK    7  A    between atoms: C_33  and  C_34
REMARK                            x       y       z     vdW  Elec       q    Type
REMARK                         _______ _______ _______ _____ _____    ______ ____
ROOT
ATOM      1  C   UNL     1       0.388  10.846  18.709  0.00  0.00    +0.000 C 
ATOM      2  C   UNL     1      -1.089  11.240  18.453  0.00  0.00    +0.000 C 
ATOM      3  C   UNL     1      -2.239  10.260  18.441  0.00  0.00    +0.000 C 
ATOM      4  O   UNL     1      -3.466  10.962  18.145  0.00  0.00    +0.000 OA
ATOM      5  C   UNL     1      -3.726  12.018  18.986  0.00  0.00    +0.000 A 
ATOM      6  C   UNL     1      -5.067  12.349  19.176  0.00  0.00    +0.000 A 
ATOM      7  C   UNL     1      -5.421  13.343  20.087  0.00  0.00    +0.000 A 
ATOM      8  C   UNL     1      -4.424  14.005  20.804  0.00  0.00    +0.000 A 
ATOM      9  C   UNL     1      -3.080  13.696  20.599  0.00  0.00    +0.000 A 
ATOM     10  C   UNL     1      -2.713  12.726  19.658  0.00  0.00    +0.000 A 
ATOM     11  C   UNL     1      -1.309  12.252  19.550  0.00  0.00    +0.000 C 
ATOM     12  N   UNL     1      -0.137  13.083  19.317  0.00  0.00    +0.000 N 
ATOM     13  C   UNL     1      -0.106  14.442  19.191  0.00  0.00    +0.000 C 
ATOM     14  O   UNL     1      -1.049  15.177  18.963  0.00  0.00    +0.000 OA
ATOM     15  C   UNL     1       1.226  15.058  19.348  0.00  0.00    +0.000 A 
ATOM     16  C   UNL     1       1.678  15.903  18.340  0.00  0.00    +0.000 A 
ATOM     17  C   UNL     1       2.934  16.469  18.472  0.00  0.00    +0.000 A 
ATOM     18  F   UNL     1       3.472  17.123  17.433  0.00  0.00    +0.000 F 
ATOM     19  C   UNL     1       3.654  16.313  19.655  0.00  0.00    +0.000 A 
ATOM     20  F   UNL     1       4.861  16.882  19.779  0.00  0.00    +0.000 F 
ATOM     21  C   UNL     1       3.190  15.485  20.675  0.00  0.00    +0.000 A 
ATOM     22  C   UNL     1       2.030  14.741  20.460  0.00  0.00    +0.000 A 
ATOM     23  N   UNL     1       1.865  13.569  21.238  0.00  0.00    +0.000 N 
ATOM     24  C   UNL     1       1.508  12.311  20.753  0.00  0.00    +0.000 C 
ATOM     25  O   UNL     1       1.628  11.350  21.509  0.00  0.00    +0.000 OA
ATOM     26  C   UNL     1       1.039  12.179  19.265  0.00  0.00    +0.000 C 
ATOM     27  C   UNL     1       2.194  12.516  18.292  0.00  0.00    +0.000 C 
ATOM     28  H   UNL     1       2.328  13.519  22.142  0.00  0.00    +0.000 HD
ENDROOT
BRANCH   1  29
ATOM     29  C   UNL     1       0.598   9.634  19.571  0.00  0.00    +0.000 C 
ATOM     30  O   UNL     1      -0.211   9.225  20.392  0.00  0.00    +0.000 OA
BRANCH  29  31
ATOM     31  O   UNL     1       1.761   9.003  19.246  0.00  0.00    +0.000 OA
BRANCH  31  33
ATOM     32  C   UNL     1       3.034   7.780  17.566  0.00  0.00    +0.000 C 
ATOM     33  C   UNL     1       1.924   8.777  17.835  0.00  0.00    +0.000 C 
ENDBRANCH  31  33
ENDBRANCH  29  31
ENDBRANCH   1  29
BRANCH   7  34
ATOM     34  O   UNL     1      -6.694  13.747  20.384  0.00  0.00    +0.000 OA
ATOM     35  C   UNL     1      -7.600  12.735  20.805  0.00  0.00    +0.000 C 
ENDBRANCH   7  34
TORSDOF 4
ENDMDL
MODEL 6
REMARK VINA RESULT:      -6.4      3.556      7.757
REMARK  Name = 
REMARK  7 active torsions:
REMARK  status: ('A' for Active; 'I' for Inactive)
REMARK    1  A    between atoms: C_1  and  C_2
REMARK    2  A    between atoms: C_2  and  O_3
REMARK    3  A    between atoms: O_3  and  C_4
REMARK    4  A    between atoms: C_4  and  C_6
REMARK    5  A    between atoms: C_12  and  O_13
REMARK    6  A    between atoms: O_13  and  C_14
REMARK    7  A    between atoms: C_33  and  C_34
REMARK                            x       y       z     vdW  Elec       q    Type
REMARK                         _______ _______ _______ _____ _____    ______ ____
ROOT
ATOM      1  C   UNL     1      -0.149  15.248  21.113  0.00  0.00    +0.000 C 
ATOM      2  C   UNL     1       0.429  14.403  19.948  0.00  0.00    +0.000 C 
ATOM      3  C   UNL     1       1.891  14.374  19.564  0.00  0.00    +0.000 C 
ATOM      4  O   UNL     1       2.071  13.507  18.423  0.00  0.00    +0.000 OA
ATOM      5  C   UNL     1       1.582  12.235  18.601  0.00  0.00    +0.000 A 
ATOM      6  C   UNL     1       2.203  11.221  17.874  0.00  0.00    +0.000 A 
ATOM      7  C   UNL     1       1.832   9.891  18.069  0.00  0.00    +0.000 A 
ATOM      8  C   UNL     1       0.835   9.584  18.995  0.00  0.00    +0.000 A 
ATOM      9  C   UNL     1       0.193  10.597  19.706  0.00  0.00    +0.000 A 
ATOM     10  C   UNL     1       0.532  11.939  19.489  0.00  0.00    +0.000 A 
ATOM     11  C   UNL     1      -0.005  13.017  20.358  0.00  0.00    +0.000 C 
ATOM     12  N   UNL     1      -1.410  13.297  20.612  0.00  0.00    +0.000 N 
ATOM     13  C   UNL     1      -2.485  12.604  20.133  0.00  0.00    +0.000 C 
ATOM     14  O   UNL     1      -2.495  11.825  19.198  0.00  0.00    +0.000 OA
ATOM     15  C   UNL     1      -3.757  12.849  20.840  0.00  0.00    +0.000 A 
ATOM     16  C   UNL     1      -4.862  13.225  20.084  0.00  0.00    +0.000 A 
ATOM     17  C   UNL     1      -6.054  13.475  20.744  0.00  0.00    +0.000 A 
ATOM     18  F   UNL     1      -7.073  14.026  20.071  0.00  0.00    +0.000 F 
ATOM     19  C   UNL     1      -6.173  13.206  22.106  0.00  0.00    +0.000 A 
ATOM     20  F   UNL     1      -7.337  13.433  22.730  0.00  0.00    +0.000 F 
ATOM     21  C   UNL     1      -5.071  12.806  22.858  0.00  0.00    +0.000 A 
ATOM     22  C   UNL     1      -3.819  12.763  22.244  0.00  0.00    +0.000 A 
ATOM     23  N   UNL     1      -2.686  12.870  23.087  0.00  0.00    +0.000 N 
ATOM     24  C   UNL     1      -1.593  13.713  22.883  0.00  0.00    +0.000 C 
ATOM     25  O   UNL     1      -0.802  13.861  23.811  0.00  0.00    +0.000 OA
ATOM     26  C   UNL     1      -1.468  14.470  21.518  0.00  0.00    +0.000 C 
ATOM     27  C   UNL     1      -2.620  15.488  21.346  0.00  0.00    +0.000 C 
ATOM     28  H   UNL     1      -2.775  12.578  24.057  0.00  0.00    +0.000 HD
ENDROOT
BRANCH   1  29
ATOM     29  C   UNL     1       0.796  15.522  22.247  0.00  0.00    +0.000 C 
ATOM     30  O   UNL     1       1.773  14.836  22.512  0.00  0.00    +0.000 OA
BRANCH  29  31
ATOM     31  O   UNL     1       0.474  16.688  22.876  0.00  0.00    +0.000 OA
BRANCH  31  33
ATOM     32  C   UNL     1       1.918  18.317  21.782  0.00  0.00    +0.000 C 
ATOM     33  C   UNL     1       1.590  17.575  23.062  0.00  0.00    +0.000 C 
ENDBRANCH  31  33
ENDBRANCH  29  31
ENDBRANCH   1  29
BRANCH   7  34
ATOM     34  O   UNL     1       2.374   8.803  17.441  0.00  0.00    +0.000 OA
ATOM     35  C   UNL     1       2.494   7.616  18.216  0.00  0.00    +0.000 C 
ENDBRANCH   7  34
TORSDOF 4
ENDMDL
MODEL 7
REMARK VINA RESULT:      -6.4      3.363      7.117
REMARK  Name = 
REMARK  7 active torsions:
REMARK  status: ('A' for Active; 'I' for Inactive)
REMARK    1  A    between atoms: C_1  and  C_2
REMARK    2  A    between atoms: C_2  and  O_3
REMARK    3  A    between atoms: O_3  and  C_4
REMARK    4  A    between atoms: C_4  and  C_6
REMARK    5  A    between atoms: C_12  and  O_13
REMARK    6  A    between atoms: O_13  and  C_14
REMARK    7  A    between atoms: C_33  and  C_34
REMARK                            x       y       z     vdW  Elec       q    Type
REMARK                         _______ _______ _______ _____ _____    ______ ____
ROOT
ATOM      1  C   UNL     1      -1.275  13.954  21.258  0.00  0.00    +0.000 C 
ATOM      2  C   UNL     1      -1.444  13.556  19.770  0.00  0.00    +0.000 C 
ATOM      3  C   UNL     1      -0.306  13.137  18.868  0.00  0.00    +0.000 C 
ATOM      4  O   UNL     1      -0.816  12.865  17.545  0.00  0.00    +0.000 OA
ATOM      5  C   UNL     1      -1.835  11.942  17.514  0.00  0.00    +0.000 A 
ATOM      6  C   UNL     1      -1.968  11.198  16.343  0.00  0.00    +0.000 A 
ATOM      7  C   UNL     1      -2.914  10.177  16.265  0.00  0.00    +0.000 A 
ATOM      8  C   UNL     1      -3.725   9.906  17.368  0.00  0.00    +0.000 A 
ATOM      9  C   UNL     1      -3.613  10.664  18.532  0.00  0.00    +0.000 A 
ATOM     10  C   UNL     1      -2.694  11.718  18.606  0.00  0.00    +0.000 A 
ATOM     11  C   UNL     1      -2.429  12.419  19.888  0.00  0.00    +0.000 C 
ATOM     12  N   UNL     1      -3.419  13.077  20.728  0.00  0.00    +0.000 N 
ATOM     13  C   UNL     1      -4.766  13.140  20.514  0.00  0.00    +0.000 C 
ATOM     14  O   UNL     1      -5.352  12.921  19.469  0.00  0.00    +0.000 OA
ATOM     15  C   UNL     1      -5.573  13.519  21.690  0.00  0.00    +0.000 A 
ATOM     16  C   UNL     1      -6.460  14.582  21.558  0.00  0.00    +0.000 A 
ATOM     17  C   UNL     1      -7.206  14.956  22.663  0.00  0.00    +0.000 A 
ATOM     18  F   UNL     1      -7.916  16.091  22.622  0.00  0.00    +0.000 F 
ATOM     19  C   UNL     1      -7.175  14.186  23.824  0.00  0.00    +0.000 A 
ATOM     20  F   UNL     1      -7.916  14.546  24.881  0.00  0.00    +0.000 F 
ATOM     21  C   UNL     1      -6.303  13.106  23.947  0.00  0.00    +0.000 A 
ATOM     22  C   UNL     1      -5.394  12.857  22.920  0.00  0.00    +0.000 A 
ATOM     23  N   UNL     1      -4.222  12.138  23.259  0.00  0.00    +0.000 N 
ATOM     24  C   UNL     1      -2.918  12.490  22.912  0.00  0.00    +0.000 C 
ATOM     25  O   UNL     1      -1.996  11.898  23.468  0.00  0.00    +0.000 OA
ATOM     26  C   UNL     1      -2.697  13.655  21.888  0.00  0.00    +0.000 C 
ATOM     27  C   UNL     1      -3.185  15.001  22.473  0.00  0.00    +0.000 C 
ATOM     28  H   UNL     1      -4.254  11.510  24.058  0.00  0.00    +0.000 HD
ENDROOT
BRANCH   1  29
ATOM     29  C   UNL     1      -0.120  13.315  21.974  0.00  0.00    +0.000 C 
ATOM     30  O   UNL     1       0.244  12.161  21.802  0.00  0.00    +0.000 OA
BRANCH  29  31
ATOM     31  O   UNL     1       0.523  14.221  22.764  0.00  0.00    +0.000 OA
BRANCH  31  33
ATOM     32  C   UNL     1       2.347  14.662  21.209  0.00  0.00    +0.000 C 
ATOM     33  C   UNL     1       1.213  15.246  22.027  0.00  0.00    +0.000 C 
ENDBRANCH  31  33
ENDBRANCH  29  31
ENDBRANCH   1  29
BRANCH   7  34
ATOM     34  O   UNL     1      -3.131   9.360  15.190  0.00  0.00    +0.000 OA
ATOM     35  C   UNL     1      -3.594   9.986  13.999  0.00  0.00    +0.000 C 
ENDBRANCH   7  34
TORSDOF 4
ENDMDL
MODEL 8
REMARK VINA RESULT:      -6.4      4.043      6.061
REMARK  Name = 
REMARK  7 active torsions:
REMARK  status: ('A' for Active; 'I' for Inactive)
REMARK    1  A    between atoms: C_1  and  C_2
REMARK    2  A    between atoms: C_2  and  O_3
REMARK    3  A    between atoms: O_3  and  C_4
REMARK    4  A    between atoms: C_4  and  C_6
REMARK    5  A    between atoms: C_12  and  O_13
REMARK    6  A    between atoms: O_13  and  C_14
REMARK    7  A    between atoms: C_33  and  C_34
REMARK                            x       y       z     vdW  Elec       q    Type
REMARK                         _______ _______ _______ _____ _____    ______ ____
ROOT
ATOM      1  C   UNL     1      -4.288  14.766  22.210  0.00  0.00    +0.000 C 
ATOM      2  C   UNL     1      -3.616  15.979  22.902  0.00  0.00    +0.000 C 
ATOM      3  C   UNL     1      -4.372  17.078  23.612  0.00  0.00    +0.000 C 
ATOM      4  O   UNL     1      -3.438  18.058  24.114  0.00  0.00    +0.000 OA
ATOM      5  C   UNL     1      -2.455  17.535  24.921  0.00  0.00    +0.000 A 
ATOM      6  C   UNL     1      -1.919  18.389  25.884  0.00  0.00    +0.000 A 
ATOM      7  C   UNL     1      -0.988  17.910  26.804  0.00  0.00    +0.000 A 
ATOM      8  C   UNL     1      -0.597  16.572  26.753  0.00  0.00    +0.000 A 
ATOM      9  C   UNL     1      -1.110  15.721  25.775  0.00  0.00    +0.000 A 
ATOM     10  C   UNL     1      -2.016  16.203  24.823  0.00  0.00    +0.000 A 
ATOM     11  C   UNL     1      -2.712  15.281  23.889  0.00  0.00    +0.000 C 
ATOM     12  N   UNL     1      -2.078  14.343  22.975  0.00  0.00    +0.000 N 
ATOM     13  C   UNL     1      -0.740  14.112  22.833  0.00  0.00    +0.000 C 
ATOM     14  O   UNL     1       0.170  14.825  23.215  0.00  0.00    +0.000 OA
ATOM     15  C   UNL     1      -0.388  12.861  22.134  0.00  0.00    +0.000 A 
ATOM     16  C   UNL     1       0.474  12.941  21.046  0.00  0.00    +0.000 A 
ATOM     17  C   UNL     1       0.793  11.773  20.373  0.00  0.00    +0.000 A 
ATOM     18  F   UNL     1       1.457  11.845  19.211  0.00  0.00    +0.000 F 
ATOM     19  C   UNL     1       0.381  10.540  20.874  0.00  0.00    +0.000 A 
ATOM     20  F   UNL     1       0.712   9.414  20.226  0.00  0.00    +0.000 F 
ATOM     21  C   UNL     1      -0.464  10.458  21.979  0.00  0.00    +0.000 A 
ATOM     22  C   UNL     1      -0.965  11.638  22.529  0.00  0.00    +0.000 A 
ATOM     23  N   UNL     1      -2.171  11.542  23.265  0.00  0.00    +0.000 N 
ATOM     24  C   UNL     1      -3.284  12.370  23.122  0.00  0.00    +0.000 C 
ATOM     25  O   UNL     1      -4.330  12.024  23.663  0.00  0.00    +0.000 OA
ATOM     26  C   UNL     1      -3.161  13.653  22.231  0.00  0.00    +0.000 C 
ATOM     27  C   UNL     1      -2.923  13.274  20.750  0.00  0.00    +0.000 C 
ATOM     28  H   UNL     1      -2.403  10.653  23.700  0.00  0.00    +0.000 HD
ENDROOT
BRANCH   1  29
ATOM     29  C   UNL     1      -5.608  14.339  22.786  0.00  0.00    +0.000 C 
ATOM     30  O   UNL     1      -5.958  14.550  23.938  0.00  0.00    +0.000 OA
BRANCH  29  31
ATOM     31  O   UNL     1      -6.396  13.774  21.827  0.00  0.00    +0.000 OA
BRANCH  31  33
ATOM     32  C   UNL     1      -7.556  11.679  21.374  0.00  0.00    +0.000 C 
ATOM     33  C   UNL     1      -7.348  12.827  22.342  0.00  0.00    +0.000 C 
ENDBRANCH  31  33
ENDBRANCH  29  31
ENDBRANCH   1  29
BRANCH   7  34
ATOM     34  O   UNL     1      -0.404  18.631  27.810  0.00  0.00    +0.000 OA
ATOM     35  C   UNL     1       0.771  18.077  28.389  0.00  0.00    +0.000 C 
ENDBRANCH   7  34
TORSDOF 4
ENDMDL
MODEL 9
REMARK VINA RESULT:      -6.3      3.471      4.935
REMARK  Name = 
REMARK  7 active torsions:
REMARK  status: ('A' for Active; 'I' for Inactive)
REMARK    1  A    between atoms: C_1  and  C_2
REMARK    2  A    between atoms: C_2  and  O_3
REMARK    3  A    between atoms: O_3  and  C_4
REMARK    4  A    between atoms: C_4  and  C_6
REMARK    5  A    between atoms: C_12  and  O_13
REMARK    6  A    between atoms: O_13  and  C_14
REMARK    7  A    between atoms: C_33  and  C_34
REMARK                            x       y       z     vdW  Elec       q    Type
REMARK                         _______ _______ _______ _____ _____    ______ ____
ROOT
ATOM      1  C   UNL     1      -0.673  12.970  20.685  0.00  0.00    +0.000 C 
ATOM      2  C   UNL     1      -1.336  13.666  21.901  0.00  0.00    +0.000 C 
ATOM      3  C   UNL     1      -1.802  12.944  23.144  0.00  0.00    +0.000 C 
ATOM      4  O   UNL     1      -2.394  13.892  24.058  0.00  0.00    +0.000 OA
ATOM      5  C   UNL     1      -1.577  14.949  24.379  0.00  0.00    +0.000 A 
ATOM      6  C   UNL     1      -1.782  15.541  25.625  0.00  0.00    +0.000 A 
ATOM      7  C   UNL     1      -0.934  16.555  26.067  0.00  0.00    +0.000 A 
ATOM      8  C   UNL     1       0.120  16.973  25.254  0.00  0.00    +0.000 A 
ATOM      9  C   UNL     1       0.313  16.403  23.997  0.00  0.00    +0.000 A 
ATOM     10  C   UNL     1      -0.557  15.411  23.528  0.00  0.00    +0.000 A 
ATOM     11  C   UNL     1      -0.268  14.664  22.277  0.00  0.00    +0.000 C 
ATOM     12  N   UNL     1      -0.042  15.245  20.962  0.00  0.00    +0.000 N 
ATOM     13  C   UNL     1      -0.018  16.572  20.644  0.00  0.00    +0.000 C 
ATOM     14  O   UNL     1      -0.454  17.492  21.310  0.00  0.00    +0.000 OA
ATOM     15  C   UNL     1       0.606  16.896  19.346  0.00  0.00    +0.000 A 
ATOM     16  C   UNL     1      -0.123  17.665  18.445  0.00  0.00    +0.000 A 
ATOM     17  C   UNL     1       0.449  17.957  17.218  0.00  0.00    +0.000 A 
ATOM     18  F   UNL     1      -0.301  18.523  16.262  0.00  0.00    +0.000 F 
ATOM     19  C   UNL     1       1.776  17.617  16.963  0.00  0.00    +0.000 A 
ATOM     20  F   UNL     1       2.325  17.922  15.779  0.00  0.00    +0.000 F 
ATOM     21  C   UNL     1       2.514  16.867  17.876  0.00  0.00    +0.000 A 
ATOM     22  C   UNL     1       1.876  16.383  19.018  0.00  0.00    +0.000 A 
ATOM     23  N   UNL     1       2.445  15.244  19.638  0.00  0.00    +0.000 N 
ATOM     24  C   UNL     1       1.752  14.103  20.043  0.00  0.00    +0.000 C 
ATOM     25  O   UNL     1       2.409  13.113  20.353  0.00  0.00    +0.000 OA
ATOM     26  C   UNL     1       0.186  14.122  20.019  0.00  0.00    +0.000 C 
ATOM     27  C   UNL     1      -0.341  14.248  18.570  0.00  0.00    +0.000 C 
ATOM     28  H   UNL     1       3.438  15.070  19.511  0.00  0.00    +0.000 HD
ENDROOT
BRANCH   1  29
ATOM     29  C   UNL     1       0.088  11.712  20.993  0.00  0.00    +0.000 C 
ATOM     30  O   UNL     1       0.567  11.446  22.086  0.00  0.00    +0.000 OA
BRANCH  29  31
ATOM     31  O   UNL     1       0.086  10.870  19.921  0.00  0.00    +0.000 OA
BRANCH  31  33
ATOM     32  C   UNL     1      -1.104  10.266  17.882  0.00  0.00    +0.000 C 
ATOM     33  C   UNL     1      -1.214  10.676  19.337  0.00  0.00    +0.000 C 
ENDBRANCH  31  33
ENDBRANCH  29  31
ENDBRANCH   1  29
BRANCH   7  34
ATOM     34  O   UNL     1      -1.009  17.200  27.271  0.00  0.00    +0.000 OA
ATOM     35  C   UNL     1       0.226  17.521  27.899  0.00  0.00    +0.000 C 
ENDBRANCH   7  34
TORSDOF 4
ENDMDL
