MODEL 1
REMARK VINA RESULT:      -6.5      0.000      0.000
REMARK  Name = 
REMARK  5 active torsions:
REMARK  status: ('A' for Active; 'I' for Inactive)
REMARK    1  A    between atoms: C_1  and  C_2
REMARK    2  A    between atoms: C_2  and  N_3
REMARK    3  A    between atoms: C_6  and  N_7
REMARK    4  A    between atoms: C_8  and  C_9
REMARK    5  A    between atoms: C_9  and  C_11
REMARK                            x       y       z     vdW  Elec       q    Type
REMARK                         _______ _______ _______ _____ _____    ______ ____
ROOT
ATOM      1  N   UNL     1       6.405   5.806  15.320  0.00  0.00    +0.000 N 
ATOM      2  C   UNL     1       5.771   5.548  16.489  0.00  0.00    +0.000 A 
ATOM      3  N   UNL     1       6.075   4.568  17.304  0.00  0.00    +0.000 NA
ATOM      4  C   UNL     1       5.196   4.530  18.348  0.00  0.00    +0.000 A 
ATOM      5  C   UNL     1       4.217   5.503  18.370  0.00  0.00    +0.000 A 
ATOM      6  S   UNL     1       4.435   6.507  16.981  0.00  0.00    +0.000 S 
ATOM      7  H   UNL     1       5.916   6.436  14.692  0.00  0.00    +0.000 HD
ENDROOT
BRANCH   4   8
ATOM      8  N   UNL     1       5.385   3.517  19.206  0.00  0.00    +0.000 N 
ATOM      9  H   UNL     1       4.695   3.396  19.941  0.00  0.00    +0.000 HD
ATOM     10  H   UNL     1       6.291   3.117  19.421  0.00  0.00    +0.000 HD
ENDBRANCH   4   8
BRANCH   1  12
ATOM     11  C   UNL     1       6.074   3.934  13.794  0.00  0.00    +0.000 C 
ATOM     12  C   UNL     1       7.064   4.685  14.667  0.00  0.00    +0.000 C 
ENDBRANCH   1  12
BRANCH   5  13
ATOM     13  C   UNL     1       3.099   5.783  19.256  0.00  0.00    +0.000 C 
ATOM     14  O   UNL     1       2.879   6.911  19.698  0.00  0.00    +0.000 OA
BRANCH  13  15
ATOM     15  C   UNL     1       2.244   4.646  19.584  0.00  0.00    +0.000 A 
ATOM     16  C   UNL     1       1.837   4.147  20.812  0.00  0.00    +0.000 A 
ATOM     17  C   UNL     1       1.048   2.966  20.692  0.00  0.00    +0.000 A 
ATOM     18  C   UNL     1       0.822   2.631  19.377  0.00  0.00    +0.000 A 
ATOM     19  S   UNL     1       1.562   3.729  18.298  0.00  0.00    +0.000 S 
ENDBRANCH  13  15
ENDBRANCH   5  13
TORSDOF 4
ENDMDL
MODEL 2
REMARK VINA RESULT:      -6.5      0.841      1.040
REMARK  Name = 
REMARK  5 active torsions:
REMARK  status: ('A' for Active; 'I' for Inactive)
REMARK    1  A    between atoms: C_1  and  C_2
REMARK    2  A    between atoms: C_2  and  N_3
REMARK    3  A    between atoms: C_6  and  N_7
REMARK    4  A    between atoms: C_8  and  C_9
REMARK    5  A    between atoms: C_9  and  C_11
REMARK                            x       y       z     vdW  Elec       q    Type
REMARK                         _______ _______ _______ _____ _____    ______ ____
ROOT
ATOM      1  N   UNL     1       6.408   5.808  15.313  0.00  0.00    +0.000 N 
ATOM      2  C   UNL     1       5.776   5.542  16.481  0.00  0.00    +0.000 A 
ATOM      3  N   UNL     1       6.088   4.564  17.295  0.00  0.00    +0.000 NA
ATOM      4  C   UNL     1       5.210   4.517  18.340  0.00  0.00    +0.000 A 
ATOM      5  C   UNL     1       4.223   5.481  18.363  0.00  0.00    +0.000 A 
ATOM      6  S   UNL     1       4.432   6.490  16.976  0.00  0.00    +0.000 S 
ATOM      7  H   UNL     1       5.913   6.435  14.686  0.00  0.00    +0.000 HD
ENDROOT
BRANCH   4   8
ATOM      8  N   UNL     1       5.408   3.504  19.195  0.00  0.00    +0.000 N 
ATOM      9  H   UNL     1       6.357   3.152  19.287  0.00  0.00    +0.000 HD
ATOM     10  H   UNL     1       4.693   2.835  19.459  0.00  0.00    +0.000 HD
ENDBRANCH   4   8
BRANCH   1  12
ATOM     11  C   UNL     1       6.098   3.952  13.763  0.00  0.00    +0.000 C 
ATOM     12  C   UNL     1       7.076   4.694  14.658  0.00  0.00    +0.000 C 
ENDBRANCH   1  12
BRANCH   5  13
ATOM     13  C   UNL     1       3.103   5.750  19.250  0.00  0.00    +0.000 C 
ATOM     14  O   UNL     1       2.857   6.880  19.673  0.00  0.00    +0.000 OA
BRANCH  13  15
ATOM     15  C   UNL     1       2.277   4.599  19.602  0.00  0.00    +0.000 A 
ATOM     16  C   UNL     1       1.467   3.794  18.815  0.00  0.00    +0.000 A 
ATOM     17  C   UNL     1       0.771   2.807  19.572  0.00  0.00    +0.000 A 
ATOM     18  C   UNL     1       1.115   2.843  20.904  0.00  0.00    +0.000 A 
ATOM     19  S   UNL     1       2.262   4.064  21.237  0.00  0.00    +0.000 S 
ENDBRANCH  13  15
ENDBRANCH   5  13
TORSDOF 4
ENDMDL
MODEL 3
REMARK VINA RESULT:      -6.5      2.469      2.995
REMARK  Name = 
REMARK  5 active torsions:
REMARK  status: ('A' for Active; 'I' for Inactive)
REMARK    1  A    between atoms: C_1  and  C_2
REMARK    2  A    between atoms: C_2  and  N_3
REMARK    3  A    between atoms: C_6  and  N_7
REMARK    4  A    between atoms: C_8  and  C_9
REMARK    5  A    between atoms: C_9  and  C_11
REMARK                            x       y       z     vdW  Elec       q    Type
REMARK                         _______ _______ _______ _____ _____    ______ ____
ROOT
ATOM      1  N   UNL     1       6.868   6.343  16.649  0.00  0.00    +0.000 N 
ATOM      2  C   UNL     1       5.606   5.995  16.995  0.00  0.00    +0.000 A 
ATOM      3  N   UNL     1       4.713   6.815  17.491  0.00  0.00    +0.000 NA
ATOM      4  C   UNL     1       3.571   6.137  17.810  0.00  0.00    +0.000 A 
ATOM      5  C   UNL     1       3.556   4.786  17.534  0.00  0.00    +0.000 A 
ATOM      6  S   UNL     1       5.081   4.368  16.839  0.00  0.00    +0.000 S 
ATOM      7  H   UNL     1       7.507   5.568  16.508  0.00  0.00    +0.000 HD
ENDROOT
BRANCH   4   8
ATOM      8  N   UNL     1       2.618   6.883  18.388  0.00  0.00    +0.000 N 
ATOM      9  H   UNL     1       2.416   7.786  17.968  0.00  0.00    +0.000 HD
ATOM     10  H   UNL     1       2.359   6.815  19.365  0.00  0.00    +0.000 HD
ENDBRANCH   4   8
BRANCH   1  12
ATOM     11  C   UNL     1       8.120   7.048  18.618  0.00  0.00    +0.000 C 
ATOM     12  C   UNL     1       7.444   7.491  17.332  0.00  0.00    +0.000 C 
ENDBRANCH   1  12
BRANCH   5  13
ATOM     13  C   UNL     1       2.582   3.727  17.749  0.00  0.00    +0.000 C 
ATOM     14  O   UNL     1       2.033   3.141  16.815  0.00  0.00    +0.000 OA
BRANCH  13  15
ATOM     15  C   UNL     1       2.298   3.393  19.142  0.00  0.00    +0.000 A 
ATOM     16  C   UNL     1       1.129   3.512  19.879  0.00  0.00    +0.000 A 
ATOM     17  C   UNL     1       1.298   3.132  21.241  0.00  0.00    +0.000 A 
ATOM     18  C   UNL     1       2.571   2.674  21.494  0.00  0.00    +0.000 A 
ATOM     19  S   UNL     1       3.555   2.712  20.098  0.00  0.00    +0.000 S 
ENDBRANCH  13  15
ENDBRANCH   5  13
TORSDOF 4
ENDMDL
MODEL 4
REMARK VINA RESULT:      -6.4      1.864      2.313
REMARK  Name = 
REMARK  5 active torsions:
REMARK  status: ('A' for Active; 'I' for Inactive)
REMARK    1  A    between atoms: C_1  and  C_2
REMARK    2  A    between atoms: C_2  and  N_3
REMARK    3  A    between atoms: C_6  and  N_7
REMARK    4  A    between atoms: C_8  and  C_9
REMARK    5  A    between atoms: C_9  and  C_11
REMARK                            x       y       z     vdW  Elec       q    Type
REMARK                         _______ _______ _______ _____ _____    ______ ____
ROOT
ATOM      1  N   UNL     1       5.363   4.389  14.020  0.00  0.00    +0.000 N 
ATOM      2  C   UNL     1       5.769   4.505  15.307  0.00  0.00    +0.000 A 
ATOM      3  N   UNL     1       7.000   4.335  15.720  0.00  0.00    +0.000 NA
ATOM      4  C   UNL     1       7.063   4.441  17.081  0.00  0.00    +0.000 A 
ATOM      5  C   UNL     1       5.881   4.726  17.734  0.00  0.00    +0.000 A 
ATOM      6  S   UNL     1       4.635   4.858  16.546  0.00  0.00    +0.000 S 
ATOM      7  H   UNL     1       4.360   4.313  13.888  0.00  0.00    +0.000 HD
ENDROOT
BRANCH   4   8
ATOM      8  N   UNL     1       8.275   4.216  17.607  0.00  0.00    +0.000 N 
ATOM      9  H   UNL     1       8.359   4.266  18.619  0.00  0.00    +0.000 HD
ATOM     10  H   UNL     1       9.146   4.371  17.113  0.00  0.00    +0.000 HD
ENDBRANCH   4   8
BRANCH   1  12
ATOM     11  C   UNL     1       5.341   3.109  11.946  0.00  0.00    +0.000 C 
ATOM     12  C   UNL     1       6.158   3.531  13.154  0.00  0.00    +0.000 C 
ENDBRANCH   1  12
BRANCH   5  13
ATOM     13  C   UNL     1       5.519   4.877  19.134  0.00  0.00    +0.000 C 
ATOM     14  O   UNL     1       6.325   5.258  19.984  0.00  0.00    +0.000 OA
BRANCH  13  15
ATOM     15  C   UNL     1       4.135   4.557  19.473  0.00  0.00    +0.000 A 
ATOM     16  C   UNL     1       3.045   5.387  19.693  0.00  0.00    +0.000 A 
ATOM     17  C   UNL     1       1.874   4.667  20.071  0.00  0.00    +0.000 A 
ATOM     18  C   UNL     1       2.083   3.307  20.068  0.00  0.00    +0.000 A 
ATOM     19  S   UNL     1       3.682   2.905  19.621  0.00  0.00    +0.000 S 
ENDBRANCH  13  15
ENDBRANCH   5  13
TORSDOF 4
ENDMDL
MODEL 5
REMARK VINA RESULT:      -6.3      2.100      2.662
REMARK  Name = 
REMARK  5 active torsions:
REMARK  status: ('A' for Active; 'I' for Inactive)
REMARK    1  A    between atoms: C_1  and  C_2
REMARK    2  A    between atoms: C_2  and  N_3
REMARK    3  A    between atoms: C_6  and  N_7
REMARK    4  A    between atoms: C_8  and  C_9
REMARK    5  A    between atoms: C_9  and  C_11
REMARK                            x       y       z     vdW  Elec       q    Type
REMARK                         _______ _______ _______ _____ _____    ______ ____
ROOT
ATOM      1  N   UNL     1       5.411   3.985  13.946  0.00  0.00    +0.000 N 
ATOM      2  C   UNL     1       5.684   4.569  15.137  0.00  0.00    +0.000 A 
ATOM      3  N   UNL     1       6.579   5.508  15.321  0.00  0.00    +0.000 NA
ATOM      4  C   UNL     1       6.669   5.824  16.647  0.00  0.00    +0.000 A 
ATOM      5  C   UNL     1       5.821   5.152  17.503  0.00  0.00    +0.000 A 
ATOM      6  S   UNL     1       4.868   4.062  16.560  0.00  0.00    +0.000 S 
ATOM      7  H   UNL     1       4.876   3.124  13.999  0.00  0.00    +0.000 HD
ENDROOT
BRANCH   4   8
ATOM      8  N   UNL     1       7.608   6.732  16.946  0.00  0.00    +0.000 N 
ATOM      9  H   UNL     1       8.173   7.086  16.178  0.00  0.00    +0.000 HD
ATOM     10  H   UNL     1       8.048   6.816  17.855  0.00  0.00    +0.000 HD
ENDBRANCH   4   8
BRANCH   1  12
ATOM     11  C   UNL     1       6.201   2.925  11.898  0.00  0.00    +0.000 C 
ATOM     12  C   UNL     1       6.476   3.981  12.955  0.00  0.00    +0.000 C 
ENDBRANCH   1  12
BRANCH   5  13
ATOM     13  C   UNL     1       5.632   5.163  18.944  0.00  0.00    +0.000 C 
ATOM     14  O   UNL     1       6.572   5.292  19.729  0.00  0.00    +0.000 OA
BRANCH  13  15
ATOM     15  C   UNL     1       4.255   5.021  19.409  0.00  0.00    +0.000 A 
ATOM     16  C   UNL     1       3.228   5.951  19.487  0.00  0.00    +0.000 A 
ATOM     17  C   UNL     1       2.044   5.414  20.069  0.00  0.00    +0.000 A 
ATOM     18  C   UNL     1       2.175   4.075  20.362  0.00  0.00    +0.000 A 
ATOM     19  S   UNL     1       3.720   3.477  19.943  0.00  0.00    +0.000 S 
ENDBRANCH  13  15
ENDBRANCH   5  13
TORSDOF 4
ENDMDL
MODEL 6
REMARK VINA RESULT:      -6.3      1.923      2.309
REMARK  Name = 
REMARK  5 active torsions:
REMARK  status: ('A' for Active; 'I' for Inactive)
REMARK    1  A    between atoms: C_1  and  C_2
REMARK    2  A    between atoms: C_2  and  N_3
REMARK    3  A    between atoms: C_6  and  N_7
REMARK    4  A    between atoms: C_8  and  C_9
REMARK    5  A    between atoms: C_9  and  C_11
REMARK                            x       y       z     vdW  Elec       q    Type
REMARK                         _______ _______ _______ _____ _____    ______ ____
ROOT
ATOM      1  N   UNL     1       5.613   4.556  13.946  0.00  0.00    +0.000 N 
ATOM      2  C   UNL     1       5.934   4.587  15.262  0.00  0.00    +0.000 A 
ATOM      3  N   UNL     1       7.146   4.447  15.739  0.00  0.00    +0.000 NA
ATOM      4  C   UNL     1       7.120   4.443  17.105  0.00  0.00    +0.000 A 
ATOM      5  C   UNL     1       5.888   4.611  17.701  0.00  0.00    +0.000 A 
ATOM      6  S   UNL     1       4.709   4.776  16.450  0.00  0.00    +0.000 S 
ATOM      7  H   UNL     1       4.625   4.439  13.744  0.00  0.00    +0.000 HD
ENDROOT
BRANCH   4   8
ATOM      8  N   UNL     1       8.310   4.239  17.688  0.00  0.00    +0.000 N 
ATOM      9  H   UNL     1       8.962   5.018  17.699  0.00  0.00    +0.000 HD
ATOM     10  H   UNL     1       8.751   3.330  17.776  0.00  0.00    +0.000 HD
ENDBRANCH   4   8
BRANCH   1  12
ATOM     11  C   UNL     1       5.700   2.962  12.105  0.00  0.00    +0.000 C 
ATOM     12  C   UNL     1       6.506   3.816  13.068  0.00  0.00    +0.000 C 
ENDBRANCH   1  12
BRANCH   5  13
ATOM     13  C   UNL     1       5.434   4.626  19.083  0.00  0.00    +0.000 C 
ATOM     14  O   UNL     1       6.144   5.033  20.003  0.00  0.00    +0.000 OA
BRANCH  13  15
ATOM     15  C   UNL     1       4.077   4.137  19.315  0.00  0.00    +0.000 A 
ATOM     16  C   UNL     1       3.560   2.851  19.264  0.00  0.00    +0.000 A 
ATOM     17  C   UNL     1       2.154   2.815  19.492  0.00  0.00    +0.000 A 
ATOM     18  C   UNL     1       1.646   4.063  19.772  0.00  0.00    +0.000 A 
ATOM     19  S   UNL     1       2.857   5.268  19.752  0.00  0.00    +0.000 S 
ENDBRANCH  13  15
ENDBRANCH   5  13
TORSDOF 4
ENDMDL
MODEL 7
REMARK VINA RESULT:      -6.2      2.163      2.645
REMARK  Name = 
REMARK  5 active torsions:
REMARK  status: ('A' for Active; 'I' for Inactive)
REMARK    1  A    between atoms: C_1  and  C_2
REMARK    2  A    between atoms: C_2  and  N_3
REMARK    3  A    between atoms: C_6  and  N_7
REMARK    4  A    between atoms: C_8  and  C_9
REMARK    5  A    between atoms: C_9  and  C_11
REMARK                            x       y       z     vdW  Elec       q    Type
REMARK                         _______ _______ _______ _____ _____    ______ ____
ROOT
ATOM      1  N   UNL     1       5.571   4.006  13.890  0.00  0.00    +0.000 N 
ATOM      2  C   UNL     1       5.808   4.576  15.096  0.00  0.00    +0.000 A 
ATOM      3  N   UNL     1       6.662   5.546  15.309  0.00  0.00    +0.000 NA
ATOM      4  C   UNL     1       6.726   5.838  16.642  0.00  0.00    +0.000 A 
ATOM      5  C   UNL     1       5.895   5.115  17.474  0.00  0.00    +0.000 A 
ATOM      6  S   UNL     1       4.997   4.008  16.498  0.00  0.00    +0.000 S 
ATOM      7  H   UNL     1       5.070   3.124  13.919  0.00  0.00    +0.000 HD
ENDROOT
BRANCH   4   8
ATOM      8  N   UNL     1       7.625   6.777  16.970  0.00  0.00    +0.000 N 
ATOM      9  H   UNL     1       8.576   6.467  17.150  0.00  0.00    +0.000 HD
ATOM     10  H   UNL     1       7.389   7.660  17.406  0.00  0.00    +0.000 HD
ENDBRANCH   4   8
BRANCH   1  12
ATOM     11  C   UNL     1       6.454   2.985  11.860  0.00  0.00    +0.000 C 
ATOM     12  C   UNL     1       6.646   4.064  12.912  0.00  0.00    +0.000 C 
ENDBRANCH   1  12
BRANCH   5  13
ATOM     13  C   UNL     1       5.690   5.090  18.913  0.00  0.00    +0.000 C 
ATOM     14  O   UNL     1       6.593   5.349  19.710  0.00  0.00    +0.000 OA
BRANCH  13  15
ATOM     15  C   UNL     1       4.343   4.746  19.360  0.00  0.00    +0.000 A 
ATOM     16  C   UNL     1       3.825   3.547  19.826  0.00  0.00    +0.000 A 
ATOM     17  C   UNL     1       2.428   3.620  20.097  0.00  0.00    +0.000 A 
ATOM     18  C   UNL     1       1.930   4.887  19.891  0.00  0.00    +0.000 A 
ATOM     19  S   UNL     1       3.139   5.974  19.368  0.00  0.00    +0.000 S 
ENDBRANCH  13  15
ENDBRANCH   5  13
TORSDOF 4
ENDMDL
MODEL 8
REMARK VINA RESULT:      -6.2      2.108      2.250
REMARK  Name = 
REMARK  5 active torsions:
REMARK  status: ('A' for Active; 'I' for Inactive)
REMARK    1  A    between atoms: C_1  and  C_2
REMARK    2  A    between atoms: C_2  and  N_3
REMARK    3  A    between atoms: C_6  and  N_7
REMARK    4  A    between atoms: C_8  and  C_9
REMARK    5  A    between atoms: C_9  and  C_11
REMARK                            x       y       z     vdW  Elec       q    Type
REMARK                         _______ _______ _______ _____ _____    ______ ____
ROOT
ATOM      1  N   UNL     1       5.318   4.421  14.768  0.00  0.00    +0.000 N 
ATOM      2  C   UNL     1       5.380   4.289  16.115  0.00  0.00    +0.000 A 
ATOM      3  N   UNL     1       6.340   4.764  16.869  0.00  0.00    +0.000 NA
ATOM      4  C   UNL     1       6.151   4.391  18.169  0.00  0.00    +0.000 A 
ATOM      5  C   UNL     1       5.021   3.647  18.441  0.00  0.00    +0.000 A 
ATOM      6  S   UNL     1       4.167   3.414  16.958  0.00  0.00    +0.000 S 
ATOM      7  H   UNL     1       4.655   3.808  14.303  0.00  0.00    +0.000 HD
ENDROOT
BRANCH   4   8
ATOM      8  N   UNL     1       7.121   4.774  19.011  0.00  0.00    +0.000 N 
ATOM      9  H   UNL     1       6.840   5.291  19.839  0.00  0.00    +0.000 HD
ATOM     10  H   UNL     1       8.084   4.930  18.734  0.00  0.00    +0.000 HD
ENDBRANCH   4   8
BRANCH   1  12
ATOM     11  C   UNL     1       6.566   3.816  12.763  0.00  0.00    +0.000 C 
ATOM     12  C   UNL     1       6.580   4.598  14.066  0.00  0.00    +0.000 C 
ENDBRANCH   1  12
BRANCH   5  13
ATOM     13  C   UNL     1       4.487   3.037  19.648  0.00  0.00    +0.000 C 
ATOM     14  O   UNL     1       5.152   2.272  20.347  0.00  0.00    +0.000 OA
BRANCH  13  15
ATOM     15  C   UNL     1       3.112   3.392  19.988  0.00  0.00    +0.000 A 
ATOM     16  C   UNL     1       2.010   2.590  20.248  0.00  0.00    +0.000 A 
ATOM     17  C   UNL     1       0.823   3.344  20.475  0.00  0.00    +0.000 A 
ATOM     18  C   UNL     1       1.061   4.700  20.446  0.00  0.00    +0.000 A 
ATOM     19  S   UNL     1       2.703   5.055  20.139  0.00  0.00    +0.000 S 
ENDBRANCH  13  15
ENDBRANCH   5  13
TORSDOF 4
ENDMDL
MODEL 9
REMARK VINA RESULT:      -6.2      1.897      2.083
REMARK  Name = 
REMARK  5 active torsions:
REMARK  status: ('A' for Active; 'I' for Inactive)
REMARK    1  A    between atoms: C_1  and  C_2
REMARK    2  A    between atoms: C_2  and  N_3
REMARK    3  A    between atoms: C_6  and  N_7
REMARK    4  A    between atoms: C_8  and  C_9
REMARK    5  A    between atoms: C_9  and  C_11
REMARK                            x       y       z     vdW  Elec       q    Type
REMARK                         _______ _______ _______ _____ _____    ______ ____
ROOT
ATOM      1  N   UNL     1       5.376   4.756  14.684  0.00  0.00    +0.000 N 
ATOM      2  C   UNL     1       5.465   4.562  16.021  0.00  0.00    +0.000 A 
ATOM      3  N   UNL     1       6.500   4.885  16.756  0.00  0.00    +0.000 NA
ATOM      4  C   UNL     1       6.309   4.484  18.048  0.00  0.00    +0.000 A 
ATOM      5  C   UNL     1       5.106   3.871  18.334  0.00  0.00    +0.000 A 
ATOM      6  S   UNL     1       4.183   3.804  16.875  0.00  0.00    +0.000 S 
ATOM      7  H   UNL     1       4.629   4.247  14.222  0.00  0.00    +0.000 HD
ENDROOT
BRANCH   4   8
ATOM      8  N   UNL     1       7.345   4.712  18.867  0.00  0.00    +0.000 N 
ATOM      9  H   UNL     1       7.713   5.659  18.897  0.00  0.00    +0.000 HD
ATOM     10  H   UNL     1       8.009   4.003  19.154  0.00  0.00    +0.000 HD
ENDBRANCH   4   8
BRANCH   1  12
ATOM     11  C   UNL     1       6.584   3.836  12.777  0.00  0.00    +0.000 C 
ATOM     12  C   UNL     1       6.626   4.809  13.942  0.00  0.00    +0.000 C 
ENDBRANCH   1  12
BRANCH   5  13
ATOM     13  C   UNL     1       4.541   3.278  19.536  0.00  0.00    +0.000 C 
ATOM     14  O   UNL     1       5.174   2.491  20.240  0.00  0.00    +0.000 OA
BRANCH  13  15
ATOM     15  C   UNL     1       3.177   3.681  19.865  0.00  0.00    +0.000 A 
ATOM     16  C   UNL     1       2.683   4.881  20.355  0.00  0.00    +0.000 A 
ATOM     17  C   UNL     1       1.281   4.836  20.606  0.00  0.00    +0.000 A 
ATOM     18  C   UNL     1       0.731   3.628  20.243  0.00  0.00    +0.000 A 
ATOM     19  S   UNL     1       1.902   2.555  19.612  0.00  0.00    +0.000 S 
ENDBRANCH  13  15
ENDBRANCH   5  13
TORSDOF 4
ENDMDL
