MODEL 1
REMARK VINA RESULT:      -8.6      0.000      0.000
REMARK  Name = 
REMARK  5 active torsions:
REMARK  status: ('A' for Active; 'I' for Inactive)
REMARK    1  A    between atoms: C_2  and  O_3
REMARK    2  A    between atoms: C_2  and  C_4
REMARK    3  A    between atoms: C_13  and  O_14
REMARK    4  A    between atoms: O_14  and  C_15
REMARK    5  A    between atoms: C_15  and  C_16
REMARK                            x       y       z     vdW  Elec       q    Type
REMARK                         _______ _______ _______ _____ _____    ______ ____
ROOT
ATOM      1  C   UNL     1       2.660   3.005  19.860  0.00  0.00    +0.000 A 
ATOM      2  C   UNL     1       2.030   2.513  18.720  0.00  0.00    +0.000 A 
ATOM      3  C   UNL     1       2.650   2.711  17.503  0.00  0.00    +0.000 A 
ATOM      4  N   UNL     1       3.818   3.378  17.355  0.00  0.00    +0.000 NA
ATOM      5  C   UNL     1       4.432   3.840  18.475  0.00  0.00    +0.000 A 
ATOM      6  N   UNL     1       5.657   4.581  18.365  0.00  0.00    +0.000 N 
ATOM      7  N   UNL     1       6.313   4.976  19.504  0.00  0.00    +0.000 NA
ATOM      8  C   UNL     1       7.405   5.595  19.066  0.00  0.00    +0.000 A 
ATOM      9  C   UNL     1       7.467   5.651  17.670  0.00  0.00    +0.000 A 
ATOM     10  C   UNL     1       6.330   5.010  17.217  0.00  0.00    +0.000 A 
ATOM     11  C   UNL     1       3.897   3.640  19.748  0.00  0.00    +0.000 A 
ENDROOT
BRANCH   1  13
ATOM     12  O   UNL     1       2.614   2.552  22.187  0.00  0.00    +0.000 OA
ATOM     13  C   UNL     1       1.993   2.814  21.169  0.00  0.00    +0.000 C 
BRANCH  13  14
ATOM     14  O   UNL     1       0.646   2.893  21.126  0.00  0.00    +0.000 OA
ATOM     15  H   UNL     1       0.171   2.391  21.818  0.00  0.00    +0.000 HD
ENDBRANCH  13  14
ENDBRANCH   1  13
BRANCH  10  16
ATOM     16  O   UNL     1       5.847   4.810  15.981  0.00  0.00    +0.000 OA
BRANCH  16  17
ATOM     17  C   UNL     1       6.828   4.748  14.942  0.00  0.00    +0.000 C 
BRANCH  17  18
ATOM     18  C   UNL     1       6.414   3.752  13.871  0.00  0.00    +0.000 C 
ATOM     19  C   UNL     1       4.915   3.629  13.509  0.00  0.00    +0.000 C 
ATOM     20  C   UNL     1       5.370   3.294  12.068  0.00  0.00    +0.000 C 
ATOM     21  F   UNL     1       4.598   3.788  11.073  0.00  0.00    +0.000 F 
ATOM     22  F   UNL     1       5.547   1.978  11.810  0.00  0.00    +0.000 F 
ATOM     23  C   UNL     1       6.665   4.086  12.378  0.00  0.00    +0.000 C 
ENDBRANCH  17  18
ENDBRANCH  16  17
ENDBRANCH  10  16
TORSDOF 5
ENDMDL
MODEL 2
REMARK VINA RESULT:      -8.4      0.423      1.007
REMARK  Name = 
REMARK  5 active torsions:
REMARK  status: ('A' for Active; 'I' for Inactive)
REMARK    1  A    between atoms: C_2  and  O_3
REMARK    2  A    between atoms: C_2  and  C_4
REMARK    3  A    between atoms: C_13  and  O_14
REMARK    4  A    between atoms: O_14  and  C_15
REMARK    5  A    between atoms: C_15  and  C_16
REMARK                            x       y       z     vdW  Elec       q    Type
REMARK                         _______ _______ _______ _____ _____    ______ ____
ROOT
ATOM      1  C   UNL     1       2.668   2.924  19.842  0.00  0.00    +0.000 A 
ATOM      2  C   UNL     1       2.256   2.129  18.776  0.00  0.00    +0.000 A 
ATOM      3  C   UNL     1       3.043   2.108  17.643  0.00  0.00    +0.000 A 
ATOM      4  N   UNL     1       4.175   2.835  17.502  0.00  0.00    +0.000 NA
ATOM      5  C   UNL     1       4.578   3.595  18.553  0.00  0.00    +0.000 A 
ATOM      6  N   UNL     1       5.756   4.408  18.440  0.00  0.00    +0.000 N 
ATOM      7  N   UNL     1       6.201   5.111  19.531  0.00  0.00    +0.000 NA
ATOM      8  C   UNL     1       7.306   5.719  19.112  0.00  0.00    +0.000 A 
ATOM      9  C   UNL     1       7.581   5.466  17.764  0.00  0.00    +0.000 A 
ATOM     10  C   UNL     1       6.570   4.631  17.325  0.00  0.00    +0.000 A 
ATOM     11  C   UNL     1       3.865   3.635  19.753  0.00  0.00    +0.000 A 
ENDROOT
BRANCH   1  13
ATOM     12  O   UNL     1       2.281   2.855  22.180  0.00  0.00    +0.000 OA
ATOM     13  C   UNL     1       1.820   2.968  21.056  0.00  0.00    +0.000 C 
BRANCH  13  14
ATOM     14  O   UNL     1       0.498   3.081  20.809  0.00  0.00    +0.000 OA
ATOM     15  H   UNL     1       0.256   3.650  20.051  0.00  0.00    +0.000 HD
ENDBRANCH  13  14
ENDBRANCH   1  13
BRANCH  10  16
ATOM     16  O   UNL     1       6.299   4.112  16.118  0.00  0.00    +0.000 OA
BRANCH  16  17
ATOM     17  C   UNL     1       6.926   4.769  15.013  0.00  0.00    +0.000 C 
BRANCH  17  18
ATOM     18  C   UNL     1       6.158   4.510  13.727  0.00  0.00    +0.000 C 
ATOM     19  C   UNL     1       6.890   3.827  12.548  0.00  0.00    +0.000 C 
ATOM     20  C   UNL     1       5.531   3.188  12.175  0.00  0.00    +0.000 C 
ATOM     21  F   UNL     1       5.582   1.920  11.705  0.00  0.00    +0.000 F 
ATOM     22  F   UNL     1       4.778   3.898  11.304  0.00  0.00    +0.000 F 
ATOM     23  C   UNL     1       5.139   3.343  13.666  0.00  0.00    +0.000 C 
ENDBRANCH  17  18
ENDBRANCH  16  17
ENDBRANCH  10  16
TORSDOF 5
ENDMDL
MODEL 3
REMARK VINA RESULT:      -7.8      3.651      6.854
REMARK  Name = 
REMARK  5 active torsions:
REMARK  status: ('A' for Active; 'I' for Inactive)
REMARK    1  A    between atoms: C_2  and  O_3
REMARK    2  A    between atoms: C_2  and  C_4
REMARK    3  A    between atoms: C_13  and  O_14
REMARK    4  A    between atoms: O_14  and  C_15
REMARK    5  A    between atoms: C_15  and  C_16
REMARK                            x       y       z     vdW  Elec       q    Type
REMARK                         _______ _______ _______ _____ _____    ______ ____
ROOT
ATOM      1  C   UNL     1       6.386   4.833  15.989  0.00  0.00    +0.000 A 
ATOM      2  C   UNL     1       6.965   5.805  16.800  0.00  0.00    +0.000 A 
ATOM      3  C   UNL     1       6.433   5.996  18.060  0.00  0.00    +0.000 A 
ATOM      4  N   UNL     1       5.368   5.311  18.537  0.00  0.00    +0.000 NA
ATOM      5  C   UNL     1       4.820   4.354  17.744  0.00  0.00    +0.000 A 
ATOM      6  N   UNL     1       3.670   3.624  18.194  0.00  0.00    +0.000 N 
ATOM      7  N   UNL     1       3.170   2.604  17.422  0.00  0.00    +0.000 NA
ATOM      8  C   UNL     1       2.149   2.120  18.123  0.00  0.00    +0.000 A 
ATOM      9  C   UNL     1       1.940   2.817  19.317  0.00  0.00    +0.000 A 
ATOM     10  C   UNL     1       2.912   3.798  19.356  0.00  0.00    +0.000 A 
ATOM     11  C   UNL     1       5.327   4.065  16.476  0.00  0.00    +0.000 A 
ENDROOT
BRANCH   1  13
ATOM     12  O   UNL     1       7.759   5.393  14.139  0.00  0.00    +0.000 OA
ATOM     13  C   UNL     1       6.937   4.634  14.628  0.00  0.00    +0.000 C 
BRANCH  13  14
ATOM     14  O   UNL     1       6.409   3.587  13.960  0.00  0.00    +0.000 OA
ATOM     15  H   UNL     1       6.649   3.525  13.014  0.00  0.00    +0.000 HD
ENDBRANCH  13  14
ENDBRANCH   1  13
BRANCH  10  16
ATOM     16  O   UNL     1       3.157   4.781  20.236  0.00  0.00    +0.000 OA
BRANCH  16  17
ATOM     17  C   UNL     1       2.126   5.764  20.361  0.00  0.00    +0.000 C 
BRANCH  17  18
ATOM     18  C   UNL     1       2.482   7.019  19.580  0.00  0.00    +0.000 C 
ATOM     19  C   UNL     1       2.144   7.077  18.071  0.00  0.00    +0.000 C 
ATOM     20  C   UNL     1       1.933   8.599  18.257  0.00  0.00    +0.000 C 
ATOM     21  F   UNL     1       0.929   9.150  17.538  0.00  0.00    +0.000 F 
ATOM     22  F   UNL     1       3.030   9.364  18.047  0.00  0.00    +0.000 F 
ATOM     23  C   UNL     1       1.616   8.294  19.742  0.00  0.00    +0.000 C 
ENDBRANCH  17  18
ENDBRANCH  16  17
ENDBRANCH  10  16
TORSDOF 5
ENDMDL
MODEL 4
REMARK VINA RESULT:      -7.8      4.610      6.062
REMARK  Name = 
REMARK  5 active torsions:
REMARK  status: ('A' for Active; 'I' for Inactive)
REMARK    1  A    between atoms: C_2  and  O_3
REMARK    2  A    between atoms: C_2  and  C_4
REMARK    3  A    between atoms: C_13  and  O_14
REMARK    4  A    between atoms: O_14  and  C_15
REMARK    5  A    between atoms: C_15  and  C_16
REMARK                            x       y       z     vdW  Elec       q    Type
REMARK                         _______ _______ _______ _____ _____    ______ ____
ROOT
ATOM      1  C   UNL     1       2.347   8.551  18.259  0.00  0.00    +0.000 A 
ATOM      2  C   UNL     1       1.913   7.989  19.456  0.00  0.00    +0.000 A 
ATOM      3  C   UNL     1       2.399   6.743  19.799  0.00  0.00    +0.000 A 
ATOM      4  N   UNL     1       3.250   6.030  19.027  0.00  0.00    +0.000 NA
ATOM      5  C   UNL     1       3.680   6.594  17.868  0.00  0.00    +0.000 A 
ATOM      6  N   UNL     1       4.558   5.863  16.999  0.00  0.00    +0.000 N 
ATOM      7  N   UNL     1       5.052   6.468  15.871  0.00  0.00    +0.000 NA
ATOM      8  C   UNL     1       5.844   5.554  15.317  0.00  0.00    +0.000 A 
ATOM      9  C   UNL     1       5.856   4.351  16.031  0.00  0.00    +0.000 A 
ATOM     10  C   UNL     1       5.013   4.545  17.109  0.00  0.00    +0.000 A 
ATOM     11  C   UNL     1       3.275   7.869  17.470  0.00  0.00    +0.000 A 
ENDROOT
BRANCH   1  13
ATOM     12  O   UNL     1       2.541  10.843  17.686  0.00  0.00    +0.000 OA
ATOM     13  C   UNL     1       1.816   9.878  17.872  0.00  0.00    +0.000 C 
BRANCH  13  14
ATOM     14  O   UNL     1       0.470   9.943  17.805  0.00  0.00    +0.000 OA
ATOM     15  H   UNL     1       0.096  10.069  16.911  0.00  0.00    +0.000 HD
ENDBRANCH  13  14
ENDBRANCH   1  13
BRANCH  10  16
ATOM     16  O   UNL     1       4.610   3.722  18.090  0.00  0.00    +0.000 OA
BRANCH  16  17
ATOM     17  C   UNL     1       4.032   2.488  17.656  0.00  0.00    +0.000 C 
BRANCH  17  18
ATOM     18  C   UNL     1       2.615   2.343  18.188  0.00  0.00    +0.000 C 
ATOM     19  C   UNL     1       2.368   2.514  19.705  0.00  0.00    +0.000 C 
ATOM     20  C   UNL     1       0.979   3.087  19.336  0.00  0.00    +0.000 C 
ATOM     21  F   UNL     1       0.532   4.104  20.108  0.00  0.00    +0.000 F 
ATOM     22  F   UNL     1      -0.022   2.178  19.269  0.00  0.00    +0.000 F 
ATOM     23  C   UNL     1       1.595   3.491  17.973  0.00  0.00    +0.000 C 
ENDBRANCH  17  18
ENDBRANCH  16  17
ENDBRANCH  10  16
TORSDOF 5
ENDMDL
MODEL 5
REMARK VINA RESULT:      -7.6      0.907      1.036
REMARK  Name = 
REMARK  5 active torsions:
REMARK  status: ('A' for Active; 'I' for Inactive)
REMARK    1  A    between atoms: C_2  and  O_3
REMARK    2  A    between atoms: C_2  and  C_4
REMARK    3  A    between atoms: C_13  and  O_14
REMARK    4  A    between atoms: O_14  and  C_15
REMARK    5  A    between atoms: C_15  and  C_16
REMARK                            x       y       z     vdW  Elec       q    Type
REMARK                         _______ _______ _______ _____ _____    ______ ____
ROOT
ATOM      1  C   UNL     1       2.570   4.037  19.430  0.00  0.00    +0.000 A 
ATOM      2  C   UNL     1       1.945   3.459  18.328  0.00  0.00    +0.000 A 
ATOM      3  C   UNL     1       2.613   3.480  17.121  0.00  0.00    +0.000 A 
ATOM      4  N   UNL     1       3.826   4.052  16.944  0.00  0.00    +0.000 NA
ATOM      5  C   UNL     1       4.435   4.600  18.027  0.00  0.00    +0.000 A 
ATOM      6  N   UNL     1       5.708   5.246  17.883  0.00  0.00    +0.000 N 
ATOM      7  N   UNL     1       6.354   5.726  18.995  0.00  0.00    +0.000 NA
ATOM      8  C   UNL     1       7.497   6.223  18.532  0.00  0.00    +0.000 A 
ATOM      9  C   UNL     1       7.605   6.117  17.142  0.00  0.00    +0.000 A 
ATOM     10  C   UNL     1       6.442   5.500  16.720  0.00  0.00    +0.000 A 
ATOM     11  C   UNL     1       3.849   4.578  19.294  0.00  0.00    +0.000 A 
ENDROOT
BRANCH   1  13
ATOM     12  O   UNL     1       0.922   3.281  20.957  0.00  0.00    +0.000 OA
ATOM     13  C   UNL     1       1.853   4.037  20.726  0.00  0.00    +0.000 C 
BRANCH  13  14
ATOM     14  O   UNL     1       2.272   4.979  21.596  0.00  0.00    +0.000 OA
ATOM     15  H   UNL     1       1.744   5.801  21.617  0.00  0.00    +0.000 HD
ENDBRANCH  13  14
ENDBRANCH   1  13
BRANCH  10  16
ATOM     16  O   UNL     1       5.985   5.192  15.497  0.00  0.00    +0.000 OA
BRANCH  16  17
ATOM     17  C   UNL     1       6.991   4.902  14.522  0.00  0.00    +0.000 C 
BRANCH  17  18
ATOM     18  C   UNL     1       6.521   3.812  13.572  0.00  0.00    +0.000 C 
ATOM     19  C   UNL     1       5.001   3.599  13.378  0.00  0.00    +0.000 C 
ATOM     20  C   UNL     1       5.325   3.176  11.926  0.00  0.00    +0.000 C 
ATOM     21  F   UNL     1       4.432   3.559  10.983  0.00  0.00    +0.000 F 
ATOM     22  F   UNL     1       5.539   1.851  11.744  0.00  0.00    +0.000 F 
ATOM     23  C   UNL     1       6.604   4.041  12.042  0.00  0.00    +0.000 C 
ENDBRANCH  17  18
ENDBRANCH  16  17
ENDBRANCH  10  16
TORSDOF 5
ENDMDL
MODEL 6
REMARK VINA RESULT:      -7.6      4.752      6.343
REMARK  Name = 
REMARK  5 active torsions:
REMARK  status: ('A' for Active; 'I' for Inactive)
REMARK    1  A    between atoms: C_2  and  O_3
REMARK    2  A    between atoms: C_2  and  C_4
REMARK    3  A    between atoms: C_13  and  O_14
REMARK    4  A    between atoms: O_14  and  C_15
REMARK    5  A    between atoms: C_15  and  C_16
REMARK                            x       y       z     vdW  Elec       q    Type
REMARK                         _______ _______ _______ _____ _____    ______ ____
ROOT
ATOM      1  C   UNL     1       2.161   8.423  18.365  0.00  0.00    +0.000 A 
ATOM      2  C   UNL     1       1.832   7.866  19.598  0.00  0.00    +0.000 A 
ATOM      3  C   UNL     1       2.420   6.666  19.943  0.00  0.00    +0.000 A 
ATOM      4  N   UNL     1       3.275   5.992  19.141  0.00  0.00    +0.000 NA
ATOM      5  C   UNL     1       3.602   6.551  17.947  0.00  0.00    +0.000 A 
ATOM      6  N   UNL     1       4.481   5.857  17.049  0.00  0.00    +0.000 N 
ATOM      7  N   UNL     1       4.870   6.463  15.880  0.00  0.00    +0.000 NA
ATOM      8  C   UNL     1       5.692   5.590  15.305  0.00  0.00    +0.000 A 
ATOM      9  C   UNL     1       5.825   4.411  16.045  0.00  0.00    +0.000 A 
ATOM     10  C   UNL     1       5.031   4.577  17.164  0.00  0.00    +0.000 A 
ATOM     11  C   UNL     1       3.089   7.784  17.543  0.00  0.00    +0.000 A 
ENDROOT
BRANCH   1  13
ATOM     12  O   UNL     1       0.322   9.898  18.113  0.00  0.00    +0.000 OA
ATOM     13  C   UNL     1       1.519   9.701  17.977  0.00  0.00    +0.000 C 
BRANCH  13  14
ATOM     14  O   UNL     1       2.354  10.595  17.409  0.00  0.00    +0.000 OA
ATOM     15  H   UNL     1       2.128  10.864  16.497  0.00  0.00    +0.000 HD
ENDBRANCH  13  14
ENDBRANCH   1  13
BRANCH  10  16
ATOM     16  O   UNL     1       4.740   3.756  18.185  0.00  0.00    +0.000 OA
BRANCH  16  17
ATOM     17  C   UNL     1       3.882   2.657  17.863  0.00  0.00    +0.000 C 
BRANCH  17  18
ATOM     18  C   UNL     1       2.965   2.331  19.031  0.00  0.00    +0.000 C 
ATOM     19  C   UNL     1       3.232   3.006  20.398  0.00  0.00    +0.000 C 
ATOM     20  C   UNL     1       1.703   2.961  20.630  0.00  0.00    +0.000 C 
ATOM     21  F   UNL     1       1.170   4.025  21.276  0.00  0.00    +0.000 F 
ATOM     22  F   UNL     1       1.246   1.853  21.260  0.00  0.00    +0.000 F 
ATOM     23  C   UNL     1       1.548   2.956  19.089  0.00  0.00    +0.000 C 
ENDBRANCH  17  18
ENDBRANCH  16  17
ENDBRANCH  10  16
TORSDOF 5
ENDMDL
MODEL 7
REMARK VINA RESULT:      -7.5      0.977      1.335
REMARK  Name = 
REMARK  5 active torsions:
REMARK  status: ('A' for Active; 'I' for Inactive)
REMARK    1  A    between atoms: C_2  and  O_3
REMARK    2  A    between atoms: C_2  and  C_4
REMARK    3  A    between atoms: C_13  and  O_14
REMARK    4  A    between atoms: O_14  and  C_15
REMARK    5  A    between atoms: C_15  and  C_16
REMARK                            x       y       z     vdW  Elec       q    Type
REMARK                         _______ _______ _______ _____ _____    ______ ____
ROOT
ATOM      1  C   UNL     1       2.549   3.189  19.851  0.00  0.00    +0.000 A 
ATOM      2  C   UNL     1       1.732   2.947  18.750  0.00  0.00    +0.000 A 
ATOM      3  C   UNL     1       2.202   3.312  17.504  0.00  0.00    +0.000 A 
ATOM      4  N   UNL     1       3.396   3.912  17.299  0.00  0.00    +0.000 NA
ATOM      5  C   UNL     1       4.193   4.130  18.377  0.00  0.00    +0.000 A 
ATOM      6  N   UNL     1       5.456   4.793  18.213  0.00  0.00    +0.000 N 
ATOM      7  N   UNL     1       6.290   4.937  19.294  0.00  0.00    +0.000 NA
ATOM      8  C   UNL     1       7.367   5.547  18.808  0.00  0.00    +0.000 A 
ATOM      9  C   UNL     1       7.250   5.841  17.446  0.00  0.00    +0.000 A 
ATOM     10  C   UNL     1       6.008   5.368  17.065  0.00  0.00    +0.000 A 
ATOM     11  C   UNL     1       3.814   3.748  19.666  0.00  0.00    +0.000 A 
ENDROOT
BRANCH   1  13
ATOM     12  O   UNL     1       2.790   2.483  22.101  0.00  0.00    +0.000 OA
ATOM     13  C   UNL     1       2.045   2.820  21.194  0.00  0.00    +0.000 C 
BRANCH  13  14
ATOM     14  O   UNL     1       0.701   2.828  21.308  0.00  0.00    +0.000 OA
ATOM     15  H   UNL     1       0.324   2.160  21.913  0.00  0.00    +0.000 HD
ENDBRANCH  13  14
ENDBRANCH   1  13
BRANCH  10  16
ATOM     16  O   UNL     1       5.351   5.419  15.896  0.00  0.00    +0.000 OA
BRANCH  16  17
ATOM     17  C   UNL     1       5.390   4.220  15.118  0.00  0.00    +0.000 C 
BRANCH  17  18
ATOM     18  C   UNL     1       5.951   4.497  13.732  0.00  0.00    +0.000 C 
ATOM     19  C   UNL     1       7.444   4.194  13.461  0.00  0.00    +0.000 C 
ATOM     20  C   UNL     1       7.031   3.860  12.007  0.00  0.00    +0.000 C 
ATOM     21  F   UNL     1       7.693   2.833  11.424  0.00  0.00    +0.000 F 
ATOM     22  F   UNL     1       7.078   4.898  11.140  0.00  0.00    +0.000 F 
ATOM     23  C   UNL     1       5.625   3.529  12.566  0.00  0.00    +0.000 C 
ENDBRANCH  17  18
ENDBRANCH  16  17
ENDBRANCH  10  16
TORSDOF 5
ENDMDL
MODEL 8
REMARK VINA RESULT:      -7.5      4.399      5.472
REMARK  Name = 
REMARK  5 active torsions:
REMARK  status: ('A' for Active; 'I' for Inactive)
REMARK    1  A    between atoms: C_2  and  O_3
REMARK    2  A    between atoms: C_2  and  C_4
REMARK    3  A    between atoms: C_13  and  O_14
REMARK    4  A    between atoms: O_14  and  C_15
REMARK    5  A    between atoms: C_15  and  C_16
REMARK                            x       y       z     vdW  Elec       q    Type
REMARK                         _______ _______ _______ _____ _____    ______ ____
ROOT
ATOM      1  C   UNL     1       1.502   8.146  20.644  0.00  0.00    +0.000 A 
ATOM      2  C   UNL     1       1.662   8.786  19.418  0.00  0.00    +0.000 A 
ATOM      3  C   UNL     1       2.113   8.035  18.351  0.00  0.00    +0.000 A 
ATOM      4  N   UNL     1       2.432   6.724  18.438  0.00  0.00    +0.000 NA
ATOM      5  C   UNL     1       2.257   6.104  19.635  0.00  0.00    +0.000 A 
ATOM      6  N   UNL     1       2.611   4.721  19.784  0.00  0.00    +0.000 N 
ATOM      7  N   UNL     1       2.357   4.082  20.971  0.00  0.00    +0.000 NA
ATOM      8  C   UNL     1       2.762   2.831  20.773  0.00  0.00    +0.000 A 
ATOM      9  C   UNL     1       3.309   2.638  19.501  0.00  0.00    +0.000 A 
ATOM     10  C   UNL     1       3.226   3.864  18.866  0.00  0.00    +0.000 A 
ATOM     11  C   UNL     1       1.760   6.779  20.751  0.00  0.00    +0.000 A 
ENDROOT
BRANCH   1  13
ATOM     12  O   UNL     1      -0.125   9.300  21.926  0.00  0.00    +0.000 OA
ATOM     13  C   UNL     1       1.037   8.948  21.800  0.00  0.00    +0.000 C 
BRANCH  13  14
ATOM     14  O   UNL     1       2.013   9.305  22.660  0.00  0.00    +0.000 OA
ATOM     15  H   UNL     1       1.758   9.958  23.342  0.00  0.00    +0.000 HD
ENDBRANCH  13  14
ENDBRANCH   1  13
BRANCH  10  16
ATOM     16  O   UNL     1       3.640   4.276  17.658  0.00  0.00    +0.000 OA
BRANCH  16  17
ATOM     17  C   UNL     1       4.950   3.847  17.279  0.00  0.00    +0.000 C 
BRANCH  17  18
ATOM     18  C   UNL     1       6.011   4.711  17.941  0.00  0.00    +0.000 C 
ATOM     19  C   UNL     1       7.373   4.893  17.230  0.00  0.00    +0.000 C 
ATOM     20  C   UNL     1       7.422   6.308  17.855  0.00  0.00    +0.000 C 
ATOM     21  F   UNL     1       7.958   7.280  17.081  0.00  0.00    +0.000 F 
ATOM     22  F   UNL     1       8.034   6.386  19.060  0.00  0.00    +0.000 F 
ATOM     23  C   UNL     1       5.875   6.255  17.904  0.00  0.00    +0.000 C 
ENDBRANCH  17  18
ENDBRANCH  16  17
ENDBRANCH  10  16
TORSDOF 5
ENDMDL
MODEL 9
REMARK VINA RESULT:      -7.4      4.327      5.347
REMARK  Name = 
REMARK  5 active torsions:
REMARK  status: ('A' for Active; 'I' for Inactive)
REMARK    1  A    between atoms: C_2  and  O_3
REMARK    2  A    between atoms: C_2  and  C_4
REMARK    3  A    between atoms: C_13  and  O_14
REMARK    4  A    between atoms: O_14  and  C_15
REMARK    5  A    between atoms: C_15  and  C_16
REMARK                            x       y       z     vdW  Elec       q    Type
REMARK                         _______ _______ _______ _____ _____    ______ ____
ROOT
ATOM      1  C   UNL     1       1.484   8.075  20.589  0.00  0.00    +0.000 A 
ATOM      2  C   UNL     1       1.648   8.772  19.395  0.00  0.00    +0.000 A 
ATOM      3  C   UNL     1       2.121   8.077  18.300  0.00  0.00    +0.000 A 
ATOM      4  N   UNL     1       2.457   6.767  18.331  0.00  0.00    +0.000 NA
ATOM      5  C   UNL     1       2.278   6.092  19.496  0.00  0.00    +0.000 A 
ATOM      6  N   UNL     1       2.650   4.708  19.586  0.00  0.00    +0.000 N 
ATOM      7  N   UNL     1       2.392   4.012  20.740  0.00  0.00    +0.000 NA
ATOM      8  C   UNL     1       2.817   2.777  20.491  0.00  0.00    +0.000 A 
ATOM      9  C   UNL     1       3.380   2.650  19.217  0.00  0.00    +0.000 A 
ATOM     10  C   UNL     1       3.287   3.901  18.638  0.00  0.00    +0.000 A 
ATOM     11  C   UNL     1       1.760   6.708  20.636  0.00  0.00    +0.000 A 
ENDROOT
BRANCH   1  13
ATOM     12  O   UNL     1       1.752   9.391  22.542  0.00  0.00    +0.000 OA
ATOM     13  C   UNL     1       0.996   8.817  21.774  0.00  0.00    +0.000 C 
BRANCH  13  14
ATOM     14  O   UNL     1      -0.339   8.752  21.964  0.00  0.00    +0.000 OA
ATOM     15  H   UNL     1      -0.886   9.166  21.267  0.00  0.00    +0.000 HD
ENDBRANCH  13  14
ENDBRANCH   1  13
BRANCH  10  16
ATOM     16  O   UNL     1       3.707   4.374  17.454  0.00  0.00    +0.000 OA
BRANCH  16  17
ATOM     17  C   UNL     1       4.983   3.895  17.021  0.00  0.00    +0.000 C 
BRANCH  17  18
ATOM     18  C   UNL     1       5.994   5.030  16.971  0.00  0.00    +0.000 C 
ATOM     19  C   UNL     1       5.965   6.102  18.086  0.00  0.00    +0.000 C 
ATOM     20  C   UNL     1       7.498   6.217  17.906  0.00  0.00    +0.000 C 
ATOM     21  F   UNL     1       8.214   6.420  19.037  0.00  0.00    +0.000 F 
ATOM     22  F   UNL     1       7.906   7.149  17.013  0.00  0.00    +0.000 F 
ATOM     23  C   UNL     1       7.466   4.763  17.375  0.00  0.00    +0.000 C 
ENDBRANCH  17  18
ENDBRANCH  16  17
ENDBRANCH  10  16
TORSDOF 5
ENDMDL
