MODEL 1
REMARK VINA RESULT:      -8.9      0.000      0.000
REMARK  Name = 
REMARK  6 active torsions:
REMARK  status: ('A' for Active; 'I' for Inactive)
REMARK    1  A    between atoms: C_2  and  C_25
REMARK    2  A    between atoms: N_3  and  C_4
REMARK    3  A    between atoms: C_7  and  O_8
REMARK    4  A    between atoms: O_8  and  C_9
REMARK    5  A    between atoms: C_11  and  C_12
REMARK    6  A    between atoms: C_17  and  C_18
REMARK                            x       y       z     vdW  Elec       q    Type
REMARK                         _______ _______ _______ _____ _____    ______ ____
ROOT
ATOM      1  C   UNL     1       0.576   9.677  19.606  0.00  0.00    +0.000 A 
ATOM      2  C   UNL     1       0.814   9.936  18.254  0.00  0.00    +0.000 A 
ATOM      3  C   UNL     1       1.721   9.159  17.534  0.00  0.00    +0.000 A 
ATOM      4  C   UNL     1       2.397   8.115  18.157  0.00  0.00    +0.000 A 
ATOM      5  C   UNL     1       2.117   7.807  19.490  0.00  0.00    +0.000 A 
ATOM      6  C   UNL     1       1.242   8.613  20.222  0.00  0.00    +0.000 A 
ENDROOT
BRANCH   1   9
ATOM      7  O   UNL     1       1.165  11.966  21.362  0.00  0.00    +0.000 OA
ATOM      8  C   UNL     1       0.042  11.490  21.228  0.00  0.00    +0.000 C 
ATOM      9  N   UNL     1      -0.301  10.439  20.400  0.00  0.00    +0.000 N 
ATOM     10  H   UNL     1      -1.288  10.222  20.307  0.00  0.00    +0.000 HD
BRANCH   8  11
ATOM     11  C   UNL     1      -1.058  12.094  22.024  0.00  0.00    +0.000 A 
ATOM     12  C   UNL     1      -1.463  13.399  21.705  0.00  0.00    +0.000 A 
ATOM     13  C   UNL     1      -2.493  14.011  22.417  0.00  0.00    +0.000 A 
ATOM     14  C   UNL     1      -3.132  13.323  23.448  0.00  0.00    +0.000 A 
ATOM     15  C   UNL     1      -2.739  12.025  23.768  0.00  0.00    +0.000 A 
ATOM     16  C   UNL     1      -1.704  11.419  23.061  0.00  0.00    +0.000 A 
ATOM     17  F   UNL     1      -1.349  10.170  23.399  0.00  0.00    +0.000 F 
ENDBRANCH   8  11
ENDBRANCH   1   9
BRANCH   4  18
ATOM     18  O   UNL     1       3.280   7.423  17.364  0.00  0.00    +0.000 OA
BRANCH  18  19
ATOM     19  C   UNL     1       3.916   6.308  17.858  0.00  0.00    +0.000 A 
ATOM     20  C   UNL     1       5.279   6.451  18.103  0.00  0.00    +0.000 A 
ATOM     21  C   UNL     1       6.041   5.368  18.563  0.00  0.00    +0.000 A 
ATOM     22  C   UNL     1       5.404   4.133  18.781  0.00  0.00    +0.000 A 
ATOM     23  C   UNL     1       4.023   3.986  18.572  0.00  0.00    +0.000 A 
ATOM     24  C   UNL     1       3.279   5.097  18.146  0.00  0.00    +0.000 A 
BRANCH  21  25
ATOM     25  C   UNL     1       7.526   5.508  18.795  0.00  0.00    +0.000 C 
ATOM     26  F   UNL     1       8.056   6.649  18.275  0.00  0.00    +0.000 F 
ATOM     27  F   UNL     1       7.846   5.514  20.118  0.00  0.00    +0.000 F 
ATOM     28  F   UNL     1       8.227   4.480  18.244  0.00  0.00    +0.000 F 
ENDBRANCH  21  25
BRANCH  23  29
ATOM     29  C   UNL     1       3.331   2.655  18.737  0.00  0.00    +0.000 C 
ATOM     30  F   UNL     1       4.137   1.681  19.242  0.00  0.00    +0.000 F 
ATOM     31  F   UNL     1       2.255   2.721  19.565  0.00  0.00    +0.000 F 
ATOM     32  F   UNL     1       2.863   2.171  17.551  0.00  0.00    +0.000 F 
ENDBRANCH  23  29
ENDBRANCH  18  19
ENDBRANCH   4  18
TORSDOF 6
ENDMDL
MODEL 2
REMARK VINA RESULT:      -8.8      2.404      3.189
REMARK  Name = 
REMARK  6 active torsions:
REMARK  status: ('A' for Active; 'I' for Inactive)
REMARK    1  A    between atoms: C_2  and  C_25
REMARK    2  A    between atoms: N_3  and  C_4
REMARK    3  A    between atoms: C_7  and  O_8
REMARK    4  A    between atoms: O_8  and  C_9
REMARK    5  A    between atoms: C_11  and  C_12
REMARK    6  A    between atoms: C_17  and  C_18
REMARK                            x       y       z     vdW  Elec       q    Type
REMARK                         _______ _______ _______ _____ _____    ______ ____
ROOT
ATOM      1  C   UNL     1       1.633   8.239  20.083  0.00  0.00    +0.000 A 
ATOM      2  C   UNL     1       2.127   8.212  18.777  0.00  0.00    +0.000 A 
ATOM      3  C   UNL     1       2.586   7.019  18.218  0.00  0.00    +0.000 A 
ATOM      4  C   UNL     1       2.553   5.842  18.959  0.00  0.00    +0.000 A 
ATOM      5  C   UNL     1       2.000   5.847  20.241  0.00  0.00    +0.000 A 
ATOM      6  C   UNL     1       1.582   7.049  20.816  0.00  0.00    +0.000 A 
ENDROOT
BRANCH   1   9
ATOM      7  O   UNL     1      -0.784   9.835  19.553  0.00  0.00    +0.000 OA
ATOM      8  C   UNL     1       0.047  10.132  20.406  0.00  0.00    +0.000 C 
ATOM      9  N   UNL     1       1.182   9.411  20.720  0.00  0.00    +0.000 N 
ATOM     10  H   UNL     1       1.723   9.718  21.522  0.00  0.00    +0.000 HD
BRANCH   8  11
ATOM     11  C   UNL     1      -0.180  11.381  21.177  0.00  0.00    +0.000 A 
ATOM     12  C   UNL     1      -1.119  11.350  22.220  0.00  0.00    +0.000 A 
ATOM     13  C   UNL     1      -1.367  12.493  22.978  0.00  0.00    +0.000 A 
ATOM     14  C   UNL     1      -0.674  13.673  22.709  0.00  0.00    +0.000 A 
ATOM     15  C   UNL     1       0.263  13.711  21.679  0.00  0.00    +0.000 A 
ATOM     16  C   UNL     1       0.503  12.570  20.917  0.00  0.00    +0.000 A 
ATOM     17  F   UNL     1       1.409  12.645  19.930  0.00  0.00    +0.000 F 
ENDBRANCH   8  11
ENDBRANCH   1   9
BRANCH   4  18
ATOM     18  O   UNL     1       3.044   4.728  18.323  0.00  0.00    +0.000 OA
BRANCH  18  19
ATOM     19  C   UNL     1       4.293   4.763  17.746  0.00  0.00    +0.000 A 
ATOM     20  C   UNL     1       5.338   5.120  18.594  0.00  0.00    +0.000 A 
ATOM     21  C   UNL     1       6.647   5.234  18.105  0.00  0.00    +0.000 A 
ATOM     22  C   UNL     1       6.890   4.974  16.744  0.00  0.00    +0.000 A 
ATOM     23  C   UNL     1       5.851   4.579  15.888  0.00  0.00    +0.000 A 
ATOM     24  C   UNL     1       4.557   4.438  16.412  0.00  0.00    +0.000 A 
BRANCH  21  25
ATOM     25  C   UNL     1       7.778   5.657  19.012  0.00  0.00    +0.000 C 
ATOM     26  F   UNL     1       8.830   4.794  19.016  0.00  0.00    +0.000 F 
ATOM     27  F   UNL     1       8.289   6.872  18.672  0.00  0.00    +0.000 F 
ATOM     28  F   UNL     1       7.376   5.768  20.308  0.00  0.00    +0.000 F 
ENDBRANCH  21  25
BRANCH  23  29
ATOM     29  C   UNL     1       6.076   4.360  14.412  0.00  0.00    +0.000 C 
ATOM     30  F   UNL     1       6.390   3.074  14.094  0.00  0.00    +0.000 F 
ATOM     31  F   UNL     1       4.988   4.679  13.661  0.00  0.00    +0.000 F 
ATOM     32  F   UNL     1       7.100   5.122  13.931  0.00  0.00    +0.000 F 
ENDBRANCH  23  29
ENDBRANCH  18  19
ENDBRANCH   4  18
TORSDOF 6
ENDMDL
MODEL 3
REMARK VINA RESULT:      -8.8      2.167      3.516
REMARK  Name = 
REMARK  6 active torsions:
REMARK  status: ('A' for Active; 'I' for Inactive)
REMARK    1  A    between atoms: C_2  and  C_25
REMARK    2  A    between atoms: N_3  and  C_4
REMARK    3  A    between atoms: C_7  and  O_8
REMARK    4  A    between atoms: O_8  and  C_9
REMARK    5  A    between atoms: C_11  and  C_12
REMARK    6  A    between atoms: C_17  and  C_18
REMARK                            x       y       z     vdW  Elec       q    Type
REMARK                         _______ _______ _______ _____ _____    ______ ____
ROOT
ATOM      1  C   UNL     1       1.384   8.604  20.140  0.00  0.00    +0.000 A 
ATOM      2  C   UNL     1       1.509   7.351  20.744  0.00  0.00    +0.000 A 
ATOM      3  C   UNL     1       2.056   6.278  20.041  0.00  0.00    +0.000 A 
ATOM      4  C   UNL     1       2.484   6.448  18.728  0.00  0.00    +0.000 A 
ATOM      5  C   UNL     1       2.424   7.712  18.139  0.00  0.00    +0.000 A 
ATOM      6  C   UNL     1       1.836   8.775  18.828  0.00  0.00    +0.000 A 
ENDROOT
BRANCH   1   9
ATOM      7  O   UNL     1      -1.089  10.064  19.489  0.00  0.00    +0.000 OA
ATOM      8  C   UNL     1      -0.341  10.381  20.408  0.00  0.00    +0.000 C 
ATOM      9  N   UNL     1       0.815   9.722  20.779  0.00  0.00    +0.000 N 
ATOM     10  H   UNL     1       1.277  10.033  21.627  0.00  0.00    +0.000 HD
BRANCH   8  11
ATOM     11  C   UNL     1      -0.701  11.585  21.201  0.00  0.00    +0.000 A 
ATOM     12  C   UNL     1      -0.640  12.835  20.566  0.00  0.00    +0.000 A 
ATOM     13  C   UNL     1      -0.972  13.996  21.263  0.00  0.00    +0.000 A 
ATOM     14  C   UNL     1      -1.376  13.918  22.595  0.00  0.00    +0.000 A 
ATOM     15  C   UNL     1      -1.444  12.680  23.232  0.00  0.00    +0.000 A 
ATOM     16  C   UNL     1      -1.104  11.523  22.536  0.00  0.00    +0.000 A 
ATOM     17  F   UNL     1      -1.176  10.349  23.182  0.00  0.00    +0.000 F 
ENDBRANCH   8  11
ENDBRANCH   1   9
BRANCH   4  18
ATOM     18  O   UNL     1       2.990   5.324  18.120  0.00  0.00    +0.000 OA
BRANCH  18  19
ATOM     19  C   UNL     1       4.306   5.296  17.720  0.00  0.00    +0.000 A 
ATOM     20  C   UNL     1       4.523   4.955  16.388  0.00  0.00    +0.000 A 
ATOM     21  C   UNL     1       5.826   4.849  15.880  0.00  0.00    +0.000 A 
ATOM     22  C   UNL     1       6.912   5.099  16.738  0.00  0.00    +0.000 A 
ATOM     23  C   UNL     1       6.705   5.478  18.073  0.00  0.00    +0.000 A 
ATOM     24  C   UNL     1       5.390   5.612  18.545  0.00  0.00    +0.000 A 
BRANCH  21  25
ATOM     25  C   UNL     1       6.067   4.444  14.446  0.00  0.00    +0.000 C 
ATOM     26  F   UNL     1       4.949   4.479  13.671  0.00  0.00    +0.000 F 
ATOM     27  F   UNL     1       6.979   5.244  13.828  0.00  0.00    +0.000 F 
ATOM     28  F   UNL     1       6.553   3.176  14.349  0.00  0.00    +0.000 F 
ENDBRANCH  21  25
BRANCH  23  29
ATOM     29  C   UNL     1       7.855   5.687  19.028  0.00  0.00    +0.000 C 
ATOM     30  F   UNL     1       8.496   6.875  18.857  0.00  0.00    +0.000 F 
ATOM     31  F   UNL     1       7.469   5.651  20.332  0.00  0.00    +0.000 F 
ATOM     32  F   UNL     1       8.813   4.725  18.895  0.00  0.00    +0.000 F 
ENDBRANCH  23  29
ENDBRANCH  18  19
ENDBRANCH   4  18
TORSDOF 6
ENDMDL
MODEL 4
REMARK VINA RESULT:      -8.8      2.108      3.490
REMARK  Name = 
REMARK  6 active torsions:
REMARK  status: ('A' for Active; 'I' for Inactive)
REMARK    1  A    between atoms: C_2  and  C_25
REMARK    2  A    between atoms: N_3  and  C_4
REMARK    3  A    between atoms: C_7  and  O_8
REMARK    4  A    between atoms: O_8  and  C_9
REMARK    5  A    between atoms: C_11  and  C_12
REMARK    6  A    between atoms: C_17  and  C_18
REMARK                            x       y       z     vdW  Elec       q    Type
REMARK                         _______ _______ _______ _____ _____    ______ ____
ROOT
ATOM      1  C   UNL     1       1.249   8.610  19.884  0.00  0.00    +0.000 A 
ATOM      2  C   UNL     1       1.388   7.424  20.608  0.00  0.00    +0.000 A 
ATOM      3  C   UNL     1       2.004   6.312  20.034  0.00  0.00    +0.000 A 
ATOM      4  C   UNL     1       2.488   6.376  18.731  0.00  0.00    +0.000 A 
ATOM      5  C   UNL     1       2.412   7.576  18.023  0.00  0.00    +0.000 A 
ATOM      6  C   UNL     1       1.757   8.676  18.582  0.00  0.00    +0.000 A 
ENDROOT
BRANCH   1   9
ATOM      7  O   UNL     1       1.486   9.852  22.542  0.00  0.00    +0.000 OA
ATOM      8  C   UNL     1       0.746  10.280  21.662  0.00  0.00    +0.000 C 
ATOM      9  N   UNL     1       0.613   9.759  20.389  0.00  0.00    +0.000 N 
ATOM     10  H   UNL     1       0.044  10.280  19.729  0.00  0.00    +0.000 HD
BRANCH   8  11
ATOM     11  C   UNL     1      -0.088  11.466  21.983  0.00  0.00    +0.000 A 
ATOM     12  C   UNL     1       0.217  12.679  21.347  0.00  0.00    +0.000 A 
ATOM     13  C   UNL     1      -0.536  13.822  21.609  0.00  0.00    +0.000 A 
ATOM     14  C   UNL     1      -1.606  13.762  22.501  0.00  0.00    +0.000 A 
ATOM     15  C   UNL     1      -1.920  12.561  23.135  0.00  0.00    +0.000 A 
ATOM     16  C   UNL     1      -1.160  11.422  22.877  0.00  0.00    +0.000 A 
ATOM     17  F   UNL     1      -1.487  10.284  23.508  0.00  0.00    +0.000 F 
ENDBRANCH   8  11
ENDBRANCH   1   9
BRANCH   4  18
ATOM     18  O   UNL     1       3.060   5.221  18.254  0.00  0.00    +0.000 OA
BRANCH  18  19
ATOM     19  C   UNL     1       4.368   5.230  17.829  0.00  0.00    +0.000 A 
ATOM     20  C   UNL     1       4.568   4.907  16.489  0.00  0.00    +0.000 A 
ATOM     21  C   UNL     1       5.863   4.839  15.956  0.00  0.00    +0.000 A 
ATOM     22  C   UNL     1       6.959   5.109  16.795  0.00  0.00    +0.000 A 
ATOM     23  C   UNL     1       6.768   5.471  18.137  0.00  0.00    +0.000 A 
ATOM     24  C   UNL     1       5.460   5.567  18.635  0.00  0.00    +0.000 A 
BRANCH  21  25
ATOM     25  C   UNL     1       6.086   4.452  14.514  0.00  0.00    +0.000 C 
ATOM     26  F   UNL     1       6.995   5.235  13.871  0.00  0.00    +0.000 F 
ATOM     27  F   UNL     1       6.532   3.173  14.383  0.00  0.00    +0.000 F 
ATOM     28  F   UNL     1       4.940   4.526  13.783  0.00  0.00    +0.000 F 
ENDBRANCH  21  25
BRANCH  23  29
ATOM     29  C   UNL     1       7.931   5.702  19.072  0.00  0.00    +0.000 C 
ATOM     30  F   UNL     1       8.569   6.885  18.865  0.00  0.00    +0.000 F 
ATOM     31  F   UNL     1       7.562   5.695  20.381  0.00  0.00    +0.000 F 
ATOM     32  F   UNL     1       8.887   4.737  18.947  0.00  0.00    +0.000 F 
ENDBRANCH  23  29
ENDBRANCH  18  19
ENDBRANCH   4  18
TORSDOF 6
ENDMDL
MODEL 5
REMARK VINA RESULT:      -8.8      2.386      3.281
REMARK  Name = 
REMARK  6 active torsions:
REMARK  status: ('A' for Active; 'I' for Inactive)
REMARK    1  A    between atoms: C_2  and  C_25
REMARK    2  A    between atoms: N_3  and  C_4
REMARK    3  A    between atoms: C_7  and  O_8
REMARK    4  A    between atoms: O_8  and  C_9
REMARK    5  A    between atoms: C_11  and  C_12
REMARK    6  A    between atoms: C_17  and  C_18
REMARK                            x       y       z     vdW  Elec       q    Type
REMARK                         _______ _______ _______ _____ _____    ______ ____
ROOT
ATOM      1  C   UNL     1       1.583   8.252  20.201  0.00  0.00    +0.000 A 
ATOM      2  C   UNL     1       1.633   6.991  20.799  0.00  0.00    +0.000 A 
ATOM      3  C   UNL     1       2.120   5.891  20.092  0.00  0.00    +0.000 A 
ATOM      4  C   UNL     1       2.563   6.042  18.783  0.00  0.00    +0.000 A 
ATOM      5  C   UNL     1       2.579   7.310  18.199  0.00  0.00    +0.000 A 
ATOM      6  C   UNL     1       2.051   8.403  18.891  0.00  0.00    +0.000 A 
ENDROOT
BRANCH   1   9
ATOM      7  O   UNL     1      -0.708   9.945  19.458  0.00  0.00    +0.000 OA
ATOM      8  C   UNL     1       0.008  10.167  20.429  0.00  0.00    +0.000 C 
ATOM      9  N   UNL     1       1.077   9.397  20.843  0.00  0.00    +0.000 N 
ATOM     10  H   UNL     1       1.513   9.641  21.727  0.00  0.00    +0.000 HD
BRANCH   8  11
ATOM     11  C   UNL     1      -0.293  11.376  21.240  0.00  0.00    +0.000 A 
ATOM     12  C   UNL     1      -1.115  11.225  22.367  0.00  0.00    +0.000 A 
ATOM     13  C   UNL     1      -1.425  12.324  23.165  0.00  0.00    +0.000 A 
ATOM     14  C   UNL     1      -0.911  13.582  22.851  0.00  0.00    +0.000 A 
ATOM     15  C   UNL     1      -0.089  13.740  21.736  0.00  0.00    +0.000 A 
ATOM     16  C   UNL     1       0.213  12.641  20.935  0.00  0.00    +0.000 A 
ATOM     17  F   UNL     1       1.002  12.831  19.868  0.00  0.00    +0.000 F 
ENDBRANCH   8  11
ENDBRANCH   1   9
BRANCH   4  18
ATOM     18  O   UNL     1       3.006   4.895  18.171  0.00  0.00    +0.000 OA
BRANCH  18  19
ATOM     19  C   UNL     1       4.262   4.858  17.611  0.00  0.00    +0.000 A 
ATOM     20  C   UNL     1       5.314   5.172  18.468  0.00  0.00    +0.000 A 
ATOM     21  C   UNL     1       6.633   5.212  17.997  0.00  0.00    +0.000 A 
ATOM     22  C   UNL     1       6.881   4.922  16.643  0.00  0.00    +0.000 A 
ATOM     23  C   UNL     1       5.833   4.569  15.777  0.00  0.00    +0.000 A 
ATOM     24  C   UNL     1       4.527   4.501  16.285  0.00  0.00    +0.000 A 
BRANCH  21  25
ATOM     25  C   UNL     1       7.772   5.588  18.914  0.00  0.00    +0.000 C 
ATOM     26  F   UNL     1       8.810   4.709  18.889  0.00  0.00    +0.000 F 
ATOM     27  F   UNL     1       8.302   6.805  18.610  0.00  0.00    +0.000 F 
ATOM     28  F   UNL     1       7.374   5.666  20.213  0.00  0.00    +0.000 F 
ENDBRANCH  21  25
BRANCH  23  29
ATOM     29  C   UNL     1       6.067   4.318  14.307  0.00  0.00    +0.000 C 
ATOM     30  F   UNL     1       6.965   5.172  13.746  0.00  0.00    +0.000 F 
ATOM     31  F   UNL     1       6.530   3.064  14.055  0.00  0.00    +0.000 F 
ATOM     32  F   UNL     1       4.923   4.449  13.577  0.00  0.00    +0.000 F 
ENDBRANCH  23  29
ENDBRANCH  18  19
ENDBRANCH   4  18
TORSDOF 6
ENDMDL
MODEL 6
REMARK VINA RESULT:      -8.7      2.275      3.693
REMARK  Name = 
REMARK  6 active torsions:
REMARK  status: ('A' for Active; 'I' for Inactive)
REMARK    1  A    between atoms: C_2  and  C_25
REMARK    2  A    between atoms: N_3  and  C_4
REMARK    3  A    between atoms: C_7  and  O_8
REMARK    4  A    between atoms: O_8  and  C_9
REMARK    5  A    between atoms: C_11  and  C_12
REMARK    6  A    between atoms: C_17  and  C_18
REMARK                            x       y       z     vdW  Elec       q    Type
REMARK                         _______ _______ _______ _____ _____    ______ ____
ROOT
ATOM      1  C   UNL     1       1.227   8.467  19.994  0.00  0.00    +0.000 A 
ATOM      2  C   UNL     1       1.334   7.260  20.690  0.00  0.00    +0.000 A 
ATOM      3  C   UNL     1       1.973   6.164  20.110  0.00  0.00    +0.000 A 
ATOM      4  C   UNL     1       2.512   6.264  18.832  0.00  0.00    +0.000 A 
ATOM      5  C   UNL     1       2.467   7.485  18.156  0.00  0.00    +0.000 A 
ATOM      6  C   UNL     1       1.789   8.569  18.718  0.00  0.00    +0.000 A 
ENDROOT
BRANCH   1   9
ATOM      7  O   UNL     1       1.301   9.595  22.713  0.00  0.00    +0.000 OA
ATOM      8  C   UNL     1       0.625  10.067  21.805  0.00  0.00    +0.000 C 
ATOM      9  N   UNL     1       0.570   9.602  20.505  0.00  0.00    +0.000 N 
ATOM     10  H   UNL     1       0.052  10.157  19.833  0.00  0.00    +0.000 HD
BRANCH   8  11
ATOM     11  C   UNL     1      -0.217  11.250  22.121  0.00  0.00    +0.000 A 
ATOM     12  C   UNL     1      -1.319  11.067  22.969  0.00  0.00    +0.000 A 
ATOM     13  C   UNL     1      -2.139  12.143  23.302  0.00  0.00    +0.000 A 
ATOM     14  C   UNL     1      -1.861  13.414  22.799  0.00  0.00    +0.000 A 
ATOM     15  C   UNL     1      -0.765  13.606  21.960  0.00  0.00    +0.000 A 
ATOM     16  C   UNL     1       0.048  12.527  21.622  0.00  0.00    +0.000 A 
ATOM     17  F   UNL     1       1.092  12.748  20.809  0.00  0.00    +0.000 F 
ENDBRANCH   8  11
ENDBRANCH   1   9
BRANCH   4  18
ATOM     18  O   UNL     1       3.103   5.122  18.347  0.00  0.00    +0.000 OA
BRANCH  18  19
ATOM     19  C   UNL     1       4.407   5.159  17.910  0.00  0.00    +0.000 A 
ATOM     20  C   UNL     1       4.600   4.863  16.563  0.00  0.00    +0.000 A 
ATOM     21  C   UNL     1       5.891   4.824  16.018  0.00  0.00    +0.000 A 
ATOM     22  C   UNL     1       6.990   5.096  16.852  0.00  0.00    +0.000 A 
ATOM     23  C   UNL     1       6.806   5.431  18.202  0.00  0.00    +0.000 A 
ATOM     24  C   UNL     1       5.501   5.498  18.713  0.00  0.00    +0.000 A 
BRANCH  21  25
ATOM     25  C   UNL     1       6.107   4.467  14.567  0.00  0.00    +0.000 C 
ATOM     26  F   UNL     1       7.068   5.212  13.956  0.00  0.00    +0.000 F 
ATOM     27  F   UNL     1       6.478   3.167  14.402  0.00  0.00    +0.000 F 
ATOM     28  F   UNL     1       4.976   4.630  13.828  0.00  0.00    +0.000 F 
ENDBRANCH  21  25
BRANCH  23  29
ATOM     29  C   UNL     1       7.973   5.662  19.131  0.00  0.00    +0.000 C 
ATOM     30  F   UNL     1       7.631   5.657  20.447  0.00  0.00    +0.000 F 
ATOM     31  F   UNL     1       8.950   4.725  18.991  0.00  0.00    +0.000 F 
ATOM     32  F   UNL     1       8.574   6.865  18.908  0.00  0.00    +0.000 F 
ENDBRANCH  23  29
ENDBRANCH  18  19
ENDBRANCH   4  18
TORSDOF 6
ENDMDL
MODEL 7
REMARK VINA RESULT:      -8.7      2.323      3.747
REMARK  Name = 
REMARK  6 active torsions:
REMARK  status: ('A' for Active; 'I' for Inactive)
REMARK    1  A    between atoms: C_2  and  C_25
REMARK    2  A    between atoms: N_3  and  C_4
REMARK    3  A    between atoms: C_7  and  O_8
REMARK    4  A    between atoms: O_8  and  C_9
REMARK    5  A    between atoms: C_11  and  C_12
REMARK    6  A    between atoms: C_17  and  C_18
REMARK                            x       y       z     vdW  Elec       q    Type
REMARK                         _______ _______ _______ _____ _____    ______ ____
ROOT
ATOM      1  C   UNL     1       1.476   8.642  20.168  0.00  0.00    +0.000 A 
ATOM      2  C   UNL     1       1.631   7.364  20.712  0.00  0.00    +0.000 A 
ATOM      3  C   UNL     1       2.130   6.320  19.934  0.00  0.00    +0.000 A 
ATOM      4  C   UNL     1       2.480   6.542  18.607  0.00  0.00    +0.000 A 
ATOM      5  C   UNL     1       2.391   7.829  18.074  0.00  0.00    +0.000 A 
ATOM      6  C   UNL     1       1.850   8.865  18.839  0.00  0.00    +0.000 A 
ENDROOT
BRANCH   1   9
ATOM      7  O   UNL     1      -0.920  10.259  19.608  0.00  0.00    +0.000 OA
ATOM      8  C   UNL     1      -0.169  10.471  20.555  0.00  0.00    +0.000 C 
ATOM      9  N   UNL     1       0.951   9.733  20.885  0.00  0.00    +0.000 N 
ATOM     10  H   UNL     1       1.417   9.958  21.759  0.00  0.00    +0.000 HD
BRANCH   8  11
ATOM     11  C   UNL     1      -0.484  11.627  21.434  0.00  0.00    +0.000 A 
ATOM     12  C   UNL     1      -1.415  11.437  22.465  0.00  0.00    +0.000 A 
ATOM     13  C   UNL     1      -1.744  12.486  23.322  0.00  0.00    +0.000 A 
ATOM     14  C   UNL     1      -1.139  13.732  23.161  0.00  0.00    +0.000 A 
ATOM     15  C   UNL     1      -0.208  13.929  22.142  0.00  0.00    +0.000 A 
ATOM     16  C   UNL     1       0.112  12.881  21.283  0.00  0.00    +0.000 A 
ATOM     17  F   UNL     1       1.007  13.108  20.310  0.00  0.00    +0.000 F 
ENDBRANCH   8  11
ENDBRANCH   1   9
BRANCH   4  18
ATOM     18  O   UNL     1       2.944   5.444  17.924  0.00  0.00    +0.000 OA
BRANCH  18  19
ATOM     19  C   UNL     1       4.269   5.372  17.561  0.00  0.00    +0.000 A 
ATOM     20  C   UNL     1       4.513   4.989  16.245  0.00  0.00    +0.000 A 
ATOM     21  C   UNL     1       5.826   4.837  15.776  0.00  0.00    +0.000 A 
ATOM     22  C   UNL     1       6.895   5.085  16.656  0.00  0.00    +0.000 A 
ATOM     23  C   UNL     1       6.662   5.506  17.974  0.00  0.00    +0.000 A 
ATOM     24  C   UNL     1       5.339   5.686  18.406  0.00  0.00    +0.000 A 
BRANCH  21  25
ATOM     25  C   UNL     1       6.094   4.386  14.361  0.00  0.00    +0.000 C 
ATOM     26  F   UNL     1       6.504   3.092  14.266  0.00  0.00    +0.000 F 
ATOM     27  F   UNL     1       4.994   4.492  13.565  0.00  0.00    +0.000 F 
ATOM     28  F   UNL     1       7.062   5.133  13.763  0.00  0.00    +0.000 F 
ENDBRANCH  21  25
BRANCH  23  29
ATOM     29  C   UNL     1       7.791   5.714  18.954  0.00  0.00    +0.000 C 
ATOM     30  F   UNL     1       8.766   4.769  18.870  0.00  0.00    +0.000 F 
ATOM     31  F   UNL     1       8.414   6.913  18.791  0.00  0.00    +0.000 F 
ATOM     32  F   UNL     1       7.359   5.689  20.247  0.00  0.00    +0.000 F 
ENDBRANCH  23  29
ENDBRANCH  18  19
ENDBRANCH   4  18
TORSDOF 6
ENDMDL
MODEL 8
REMARK VINA RESULT:      -8.7      1.045      1.528
REMARK  Name = 
REMARK  6 active torsions:
REMARK  status: ('A' for Active; 'I' for Inactive)
REMARK    1  A    between atoms: C_2  and  C_25
REMARK    2  A    between atoms: N_3  and  C_4
REMARK    3  A    between atoms: C_7  and  O_8
REMARK    4  A    between atoms: O_8  and  C_9
REMARK    5  A    between atoms: C_11  and  C_12
REMARK    6  A    between atoms: C_17  and  C_18
REMARK                            x       y       z     vdW  Elec       q    Type
REMARK                         _______ _______ _______ _____ _____    ______ ____
ROOT
ATOM      1  C   UNL     1       0.633   9.708  19.838  0.00  0.00    +0.000 A 
ATOM      2  C   UNL     1       0.789   9.893  18.462  0.00  0.00    +0.000 A 
ATOM      3  C   UNL     1       1.603   9.037  17.721  0.00  0.00    +0.000 A 
ATOM      4  C   UNL     1       2.267   7.987  18.347  0.00  0.00    +0.000 A 
ATOM      5  C   UNL     1       2.065   7.754  19.708  0.00  0.00    +0.000 A 
ATOM      6  C   UNL     1       1.286   8.638  20.458  0.00  0.00    +0.000 A 
ENDROOT
BRANCH   1   9
ATOM      7  O   UNL     1       1.446  12.075  21.388  0.00  0.00    +0.000 OA
ATOM      8  C   UNL     1       0.301  11.636  21.378  0.00  0.00    +0.000 C 
ATOM      9  N   UNL     1      -0.147  10.550  20.652  0.00  0.00    +0.000 N 
ATOM     10  H   UNL     1      -1.145  10.366  20.656  0.00  0.00    +0.000 HD
BRANCH   8  11
ATOM     11  C   UNL     1      -0.706  12.329  22.223  0.00  0.00    +0.000 A 
ATOM     12  C   UNL     1      -1.814  11.591  22.667  0.00  0.00    +0.000 A 
ATOM     13  C   UNL     1      -2.786  12.191  23.466  0.00  0.00    +0.000 A 
ATOM     14  C   UNL     1      -2.656  13.529  23.835  0.00  0.00    +0.000 A 
ATOM     15  C   UNL     1      -1.557  14.269  23.403  0.00  0.00    +0.000 A 
ATOM     16  C   UNL     1      -0.591  13.669  22.598  0.00  0.00    +0.000 A 
ATOM     17  F   UNL     1       0.451  14.412  22.196  0.00  0.00    +0.000 F 
ENDBRANCH   8  11
ENDBRANCH   1   9
BRANCH   4  18
ATOM     18  O   UNL     1       3.057   7.215  17.530  0.00  0.00    +0.000 OA
BRANCH  18  19
ATOM     19  C   UNL     1       3.777   6.170  18.061  0.00  0.00    +0.000 A 
ATOM     20  C   UNL     1       5.162   6.304  18.010  0.00  0.00    +0.000 A 
ATOM     21  C   UNL     1       5.997   5.281  18.480  0.00  0.00    +0.000 A 
ATOM     22  C   UNL     1       5.414   4.117  19.012  0.00  0.00    +0.000 A 
ATOM     23  C   UNL     1       4.019   3.985  19.102  0.00  0.00    +0.000 A 
ATOM     24  C   UNL     1       3.207   5.040  18.658  0.00  0.00    +0.000 A 
BRANCH  21  25
ATOM     25  C   UNL     1       7.499   5.407  18.392  0.00  0.00    +0.000 C 
ATOM     26  F   UNL     1       8.112   5.515  19.602  0.00  0.00    +0.000 F 
ATOM     27  F   UNL     1       8.073   4.339  17.773  0.00  0.00    +0.000 F 
ATOM     28  F   UNL     1       7.877   6.502  17.678  0.00  0.00    +0.000 F 
ENDBRANCH  21  25
BRANCH  23  29
ATOM     29  C   UNL     1       3.371   2.719  19.608  0.00  0.00    +0.000 C 
ATOM     30  F   UNL     1       3.187   2.704  20.956  0.00  0.00    +0.000 F 
ATOM     31  F   UNL     1       2.147   2.499  19.057  0.00  0.00    +0.000 F 
ATOM     32  F   UNL     1       4.115   1.613  19.322  0.00  0.00    +0.000 F 
ENDBRANCH  23  29
ENDBRANCH  18  19
ENDBRANCH   4  18
TORSDOF 6
ENDMDL
MODEL 9
REMARK VINA RESULT:      -8.7      0.424      1.209
REMARK  Name = 
REMARK  6 active torsions:
REMARK  status: ('A' for Active; 'I' for Inactive)
REMARK    1  A    between atoms: C_2  and  C_25
REMARK    2  A    between atoms: N_3  and  C_4
REMARK    3  A    between atoms: C_7  and  O_8
REMARK    4  A    between atoms: O_8  and  C_9
REMARK    5  A    between atoms: C_11  and  C_12
REMARK    6  A    between atoms: C_17  and  C_18
REMARK                            x       y       z     vdW  Elec       q    Type
REMARK                         _______ _______ _______ _____ _____    ______ ____
ROOT
ATOM      1  C   UNL     1       0.722   9.593  19.727  0.00  0.00    +0.000 A 
ATOM      2  C   UNL     1       1.356   8.451  20.223  0.00  0.00    +0.000 A 
ATOM      3  C   UNL     1       2.195   7.695  19.404  0.00  0.00    +0.000 A 
ATOM      4  C   UNL     1       2.410   8.074  18.083  0.00  0.00    +0.000 A 
ATOM      5  C   UNL     1       1.833   9.249  17.598  0.00  0.00    +0.000 A 
ATOM      6  C   UNL     1       0.959   9.982  18.404  0.00  0.00    +0.000 A 
ENDROOT
BRANCH   1   9
ATOM      7  O   UNL     1       1.304  11.941  21.404  0.00  0.00    +0.000 OA
ATOM      8  C   UNL     1       0.181  11.464  21.278  0.00  0.00    +0.000 C 
ATOM      9  N   UNL     1      -0.159  10.384  20.487  0.00  0.00    +0.000 N 
ATOM     10  H   UNL     1      -1.146  10.166  20.395  0.00  0.00    +0.000 HD
BRANCH   8  11
ATOM     11  C   UNL     1      -0.923  12.098  22.045  0.00  0.00    +0.000 A 
ATOM     12  C   UNL     1      -1.259  13.425  21.739  0.00  0.00    +0.000 A 
ATOM     13  C   UNL     1      -2.290  14.066  22.425  0.00  0.00    +0.000 A 
ATOM     14  C   UNL     1      -2.999  13.386  23.414  0.00  0.00    +0.000 A 
ATOM     15  C   UNL     1      -2.674  12.066  23.721  0.00  0.00    +0.000 A 
ATOM     16  C   UNL     1      -1.638  11.430  23.040  0.00  0.00    +0.000 A 
ATOM     17  F   UNL     1      -1.350  10.161  23.365  0.00  0.00    +0.000 F 
ENDBRANCH   8  11
ENDBRANCH   1   9
BRANCH   4  18
ATOM     18  O   UNL     1       3.238   7.252  17.358  0.00  0.00    +0.000 OA
BRANCH  18  19
ATOM     19  C   UNL     1       3.892   6.216  17.982  0.00  0.00    +0.000 A 
ATOM     20  C   UNL     1       5.275   6.347  18.078  0.00  0.00    +0.000 A 
ATOM     21  C   UNL     1       6.052   5.331  18.653  0.00  0.00    +0.000 A 
ATOM     22  C   UNL     1       5.411   4.178  19.140  0.00  0.00    +0.000 A 
ATOM     23  C   UNL     1       4.014   4.050  19.081  0.00  0.00    +0.000 A 
ATOM     24  C   UNL     1       3.258   5.098  18.534  0.00  0.00    +0.000 A 
BRANCH  21  25
ATOM     25  C   UNL     1       7.555   5.454  18.725  0.00  0.00    +0.000 C 
ATOM     26  F   UNL     1       8.218   4.437  18.110  0.00  0.00    +0.000 F 
ATOM     27  F   UNL     1       8.010   6.601  18.150  0.00  0.00    +0.000 F 
ATOM     28  F   UNL     1       8.003   5.474  20.010  0.00  0.00    +0.000 F 
ENDBRANCH  21  25
BRANCH  23  29
ATOM     29  C   UNL     1       3.311   2.794  19.537  0.00  0.00    +0.000 C 
ATOM     30  F   UNL     1       3.895   1.650  19.089  0.00  0.00    +0.000 F 
ATOM     31  F   UNL     1       3.257   2.684  20.892  0.00  0.00    +0.000 F 
ATOM     32  F   UNL     1       2.019   2.745  19.106  0.00  0.00    +0.000 F 
ENDBRANCH  23  29
ENDBRANCH  18  19
ENDBRANCH   4  18
TORSDOF 6
ENDMDL
