MODEL 1
REMARK VINA RESULT:      -8.1      0.000      0.000
REMARK  Name = 
REMARK  6 active torsions:
REMARK  status: ('A' for Active; 'I' for Inactive)
REMARK    1  A    between atoms: C_1  and  O_2
REMARK    2  A    between atoms: O_2  and  C_3
REMARK    3  A    between atoms: C_6  and  N_7
REMARK    4  A    between atoms: C_13  and  C_14
REMARK    5  A    between atoms: C_14  and  N_15
REMARK    6  A    between atoms: C_18  and  C_19
REMARK                            x       y       z     vdW  Elec       q    Type
REMARK                         _______ _______ _______ _____ _____    ______ ____
ROOT
ATOM      1  N   UNL     1       7.436   5.063  14.902  0.00  0.00    +0.000 N 
ATOM      2  C   UNL     1       7.214   5.269  16.278  0.00  0.00    +0.000 A 
ATOM      3  N   UNL     1       7.878   6.281  16.845  0.00  0.00    +0.000 NA
ATOM      4  C   UNL     1       7.587   6.519  18.125  0.00  0.00    +0.000 A 
ATOM      5  N   UNL     1       8.194   7.588  18.756  0.00  0.00    +0.000 N 
ATOM      6  N   UNL     1       6.747   5.817  18.861  0.00  0.00    +0.000 NA
ATOM      7  C   UNL     1       6.164   4.802  18.228  0.00  0.00    +0.000 A 
ATOM      8  N   UNL     1       6.373   4.496  16.949  0.00  0.00    +0.000 NA
ATOM      9  H   UNL     1       8.046   5.795  14.563  0.00  0.00    +0.000 HD
ATOM     10  H   UNL     1       9.112   7.773  18.376  0.00  0.00    +0.000 HD
ATOM     11  H   UNL     1       8.122   7.470  19.756  0.00  0.00    +0.000 HD
ENDROOT
BRANCH   1  15
ATOM     12  C   UNL     1       5.109   3.264  11.822  0.00  0.00    +0.000 A 
ATOM     13  C   UNL     1       4.521   3.604  13.035  0.00  0.00    +0.000 A 
ATOM     14  C   UNL     1       5.274   4.183  14.063  0.00  0.00    +0.000 A 
ATOM     15  C   UNL     1       6.641   4.449  13.910  0.00  0.00    +0.000 A 
ATOM     16  C   UNL     1       7.240   4.001  12.718  0.00  0.00    +0.000 A 
ATOM     17  C   UNL     1       6.483   3.428  11.678  0.00  0.00    +0.000 A 
BRANCH  12  19
ATOM     18  C   UNL     1       3.329   3.622  10.306  0.00  0.00    +0.000 C 
ATOM     19  O   UNL     1       4.267   2.724  10.890  0.00  0.00    +0.000 OA
ENDBRANCH  12  19
ENDBRANCH   1  15
BRANCH   7  20
ATOM     20  C   UNL     1       5.010   4.069  18.909  0.00  0.00    +0.000 C 
BRANCH  20  21
ATOM     21  N   UNL     1       4.207   3.094  18.125  0.00  0.00    +0.000 NA
ATOM     22  C   UNL     1       3.136   3.721  17.349  0.00  0.00    +0.000 C 
ATOM     23  C   UNL     1       2.039   4.391  18.185  0.00  0.00    +0.000 C 
ATOM     24  C   UNL     1       1.685   3.727  19.538  0.00  0.00    +0.000 C 
ATOM     25  C   UNL     1       1.425   4.785  20.621  0.00  0.00    +0.000 C 
ATOM     26  C   UNL     1       2.707   2.713  20.081  0.00  0.00    +0.000 C 
ATOM     27  C   UNL     1       3.586   2.088  19.004  0.00  0.00    +0.000 C 
ENDBRANCH  20  21
ENDBRANCH   7  20
TORSDOF 4
ENDMDL
MODEL 2
REMARK VINA RESULT:      -8.1      0.833      1.426
REMARK  Name = 
REMARK  6 active torsions:
REMARK  status: ('A' for Active; 'I' for Inactive)
REMARK    1  A    between atoms: C_1  and  O_2
REMARK    2  A    between atoms: O_2  and  C_3
REMARK    3  A    between atoms: C_6  and  N_7
REMARK    4  A    between atoms: C_13  and  C_14
REMARK    5  A    between atoms: C_14  and  N_15
REMARK    6  A    between atoms: C_18  and  C_19
REMARK                            x       y       z     vdW  Elec       q    Type
REMARK                         _______ _______ _______ _____ _____    ______ ____
ROOT
ATOM      1  N   UNL     1       7.380   4.587  15.252  0.00  0.00    +0.000 N 
ATOM      2  C   UNL     1       7.047   4.741  16.612  0.00  0.00    +0.000 A 
ATOM      3  N   UNL     1       7.813   5.573  17.325  0.00  0.00    +0.000 NA
ATOM      4  C   UNL     1       7.429   5.777  18.586  0.00  0.00    +0.000 A 
ATOM      5  N   UNL     1       8.143   6.671  19.361  0.00  0.00    +0.000 N 
ATOM      6  N   UNL     1       6.401   5.197  19.175  0.00  0.00    +0.000 NA
ATOM      7  C   UNL     1       5.721   4.351  18.405  0.00  0.00    +0.000 A 
ATOM      8  N   UNL     1       6.013   4.096  17.131  0.00  0.00    +0.000 NA
ATOM      9  H   UNL     1       8.145   5.214  15.037  0.00  0.00    +0.000 HD
ATOM     10  H   UNL     1       9.116   6.707  19.089  0.00  0.00    +0.000 HD
ATOM     11  H   UNL     1       7.940   6.504  20.336  0.00  0.00    +0.000 HD
ENDROOT
BRANCH   1  15
ATOM     12  C   UNL     1       4.958   3.364  11.970  0.00  0.00    +0.000 A 
ATOM     13  C   UNL     1       6.341   3.423  11.836  0.00  0.00    +0.000 A 
ATOM     14  C   UNL     1       7.150   3.836  12.900  0.00  0.00    +0.000 A 
ATOM     15  C   UNL     1       6.605   4.198  14.139  0.00  0.00    +0.000 A 
ATOM     16  C   UNL     1       5.201   4.235  14.222  0.00  0.00    +0.000 A 
ATOM     17  C   UNL     1       4.384   3.809  13.158  0.00  0.00    +0.000 A 
BRANCH  12  19
ATOM     18  C   UNL     1       3.354   3.852  10.302  0.00  0.00    +0.000 C 
ATOM     19  O   UNL     1       4.276   2.927  10.868  0.00  0.00    +0.000 OA
ENDBRANCH  12  19
ENDBRANCH   1  15
BRANCH   7  20
ATOM     20  C   UNL     1       4.386   3.802  18.906  0.00  0.00    +0.000 C 
BRANCH  20  21
ATOM     21  N   UNL     1       3.167   3.988  18.075  0.00  0.00    +0.000 NA
ATOM     22  C   UNL     1       2.237   4.974  18.628  0.00  0.00    +0.000 C 
ATOM     23  C   UNL     1       1.612   4.588  19.974  0.00  0.00    +0.000 C 
ATOM     24  C   UNL     1       1.327   3.085  20.209  0.00  0.00    +0.000 C 
ATOM     25  C   UNL     1       1.651   2.682  21.656  0.00  0.00    +0.000 C 
ATOM     26  C   UNL     1       2.038   2.106  19.258  0.00  0.00    +0.000 C 
ATOM     27  C   UNL     1       2.431   2.723  17.921  0.00  0.00    +0.000 C 
ENDBRANCH  20  21
ENDBRANCH   7  20
TORSDOF 4
ENDMDL
MODEL 3
REMARK VINA RESULT:      -8.0      4.060      6.490
REMARK  Name = 
REMARK  6 active torsions:
REMARK  status: ('A' for Active; 'I' for Inactive)
REMARK    1  A    between atoms: C_1  and  O_2
REMARK    2  A    between atoms: O_2  and  C_3
REMARK    3  A    between atoms: C_6  and  N_7
REMARK    4  A    between atoms: C_13  and  C_14
REMARK    5  A    between atoms: C_14  and  N_15
REMARK    6  A    between atoms: C_18  and  C_19
REMARK                            x       y       z     vdW  Elec       q    Type
REMARK                         _______ _______ _______ _____ _____    ______ ____
ROOT
ATOM      1  N   UNL     1       3.233   7.818  17.303  0.00  0.00    +0.000 N 
ATOM      2  C   UNL     1       4.160   6.762  17.400  0.00  0.00    +0.000 A 
ATOM      3  N   UNL     1       5.177   6.778  16.532  0.00  0.00    +0.000 NA
ATOM      4  C   UNL     1       6.093   5.823  16.697  0.00  0.00    +0.000 A 
ATOM      5  N   UNL     1       7.201   5.817  15.871  0.00  0.00    +0.000 N 
ATOM      6  N   UNL     1       6.045   4.865  17.603  0.00  0.00    +0.000 NA
ATOM      7  C   UNL     1       4.976   4.900  18.396  0.00  0.00    +0.000 A 
ATOM      8  N   UNL     1       4.018   5.823  18.323  0.00  0.00    +0.000 NA
ATOM      9  H   UNL     1       3.556   8.463  16.593  0.00  0.00    +0.000 HD
ATOM     10  H   UNL     1       6.990   6.198  14.960  0.00  0.00    +0.000 HD
ATOM     11  H   UNL     1       7.635   4.905  15.902  0.00  0.00    +0.000 HD
ENDROOT
BRANCH   1  15
ATOM     12  C   UNL     1       0.605   9.620  20.129  0.00  0.00    +0.000 A 
ATOM     13  C   UNL     1       1.246   8.423  20.432  0.00  0.00    +0.000 A 
ATOM     14  C   UNL     1       2.101   7.810  19.509  0.00  0.00    +0.000 A 
ATOM     15  C   UNL     1       2.352   8.378  18.253  0.00  0.00    +0.000 A 
ATOM     16  C   UNL     1       1.614   9.530  17.924  0.00  0.00    +0.000 A 
ATOM     17  C   UNL     1       0.761  10.154  18.853  0.00  0.00    +0.000 A 
BRANCH  12  19
ATOM     18  C   UNL     1      -0.118   9.468  22.375  0.00  0.00    +0.000 C 
ATOM     19  O   UNL     1      -0.190  10.130  21.117  0.00  0.00    +0.000 OA
ENDBRANCH  12  19
ENDBRANCH   1  15
BRANCH   7  20
ATOM     20  C   UNL     1       4.930   3.986  19.618  0.00  0.00    +0.000 C 
BRANCH  20  21
ATOM     21  N   UNL     1       4.635   2.541  19.433  0.00  0.00    +0.000 NA
ATOM     22  C   UNL     1       3.658   2.283  18.375  0.00  0.00    +0.000 C 
ATOM     23  C   UNL     1       2.252   2.831  18.646  0.00  0.00    +0.000 C 
ATOM     24  C   UNL     1       1.771   2.829  20.118  0.00  0.00    +0.000 C 
ATOM     25  C   UNL     1       0.980   4.106  20.441  0.00  0.00    +0.000 C 
ATOM     26  C   UNL     1       2.864   2.648  21.185  0.00  0.00    +0.000 C 
ATOM     27  C   UNL     1       4.113   1.942  20.673  0.00  0.00    +0.000 C 
ENDBRANCH  20  21
ENDBRANCH   7  20
TORSDOF 4
ENDMDL
MODEL 4
REMARK VINA RESULT:      -7.9      0.833      1.313
REMARK  Name = 
REMARK  6 active torsions:
REMARK  status: ('A' for Active; 'I' for Inactive)
REMARK    1  A    between atoms: C_1  and  O_2
REMARK    2  A    between atoms: O_2  and  C_3
REMARK    3  A    between atoms: C_6  and  N_7
REMARK    4  A    between atoms: C_13  and  C_14
REMARK    5  A    between atoms: C_14  and  N_15
REMARK    6  A    between atoms: C_18  and  C_19
REMARK                            x       y       z     vdW  Elec       q    Type
REMARK                         _______ _______ _______ _____ _____    ______ ____
ROOT
ATOM      1  N   UNL     1       7.441   4.719  15.151  0.00  0.00    +0.000 N 
ATOM      2  C   UNL     1       7.134   4.913  16.512  0.00  0.00    +0.000 A 
ATOM      3  N   UNL     1       7.886   5.798  17.174  0.00  0.00    +0.000 NA
ATOM      4  C   UNL     1       7.524   6.036  18.435  0.00  0.00    +0.000 A 
ATOM      5  N   UNL     1       8.223   6.984  19.159  0.00  0.00    +0.000 N 
ATOM      6  N   UNL     1       6.531   5.443  19.071  0.00  0.00    +0.000 NA
ATOM      7  C   UNL     1       5.864   4.546  18.350  0.00  0.00    +0.000 A 
ATOM      8  N   UNL     1       6.136   4.252  17.079  0.00  0.00    +0.000 NA
ATOM      9  H   UNL     1       8.178   5.363  14.894  0.00  0.00    +0.000 HD
ATOM     10  H   UNL     1       9.187   7.043  18.863  0.00  0.00    +0.000 HD
ATOM     11  H   UNL     1       8.048   6.847  20.145  0.00  0.00    +0.000 HD
ENDROOT
BRANCH   1  15
ATOM     12  C   UNL     1       4.989   3.288  11.977  0.00  0.00    +0.000 A 
ATOM     13  C   UNL     1       6.366   3.387  11.808  0.00  0.00    +0.000 A 
ATOM     14  C   UNL     1       7.185   3.869  12.836  0.00  0.00    +0.000 A 
ATOM     15  C   UNL     1       6.655   4.260  14.072  0.00  0.00    +0.000 A 
ATOM     16  C   UNL     1       5.252   4.254  14.187  0.00  0.00    +0.000 A 
ATOM     17  C   UNL     1       4.427   3.760  13.159  0.00  0.00    +0.000 A 
BRANCH  12  19
ATOM     18  C   UNL     1       3.316   3.647  10.345  0.00  0.00    +0.000 C 
ATOM     19  O   UNL     1       4.299   2.785  10.909  0.00  0.00    +0.000 OA
ENDBRANCH  12  19
ENDBRANCH   1  15
BRANCH   7  20
ATOM     20  C   UNL     1       4.562   3.970  18.903  0.00  0.00    +0.000 C 
BRANCH  20  21
ATOM     21  N   UNL     1       4.436   2.499  19.080  0.00  0.00    +0.000 NA
ATOM     22  C   UNL     1       3.383   1.907  18.254  0.00  0.00    +0.000 C 
ATOM     23  C   UNL     1       1.960   2.360  18.598  0.00  0.00    +0.000 C 
ATOM     24  C   UNL     1       1.658   2.652  20.088  0.00  0.00    +0.000 C 
ATOM     25  C   UNL     1       0.752   3.885  20.237  0.00  0.00    +0.000 C 
ATOM     26  C   UNL     1       2.883   2.833  21.002  0.00  0.00    +0.000 C 
ATOM     27  C   UNL     1       4.145   2.155  20.482  0.00  0.00    +0.000 C 
ENDBRANCH  20  21
ENDBRANCH   7  20
TORSDOF 4
ENDMDL
MODEL 5
REMARK VINA RESULT:      -7.9      4.378      7.725
REMARK  Name = 
REMARK  6 active torsions:
REMARK  status: ('A' for Active; 'I' for Inactive)
REMARK    1  A    between atoms: C_1  and  O_2
REMARK    2  A    between atoms: O_2  and  C_3
REMARK    3  A    between atoms: C_6  and  N_7
REMARK    4  A    between atoms: C_13  and  C_14
REMARK    5  A    between atoms: C_14  and  N_15
REMARK    6  A    between atoms: C_18  and  C_19
REMARK                            x       y       z     vdW  Elec       q    Type
REMARK                         _______ _______ _______ _____ _____    ______ ____
ROOT
ATOM      1  N   UNL     1       1.558   6.955  20.864  0.00  0.00    +0.000 N 
ATOM      2  C   UNL     1       2.227   5.771  20.499  0.00  0.00    +0.000 A 
ATOM      3  N   UNL     1       1.756   4.634  21.023  0.00  0.00    +0.000 NA
ATOM      4  C   UNL     1       2.342   3.514  20.597  0.00  0.00    +0.000 A 
ATOM      5  N   UNL     1       1.865   2.300  21.053  0.00  0.00    +0.000 N 
ATOM      6  N   UNL     1       3.354   3.455  19.752  0.00  0.00    +0.000 NA
ATOM      7  C   UNL     1       3.786   4.635  19.315  0.00  0.00    +0.000 A 
ATOM      8  N   UNL     1       3.256   5.805  19.666  0.00  0.00    +0.000 NA
ATOM      9  H   UNL     1       0.764   6.710  21.442  0.00  0.00    +0.000 HD
ATOM     10  H   UNL     1       1.480   2.377  21.984  0.00  0.00    +0.000 HD
ATOM     11  H   UNL     1       2.565   1.587  20.899  0.00  0.00    +0.000 HD
ENDROOT
BRANCH   1  15
ATOM     12  C   UNL     1       1.352  10.704  18.854  0.00  0.00    +0.000 A 
ATOM     13  C   UNL     1       0.840  10.570  20.140  0.00  0.00    +0.000 A 
ATOM     14  C   UNL     1       0.886   9.342  20.809  0.00  0.00    +0.000 A 
ATOM     15  C   UNL     1       1.455   8.206  20.218  0.00  0.00    +0.000 A 
ATOM     16  C   UNL     1       1.870   8.334  18.880  0.00  0.00    +0.000 A 
ATOM     17  C   UNL     1       1.835   9.570  18.207  0.00  0.00    +0.000 A 
BRANCH  12  19
ATOM     18  C   UNL     1       2.482  12.694  18.258  0.00  0.00    +0.000 C 
ATOM     19  O   UNL     1       1.266  11.957  18.313  0.00  0.00    +0.000 OA
ENDBRANCH  12  19
ENDBRANCH   1  15
BRANCH   7  20
ATOM     20  C   UNL     1       4.793   4.677  18.167  0.00  0.00    +0.000 C 
BRANCH  20  21
ATOM     21  N   UNL     1       5.601   5.907  17.955  0.00  0.00    +0.000 NA
ATOM     22  C   UNL     1       5.153   6.701  16.810  0.00  0.00    +0.000 C 
ATOM     23  C   UNL     1       5.310   6.015  15.447  0.00  0.00    +0.000 C 
ATOM     24  C   UNL     1       6.530   5.079  15.270  0.00  0.00    +0.000 C 
ATOM     25  C   UNL     1       6.153   3.828  14.462  0.00  0.00    +0.000 C 
ATOM     26  C   UNL     1       7.231   4.632  16.565  0.00  0.00    +0.000 C 
ATOM     27  C   UNL     1       7.020   5.581  17.739  0.00  0.00    +0.000 C 
ENDBRANCH  20  21
ENDBRANCH   7  20
TORSDOF 4
ENDMDL
MODEL 6
REMARK VINA RESULT:      -7.8      0.944      1.609
REMARK  Name = 
REMARK  6 active torsions:
REMARK  status: ('A' for Active; 'I' for Inactive)
REMARK    1  A    between atoms: C_1  and  O_2
REMARK    2  A    between atoms: O_2  and  C_3
REMARK    3  A    between atoms: C_6  and  N_7
REMARK    4  A    between atoms: C_13  and  C_14
REMARK    5  A    between atoms: C_14  and  N_15
REMARK    6  A    between atoms: C_18  and  C_19
REMARK                            x       y       z     vdW  Elec       q    Type
REMARK                         _______ _______ _______ _____ _____    ______ ____
ROOT
ATOM      1  N   UNL     1       7.367   4.700  15.126  0.00  0.00    +0.000 N 
ATOM      2  C   UNL     1       7.067   5.005  16.468  0.00  0.00    +0.000 A 
ATOM      3  N   UNL     1       7.875   5.879  17.078  0.00  0.00    +0.000 NA
ATOM      4  C   UNL     1       7.524   6.225  18.317  0.00  0.00    +0.000 A 
ATOM      5  N   UNL     1       8.283   7.168  18.983  0.00  0.00    +0.000 N 
ATOM      6  N   UNL     1       6.488   5.746  18.980  0.00  0.00    +0.000 NA
ATOM      7  C   UNL     1       5.765   4.850  18.313  0.00  0.00    +0.000 A 
ATOM      8  N   UNL     1       6.022   4.454  17.068  0.00  0.00    +0.000 NA
ATOM      9  H   UNL     1       8.149   5.273  14.835  0.00  0.00    +0.000 HD
ATOM     10  H   UNL     1       9.251   7.140  18.693  0.00  0.00    +0.000 HD
ATOM     11  H   UNL     1       8.095   7.109  19.974  0.00  0.00    +0.000 HD
ENDROOT
BRANCH   1  15
ATOM     12  C   UNL     1       5.001   3.318  11.866  0.00  0.00    +0.000 A 
ATOM     13  C   UNL     1       4.397   3.685  13.063  0.00  0.00    +0.000 A 
ATOM     14  C   UNL     1       5.161   4.128  14.149  0.00  0.00    +0.000 A 
ATOM     15  C   UNL     1       6.556   4.227  14.072  0.00  0.00    +0.000 A 
ATOM     16  C   UNL     1       7.157   3.751  12.892  0.00  0.00    +0.000 A 
ATOM     17  C   UNL     1       6.391   3.315  11.794  0.00  0.00    +0.000 A 
BRANCH  12  19
ATOM     18  C   UNL     1       3.337   3.943  10.306  0.00  0.00    +0.000 C 
ATOM     19  O   UNL     1       4.149   2.921  10.873  0.00  0.00    +0.000 OA
ENDBRANCH  12  19
ENDBRANCH   1  15
BRANCH   7  20
ATOM     20  C   UNL     1       4.423   4.404  18.890  0.00  0.00    +0.000 C 
BRANCH  20  21
ATOM     21  N   UNL     1       3.423   5.433  19.281  0.00  0.00    +0.000 NA
ATOM     22  C   UNL     1       2.677   5.083  20.491  0.00  0.00    +0.000 C 
ATOM     23  C   UNL     1       1.781   3.845  20.362  0.00  0.00    +0.000 C 
ATOM     24  C   UNL     1       1.119   3.600  18.985  0.00  0.00    +0.000 C 
ATOM     25  C   UNL     1       1.115   2.104  18.633  0.00  0.00    +0.000 C 
ATOM     26  C   UNL     1       1.716   4.379  17.800  0.00  0.00    +0.000 C 
ATOM     27  C   UNL     1       2.442   5.656  18.206  0.00  0.00    +0.000 C 
ENDBRANCH  20  21
ENDBRANCH   7  20
TORSDOF 4
ENDMDL
MODEL 7
REMARK VINA RESULT:      -7.5      3.981      6.416
REMARK  Name = 
REMARK  6 active torsions:
REMARK  status: ('A' for Active; 'I' for Inactive)
REMARK    1  A    between atoms: C_1  and  O_2
REMARK    2  A    between atoms: O_2  and  C_3
REMARK    3  A    between atoms: C_6  and  N_7
REMARK    4  A    between atoms: C_13  and  C_14
REMARK    5  A    between atoms: C_14  and  N_15
REMARK    6  A    between atoms: C_18  and  C_19
REMARK                            x       y       z     vdW  Elec       q    Type
REMARK                         _______ _______ _______ _____ _____    ______ ____
ROOT
ATOM      1  N   UNL     1       3.587   8.086  17.298  0.00  0.00    +0.000 N 
ATOM      2  C   UNL     1       4.239   6.851  17.107  0.00  0.00    +0.000 A 
ATOM      3  N   UNL     1       5.453   6.896  16.548  0.00  0.00    +0.000 NA
ATOM      4  C   UNL     1       6.092   5.729  16.459  0.00  0.00    +0.000 A 
ATOM      5  N   UNL     1       7.375   5.713  15.945  0.00  0.00    +0.000 N 
ATOM      6  N   UNL     1       5.606   4.560  16.832  0.00  0.00    +0.000 NA
ATOM      7  C   UNL     1       4.376   4.603  17.337  0.00  0.00    +0.000 A 
ATOM      8  N   UNL     1       3.664   5.719  17.485  0.00  0.00    +0.000 NA
ATOM      9  H   UNL     1       4.216   8.826  17.015  0.00  0.00    +0.000 HD
ATOM     10  H   UNL     1       7.514   6.449  15.266  0.00  0.00    +0.000 HD
ATOM     11  H   UNL     1       7.609   4.772  15.662  0.00  0.00    +0.000 HD
ENDROOT
BRANCH   1  15
ATOM     12  C   UNL     1       0.568   9.391  20.002  0.00  0.00    +0.000 A 
ATOM     13  C   UNL     1       1.324   8.261  20.290  0.00  0.00    +0.000 A 
ATOM     14  C   UNL     1       2.311   7.810  19.406  0.00  0.00    +0.000 A 
ATOM     15  C   UNL     1       2.580   8.480  18.205  0.00  0.00    +0.000 A 
ATOM     16  C   UNL     1       1.734   9.556  17.881  0.00  0.00    +0.000 A 
ATOM     17  C   UNL     1       0.749  10.019  18.773  0.00  0.00    +0.000 A 
BRANCH  12  19
ATOM     18  C   UNL     1      -0.253   9.058  22.195  0.00  0.00    +0.000 C 
ATOM     19  O   UNL     1      -0.351   9.744  20.952  0.00  0.00    +0.000 OA
ENDBRANCH  12  19
ENDBRANCH   1  15
BRANCH   7  20
ATOM     20  C   UNL     1       3.806   3.355  18.008  0.00  0.00    +0.000 C 
BRANCH  20  21
ATOM     21  N   UNL     1       2.437   2.900  17.652  0.00  0.00    +0.000 NA
ATOM     22  C   UNL     1       1.402   3.890  17.957  0.00  0.00    +0.000 C 
ATOM     23  C   UNL     1       1.224   4.200  19.448  0.00  0.00    +0.000 C 
ATOM     24  C   UNL     1       1.448   3.032  20.438  0.00  0.00    +0.000 C 
ATOM     25  C   UNL     1       2.181   3.511  21.701  0.00  0.00    +0.000 C 
ATOM     26  C   UNL     1       2.189   1.805  19.879  0.00  0.00    +0.000 C 
ATOM     27  C   UNL     1       2.086   1.661  18.365  0.00  0.00    +0.000 C 
ENDBRANCH  20  21
ENDBRANCH   7  20
TORSDOF 4
ENDMDL
MODEL 8
REMARK VINA RESULT:      -7.5      4.055      6.784
REMARK  Name = 
REMARK  6 active torsions:
REMARK  status: ('A' for Active; 'I' for Inactive)
REMARK    1  A    between atoms: C_1  and  O_2
REMARK    2  A    between atoms: O_2  and  C_3
REMARK    3  A    between atoms: C_6  and  N_7
REMARK    4  A    between atoms: C_13  and  C_14
REMARK    5  A    between atoms: C_14  and  N_15
REMARK    6  A    between atoms: C_18  and  C_19
REMARK                            x       y       z     vdW  Elec       q    Type
REMARK                         _______ _______ _______ _____ _____    ______ ____
ROOT
ATOM      1  N   UNL     1       3.342   8.151  17.939  0.00  0.00    +0.000 N 
ATOM      2  C   UNL     1       3.945   6.993  17.410  0.00  0.00    +0.000 A 
ATOM      3  N   UNL     1       5.167   7.142  16.887  0.00  0.00    +0.000 NA
ATOM      4  C   UNL     1       5.760   6.021  16.474  0.00  0.00    +0.000 A 
ATOM      5  N   UNL     1       7.047   6.095  15.978  0.00  0.00    +0.000 N 
ATOM      6  N   UNL     1       5.222   4.815  16.505  0.00  0.00    +0.000 NA
ATOM      7  C   UNL     1       3.988   4.767  17.000  0.00  0.00    +0.000 A 
ATOM      8  N   UNL     1       3.321   5.826  17.455  0.00  0.00    +0.000 NA
ATOM      9  H   UNL     1       4.003   8.914  17.875  0.00  0.00    +0.000 HD
ATOM     10  H   UNL     1       7.225   6.984  15.533  0.00  0.00    +0.000 HD
ATOM     11  H   UNL     1       7.247   5.261  15.442  0.00  0.00    +0.000 HD
ENDROOT
BRANCH   1  15
ATOM     12  C   UNL     1       0.329   8.775  20.883  0.00  0.00    +0.000 A 
ATOM     13  C   UNL     1       1.172   7.672  20.966  0.00  0.00    +0.000 A 
ATOM     14  C   UNL     1       2.158   7.444  20.000  0.00  0.00    +0.000 A 
ATOM     15  C   UNL     1       2.340   8.318  18.919  0.00  0.00    +0.000 A 
ATOM     16  C   UNL     1       1.411   9.367  18.794  0.00  0.00    +0.000 A 
ATOM     17  C   UNL     1       0.425   9.605  19.770  0.00  0.00    +0.000 A 
BRANCH  12  19
ATOM     18  C   UNL     1      -0.185   9.727  22.986  0.00  0.00    +0.000 C 
ATOM     19  O   UNL     1      -0.580   8.900  21.897  0.00  0.00    +0.000 OA
ENDBRANCH  12  19
ENDBRANCH   1  15
BRANCH   7  20
ATOM     20  C   UNL     1       3.361   3.406  17.295  0.00  0.00    +0.000 C 
BRANCH  20  21
ATOM     21  N   UNL     1       4.027   2.494  18.262  0.00  0.00    +0.000 NA
ATOM     22  C   UNL     1       3.181   1.374  18.675  0.00  0.00    +0.000 C 
ATOM     23  C   UNL     1       1.929   1.768  19.468  0.00  0.00    +0.000 C 
ATOM     24  C   UNL     1       2.051   2.992  20.407  0.00  0.00    +0.000 C 
ATOM     25  C   UNL     1       0.776   3.849  20.365  0.00  0.00    +0.000 C 
ATOM     26  C   UNL     1       3.263   3.908  20.168  0.00  0.00    +0.000 C 
ATOM     27  C   UNL     1       4.433   3.214  19.480  0.00  0.00    +0.000 C 
ENDBRANCH  20  21
ENDBRANCH   7  20
TORSDOF 4
ENDMDL
MODEL 9
REMARK VINA RESULT:      -7.5      1.194      1.577
REMARK  Name = 
REMARK  6 active torsions:
REMARK  status: ('A' for Active; 'I' for Inactive)
REMARK    1  A    between atoms: C_1  and  O_2
REMARK    2  A    between atoms: O_2  and  C_3
REMARK    3  A    between atoms: C_6  and  N_7
REMARK    4  A    between atoms: C_13  and  C_14
REMARK    5  A    between atoms: C_14  and  N_15
REMARK    6  A    between atoms: C_18  and  C_19
REMARK                            x       y       z     vdW  Elec       q    Type
REMARK                         _______ _______ _______ _____ _____    ______ ____
ROOT
ATOM      1  N   UNL     1       6.907   4.185  14.656  0.00  0.00    +0.000 N 
ATOM      2  C   UNL     1       6.599   4.452  16.005  0.00  0.00    +0.000 A 
ATOM      3  N   UNL     1       7.460   5.229  16.671  0.00  0.00    +0.000 NA
ATOM      4  C   UNL     1       7.108   5.546  17.918  0.00  0.00    +0.000 A 
ATOM      5  N   UNL     1       7.923   6.393  18.643  0.00  0.00    +0.000 N 
ATOM      6  N   UNL     1       6.022   5.122  18.537  0.00  0.00    +0.000 NA
ATOM      7  C   UNL     1       5.245   4.320  17.814  0.00  0.00    +0.000 A 
ATOM      8  N   UNL     1       5.500   3.961  16.557  0.00  0.00    +0.000 NA
ATOM      9  H   UNL     1       7.738   4.705  14.408  0.00  0.00    +0.000 HD
ATOM     10  H   UNL     1       8.892   6.301  18.372  0.00  0.00    +0.000 HD
ATOM     11  H   UNL     1       7.707   6.305  19.626  0.00  0.00    +0.000 HD
ENDROOT
BRANCH   1  15
ATOM     12  C   UNL     1       4.533   3.084  11.296  0.00  0.00    +0.000 A 
ATOM     13  C   UNL     1       4.057   4.012  12.216  0.00  0.00    +0.000 A 
ATOM     14  C   UNL     1       4.818   4.374  13.333  0.00  0.00    +0.000 A 
ATOM     15  C   UNL     1       6.086   3.826  13.565  0.00  0.00    +0.000 A 
ATOM     16  C   UNL     1       6.505   2.812  12.684  0.00  0.00    +0.000 A 
ATOM     17  C   UNL     1       5.747   2.453  11.554  0.00  0.00    +0.000 A 
BRANCH  12  19
ATOM     18  C   UNL     1       2.984   3.942   9.728  0.00  0.00    +0.000 C 
ATOM     19  O   UNL     1       3.707   2.826  10.237  0.00  0.00    +0.000 OA
ENDBRANCH  12  19
ENDBRANCH   1  15
BRANCH   7  20
ATOM     20  C   UNL     1       3.858   3.958  18.342  0.00  0.00    +0.000 C 
BRANCH  20  21
ATOM     21  N   UNL     1       2.734   4.910  18.142  0.00  0.00    +0.000 NA
ATOM     22  C   UNL     1       2.513   5.790  19.291  0.00  0.00    +0.000 C 
ATOM     23  C   UNL     1       2.062   5.078  20.572  0.00  0.00    +0.000 C 
ATOM     24  C   UNL     1       1.154   3.837  20.402  0.00  0.00    +0.000 C 
ATOM     25  C   UNL     1       1.530   2.736  21.406  0.00  0.00    +0.000 C 
ATOM     26  C   UNL     1       1.111   3.220  18.993  0.00  0.00    +0.000 C 
ATOM     27  C   UNL     1       1.473   4.197  17.881  0.00  0.00    +0.000 C 
ENDBRANCH  20  21
ENDBRANCH   7  20
TORSDOF 4
ENDMDL
