MODEL 1
REMARK VINA RESULT:      -7.9      0.000      0.000
REMARK  Name = 
REMARK  4 active torsions:
REMARK  status: ('A' for Active; 'I' for Inactive)
REMARK    1  A    between atoms: C_1  and  C_2
REMARK    2  A    between atoms: C_2  and  C_3
REMARK    3  A    between atoms: C_3  and  C_4
REMARK    4  A    between atoms: C_15  and  N_16
REMARK                            x       y       z     vdW  Elec       q    Type
REMARK                         _______ _______ _______ _____ _____    ______ ____
ROOT
ATOM      1  C   UNL     1       5.561   5.033  15.156  0.00  0.00    +0.000 C 
ATOM      2  C   UNL     1       5.892   6.244  16.034  0.00  0.00    +0.000 C 
ATOM      3  C   UNL     1       4.672   6.597  16.892  0.00  0.00    +0.000 C 
ATOM      4  C   UNL     1       4.062   5.409  17.597  0.00  0.00    +0.000 A 
ATOM      5  N   UNL     1       3.196   5.698  18.595  0.00  0.00    +0.000 NA
ATOM      6  C   UNL     1       2.622   4.688  19.267  0.00  0.00    +0.000 A 
ATOM      7  C   UNL     1       1.749   5.000  20.298  0.00  0.00    +0.000 A 
ATOM      8  C   UNL     1       1.115   4.017  21.065  0.00  0.00    +0.000 A 
ATOM      9  C   UNL     1       1.360   2.677  20.798  0.00  0.00    +0.000 A 
ATOM     10  C   UNL     1       2.236   2.337  19.769  0.00  0.00    +0.000 A 
ATOM     11  C   UNL     1       2.874   3.328  18.984  0.00  0.00    +0.000 A 
ATOM     12  C   UNL     1       3.746   3.037  17.905  0.00  0.00    +0.000 A 
ATOM     13  C   UNL     1       4.348   4.101  17.208  0.00  0.00    +0.000 A 
ATOM     14  C   UNL     1       5.293   3.831  16.070  0.00  0.00    +0.000 C 
ENDROOT
BRANCH  12  15
ATOM     15  N   UNL     1       4.186   1.709  17.675  0.00  0.00    +0.000 N 
ATOM     16  H   UNL     1       5.186   1.578  17.769  0.00  0.00    +0.000 HD
ATOM     17  H   UNL     1       3.678   0.992  18.179  0.00  0.00    +0.000 HD
ENDBRANCH  12  15
BRANCH   1  18
ATOM     18  C   UNL     1       6.675   4.710  14.142  0.00  0.00    +0.000 C 
BRANCH  18  20
ATOM     19  C   UNL     1       7.024   3.736  11.826  0.00  0.00    +0.000 C 
ATOM     20  C   UNL     1       6.223   3.665  13.113  0.00  0.00    +0.000 C 
ENDBRANCH  18  20
ENDBRANCH   1  18
TORSDOF 3
ENDMDL
MODEL 2
REMARK VINA RESULT:      -7.4      1.848      3.717
REMARK  Name = 
REMARK  4 active torsions:
REMARK  status: ('A' for Active; 'I' for Inactive)
REMARK    1  A    between atoms: C_1  and  C_2
REMARK    2  A    between atoms: C_2  and  C_3
REMARK    3  A    between atoms: C_3  and  C_4
REMARK    4  A    between atoms: C_15  and  N_16
REMARK                            x       y       z     vdW  Elec       q    Type
REMARK                         _______ _______ _______ _____ _____    ______ ____
ROOT
ATOM      1  C   UNL     1       6.792   6.220  17.182  0.00  0.00    +0.000 C 
ATOM      2  C   UNL     1       6.438   5.526  15.864  0.00  0.00    +0.000 C 
ATOM      3  C   UNL     1       5.754   4.187  16.162  0.00  0.00    +0.000 C 
ATOM      4  C   UNL     1       4.644   4.288  17.183  0.00  0.00    +0.000 A 
ATOM      5  N   UNL     1       3.812   3.224  17.254  0.00  0.00    +0.000 NA
ATOM      6  C   UNL     1       2.802   3.250  18.136  0.00  0.00    +0.000 A 
ATOM      7  C   UNL     1       1.948   2.159  18.186  0.00  0.00    +0.000 A 
ATOM      8  C   UNL     1       0.858   2.102  19.062  0.00  0.00    +0.000 A 
ATOM      9  C   UNL     1       0.607   3.168  19.914  0.00  0.00    +0.000 A 
ATOM     10  C   UNL     1       1.449   4.278  19.880  0.00  0.00    +0.000 A 
ATOM     11  C   UNL     1       2.559   4.338  19.003  0.00  0.00    +0.000 A 
ATOM     12  C   UNL     1       3.465   5.427  18.954  0.00  0.00    +0.000 A 
ATOM     13  C   UNL     1       4.520   5.394  18.022  0.00  0.00    +0.000 A 
ATOM     14  C   UNL     1       5.490   6.539  17.927  0.00  0.00    +0.000 C 
ENDROOT
BRANCH  12  15
ATOM     15  N   UNL     1       3.189   6.625  19.659  0.00  0.00    +0.000 N 
ATOM     16  H   UNL     1       2.405   7.153  19.295  0.00  0.00    +0.000 HD
ATOM     17  H   UNL     1       3.123   6.528  20.665  0.00  0.00    +0.000 HD
ENDBRANCH  12  15
BRANCH   1  18
ATOM     18  C   UNL     1       7.631   7.496  16.977  0.00  0.00    +0.000 C 
BRANCH  18  20
ATOM     19  C   UNL     1       8.521   9.507  18.241  0.00  0.00    +0.000 C 
ATOM     20  C   UNL     1       8.195   8.026  18.302  0.00  0.00    +0.000 C 
ENDBRANCH  18  20
ENDBRANCH   1  18
TORSDOF 3
ENDMDL
MODEL 3
REMARK VINA RESULT:      -7.1      1.352      1.375
REMARK  Name = 
REMARK  4 active torsions:
REMARK  status: ('A' for Active; 'I' for Inactive)
REMARK    1  A    between atoms: C_1  and  C_2
REMARK    2  A    between atoms: C_2  and  C_3
REMARK    3  A    between atoms: C_3  and  C_4
REMARK    4  A    between atoms: C_15  and  N_16
REMARK                            x       y       z     vdW  Elec       q    Type
REMARK                         _______ _______ _______ _____ _____    ______ ____
ROOT
ATOM      1  C   UNL     1       6.342   4.991  15.777  0.00  0.00    +0.000 C 
ATOM      2  C   UNL     1       7.272   4.745  16.969  0.00  0.00    +0.000 C 
ATOM      3  C   UNL     1       6.557   5.150  18.262  0.00  0.00    +0.000 C 
ATOM      4  C   UNL     1       5.158   4.593  18.382  0.00  0.00    +0.000 A 
ATOM      5  N   UNL     1       4.604   4.652  19.614  0.00  0.00    +0.000 NA
ATOM      6  C   UNL     1       3.365   4.170  19.791  0.00  0.00    +0.000 A 
ATOM      7  C   UNL     1       2.817   4.223  21.064  0.00  0.00    +0.000 A 
ATOM      8  C   UNL     1       1.538   3.732  21.349  0.00  0.00    +0.000 A 
ATOM      9  C   UNL     1       0.781   3.164  20.334  0.00  0.00    +0.000 A 
ATOM     10  C   UNL     1       1.310   3.096  19.047  0.00  0.00    +0.000 A 
ATOM     11  C   UNL     1       2.600   3.600  18.750  0.00  0.00    +0.000 A 
ATOM     12  C   UNL     1       3.171   3.587  17.453  0.00  0.00    +0.000 A 
ATOM     13  C   UNL     1       4.474   4.090  17.276  0.00  0.00    +0.000 A 
ATOM     14  C   UNL     1       5.120   4.075  15.918  0.00  0.00    +0.000 C 
ENDROOT
BRANCH  12  15
ATOM     15  N   UNL     1       2.544   2.875  16.399  0.00  0.00    +0.000 N 
ATOM     16  H   UNL     1       2.399   3.419  15.557  0.00  0.00    +0.000 HD
ATOM     17  H   UNL     1       2.954   1.975  16.182  0.00  0.00    +0.000 HD
ENDBRANCH  12  15
BRANCH   1  18
ATOM     18  C   UNL     1       7.039   4.766  14.421  0.00  0.00    +0.000 C 
BRANCH  18  20
ATOM     19  C   UNL     1       6.814   3.736  12.114  0.00  0.00    +0.000 C 
ATOM     20  C   UNL     1       6.219   3.847  13.505  0.00  0.00    +0.000 C 
ENDBRANCH  18  20
ENDBRANCH   1  18
TORSDOF 3
ENDMDL
MODEL 4
REMARK VINA RESULT:      -7.1      2.902      4.502
REMARK  Name = 
REMARK  4 active torsions:
REMARK  status: ('A' for Active; 'I' for Inactive)
REMARK    1  A    between atoms: C_1  and  C_2
REMARK    2  A    between atoms: C_2  and  C_3
REMARK    3  A    between atoms: C_3  and  C_4
REMARK    4  A    between atoms: C_15  and  N_16
REMARK                            x       y       z     vdW  Elec       q    Type
REMARK                         _______ _______ _______ _____ _____    ______ ____
ROOT
ATOM      1  C   UNL     1       5.406   3.804  12.277  0.00  0.00    +0.000 C 
ATOM      2  C   UNL     1       6.930   3.895  12.154  0.00  0.00    +0.000 C 
ATOM      3  C   UNL     1       7.454   4.969  13.112  0.00  0.00    +0.000 C 
ATOM      4  C   UNL     1       6.904   4.852  14.515  0.00  0.00    +0.000 A 
ATOM      5  N   UNL     1       7.555   5.562  15.463  0.00  0.00    +0.000 NA
ATOM      6  C   UNL     1       7.121   5.498  16.732  0.00  0.00    +0.000 A 
ATOM      7  C   UNL     1       7.809   6.219  17.696  0.00  0.00    +0.000 A 
ATOM      8  C   UNL     1       7.442   6.203  19.046  0.00  0.00    +0.000 A 
ATOM      9  C   UNL     1       6.355   5.440  19.450  0.00  0.00    +0.000 A 
ATOM     10  C   UNL     1       5.649   4.703  18.501  0.00  0.00    +0.000 A 
ATOM     11  C   UNL     1       6.011   4.723  17.132  0.00  0.00    +0.000 A 
ATOM     12  C   UNL     1       5.307   4.021  16.121  0.00  0.00    +0.000 A 
ATOM     13  C   UNL     1       5.771   4.089  14.794  0.00  0.00    +0.000 A 
ATOM     14  C   UNL     1       5.061   3.343  13.698  0.00  0.00    +0.000 C 
ENDROOT
BRANCH  12  15
ATOM     15  N   UNL     1       4.298   3.086  16.466  0.00  0.00    +0.000 N 
ATOM     16  H   UNL     1       3.935   3.191  17.405  0.00  0.00    +0.000 HD
ATOM     17  H   UNL     1       3.545   2.997  15.795  0.00  0.00    +0.000 HD
ENDBRANCH  12  15
BRANCH   1  18
ATOM     18  C   UNL     1       4.778   2.863  11.231  0.00  0.00    +0.000 C 
BRANCH  18  20
ATOM     19  C   UNL     1       3.128   4.043   9.707  0.00  0.00    +0.000 C 
ATOM     20  C   UNL     1       3.307   3.210  10.963  0.00  0.00    +0.000 C 
ENDBRANCH  18  20
ENDBRANCH   1  18
TORSDOF 3
ENDMDL
MODEL 5
REMARK VINA RESULT:      -6.7      3.340      6.944
REMARK  Name = 
REMARK  4 active torsions:
REMARK  status: ('A' for Active; 'I' for Inactive)
REMARK    1  A    between atoms: C_1  and  C_2
REMARK    2  A    between atoms: C_2  and  C_3
REMARK    3  A    between atoms: C_3  and  C_4
REMARK    4  A    between atoms: C_15  and  N_16
REMARK                            x       y       z     vdW  Elec       q    Type
REMARK                         _______ _______ _______ _____ _____    ______ ____
ROOT
ATOM      1  C   UNL     1       0.963   9.563  20.103  0.00  0.00    +0.000 C 
ATOM      2  C   UNL     1       0.657   9.736  18.612  0.00  0.00    +0.000 C 
ATOM      3  C   UNL     1       1.907   9.393  17.794  0.00  0.00    +0.000 C 
ATOM      4  C   UNL     1       2.554   8.087  18.195  0.00  0.00    +0.000 A 
ATOM      5  N   UNL     1       3.455   7.585  17.321  0.00  0.00    +0.000 NA
ATOM      6  C   UNL     1       4.064   6.426  17.613  0.00  0.00    +0.000 A 
ATOM      7  C   UNL     1       4.974   5.916  16.699  0.00  0.00    +0.000 A 
ATOM      8  C   UNL     1       5.646   4.706  16.909  0.00  0.00    +0.000 A 
ATOM      9  C   UNL     1       5.402   3.979  18.066  0.00  0.00    +0.000 A 
ATOM     10  C   UNL     1       4.489   4.468  18.998  0.00  0.00    +0.000 A 
ATOM     11  C   UNL     1       3.812   5.696  18.795  0.00  0.00    +0.000 A 
ATOM     12  C   UNL     1       2.902   6.256  19.726  0.00  0.00    +0.000 A 
ATOM     13  C   UNL     1       2.263   7.470  19.410  0.00  0.00    +0.000 A 
ATOM     14  C   UNL     1       1.277   8.085  20.365  0.00  0.00    +0.000 C 
ENDROOT
BRANCH  12  15
ATOM     15  N   UNL     1       2.464   5.503  20.845  0.00  0.00    +0.000 N 
ATOM     16  H   UNL     1       2.539   4.500  20.728  0.00  0.00    +0.000 HD
ATOM     17  H   UNL     1       2.847   5.793  21.737  0.00  0.00    +0.000 HD
ENDBRANCH  12  15
BRANCH   1  18
ATOM     18  C   UNL     1      -0.187  10.045  21.007  0.00  0.00    +0.000 C 
BRANCH  18  20
ATOM     19  C   UNL     1      -0.008   9.526  23.484  0.00  0.00    +0.000 C 
ATOM     20  C   UNL     1      -0.489   9.041  22.128  0.00  0.00    +0.000 C 
ENDBRANCH  18  20
ENDBRANCH   1  18
TORSDOF 3
ENDMDL
MODEL 6
REMARK VINA RESULT:      -6.6      2.514      3.993
REMARK  Name = 
REMARK  4 active torsions:
REMARK  status: ('A' for Active; 'I' for Inactive)
REMARK    1  A    between atoms: C_1  and  C_2
REMARK    2  A    between atoms: C_2  and  C_3
REMARK    3  A    between atoms: C_3  and  C_4
REMARK    4  A    between atoms: C_15  and  N_16
REMARK                            x       y       z     vdW  Elec       q    Type
REMARK                         _______ _______ _______ _____ _____    ______ ____
ROOT
ATOM      1  C   UNL     1       7.192   6.768  17.940  0.00  0.00    +0.000 C 
ATOM      2  C   UNL     1       7.545   5.371  17.421  0.00  0.00    +0.000 C 
ATOM      3  C   UNL     1       6.993   4.316  18.385  0.00  0.00    +0.000 C 
ATOM      4  C   UNL     1       5.548   4.540  18.766  0.00  0.00    +0.000 A 
ATOM      5  N   UNL     1       4.924   3.493  19.351  0.00  0.00    +0.000 NA
ATOM      6  C   UNL     1       3.638   3.623  19.710  0.00  0.00    +0.000 A 
ATOM      7  C   UNL     1       3.008   2.535  20.294  0.00  0.00    +0.000 A 
ATOM      8  C   UNL     1       1.665   2.571  20.688  0.00  0.00    +0.000 A 
ATOM      9  C   UNL     1       0.925   3.728  20.490  0.00  0.00    +0.000 A 
ATOM     10  C   UNL     1       1.534   4.834  19.902  0.00  0.00    +0.000 A 
ATOM     11  C   UNL     1       2.895   4.807  19.510  0.00  0.00    +0.000 A 
ATOM     12  C   UNL     1       3.572   5.914  18.941  0.00  0.00    +0.000 A 
ATOM     13  C   UNL     1       4.920   5.768  18.562  0.00  0.00    +0.000 A 
ATOM     14  C   UNL     1       5.666   6.915  17.937  0.00  0.00    +0.000 C 
ENDROOT
BRANCH  12  15
ATOM     15  N   UNL     1       2.854   7.071  18.547  0.00  0.00    +0.000 N 
ATOM     16  H   UNL     1       3.326   7.944  18.746  0.00  0.00    +0.000 HD
ATOM     17  H   UNL     1       2.503   7.059  17.596  0.00  0.00    +0.000 HD
ENDBRANCH  12  15
BRANCH   1  18
ATOM     18  C   UNL     1       7.851   7.893  17.119  0.00  0.00    +0.000 C 
BRANCH  18  20
ATOM     19  C   UNL     1       8.900   9.610  18.663  0.00  0.00    +0.000 C 
ATOM     20  C   UNL     1       7.701   9.259  17.802  0.00  0.00    +0.000 C 
ENDBRANCH  18  20
ENDBRANCH   1  18
TORSDOF 3
ENDMDL
MODEL 7
REMARK VINA RESULT:      -6.6      3.692      5.566
REMARK  Name = 
REMARK  4 active torsions:
REMARK  status: ('A' for Active; 'I' for Inactive)
REMARK    1  A    between atoms: C_1  and  C_2
REMARK    2  A    between atoms: C_2  and  C_3
REMARK    3  A    between atoms: C_3  and  C_4
REMARK    4  A    between atoms: C_15  and  N_16
REMARK                            x       y       z     vdW  Elec       q    Type
REMARK                         _______ _______ _______ _____ _____    ______ ____
ROOT
ATOM      1  C   UNL     1       4.143   6.436  17.678  0.00  0.00    +0.000 C 
ATOM      2  C   UNL     1       3.382   5.286  18.345  0.00  0.00    +0.000 C 
ATOM      3  C   UNL     1       2.921   5.724  19.740  0.00  0.00    +0.000 C 
ATOM      4  C   UNL     1       2.241   7.073  19.758  0.00  0.00    +0.000 A 
ATOM      5  N   UNL     1       1.546   7.366  20.880  0.00  0.00    +0.000 NA
ATOM      6  C   UNL     1       0.913   8.547  20.960  0.00  0.00    +0.000 A 
ATOM      7  C   UNL     1       0.192   8.827  22.111  0.00  0.00    +0.000 A 
ATOM      8  C   UNL     1      -0.512  10.024  22.279  0.00  0.00    +0.000 A 
ATOM      9  C   UNL     1      -0.502  10.973  21.266  0.00  0.00    +0.000 A 
ATOM     10  C   UNL     1       0.213  10.714  20.099  0.00  0.00    +0.000 A 
ATOM     11  C   UNL     1       0.935   9.508  19.926  0.00  0.00    +0.000 A 
ATOM     12  C   UNL     1       1.706   9.210  18.774  0.00  0.00    +0.000 A 
ATOM     13  C   UNL     1       2.362   7.968  18.696  0.00  0.00    +0.000 A 
ATOM     14  C   UNL     1       3.174   7.609  17.481  0.00  0.00    +0.000 C 
ENDROOT
BRANCH  12  15
ATOM     15  N   UNL     1       1.633  10.040  17.627  0.00  0.00    +0.000 N 
ATOM     16  H   UNL     1       0.841   9.851  17.024  0.00  0.00    +0.000 HD
ATOM     17  H   UNL     1       1.723  11.033  17.805  0.00  0.00    +0.000 HD
ENDBRANCH  12  15
BRANCH   1  18
ATOM     18  C   UNL     1       4.784   6.028  16.338  0.00  0.00    +0.000 C 
BRANCH  18  20
ATOM     19  C   UNL     1       6.839   6.766  17.630  0.00  0.00    +0.000 C 
ATOM     20  C   UNL     1       6.317   6.008  16.424  0.00  0.00    +0.000 C 
ENDBRANCH  18  20
ENDBRANCH   1  18
TORSDOF 3
ENDMDL
MODEL 8
REMARK VINA RESULT:      -6.5      1.059      1.161
REMARK  Name = 
REMARK  4 active torsions:
REMARK  status: ('A' for Active; 'I' for Inactive)
REMARK    1  A    between atoms: C_1  and  C_2
REMARK    2  A    between atoms: C_2  and  C_3
REMARK    3  A    between atoms: C_3  and  C_4
REMARK    4  A    between atoms: C_15  and  N_16
REMARK                            x       y       z     vdW  Elec       q    Type
REMARK                         _______ _______ _______ _____ _____    ______ ____
ROOT
ATOM      1  C   UNL     1       5.893   5.214  16.039  0.00  0.00    +0.000 C 
ATOM      2  C   UNL     1       5.487   6.616  16.503  0.00  0.00    +0.000 C 
ATOM      3  C   UNL     1       4.051   6.579  17.035  0.00  0.00    +0.000 C 
ATOM      4  C   UNL     1       3.794   5.453  18.009  0.00  0.00    +0.000 A 
ATOM      5  N   UNL     1       2.659   5.553  18.738  0.00  0.00    +0.000 NA
ATOM      6  C   UNL     1       2.373   4.589  19.627  0.00  0.00    +0.000 A 
ATOM      7  C   UNL     1       1.214   4.714  20.378  0.00  0.00    +0.000 A 
ATOM      8  C   UNL     1       0.840   3.768  21.339  0.00  0.00    +0.000 A 
ATOM      9  C   UNL     1       1.649   2.663  21.562  0.00  0.00    +0.000 A 
ATOM     10  C   UNL     1       2.820   2.516  20.822  0.00  0.00    +0.000 A 
ATOM     11  C   UNL     1       3.200   3.465  19.842  0.00  0.00    +0.000 A 
ATOM     12  C   UNL     1       4.361   3.345  19.038  0.00  0.00    +0.000 A 
ATOM     13  C   UNL     1       4.657   4.364  18.112  0.00  0.00    +0.000 A 
ATOM     14  C   UNL     1       5.891   4.281  17.256  0.00  0.00    +0.000 C 
ENDROOT
BRANCH  12  15
ATOM     15  N   UNL     1       5.327   2.346  19.316  0.00  0.00    +0.000 N 
ATOM     16  H   UNL     1       6.120   2.671  19.856  0.00  0.00    +0.000 HD
ATOM     17  H   UNL     1       4.959   1.483  19.697  0.00  0.00    +0.000 HD
ENDBRANCH  12  15
BRANCH   1  18
ATOM     18  C   UNL     1       7.265   5.193  15.338  0.00  0.00    +0.000 C 
BRANCH  18  20
ATOM     19  C   UNL     1       5.996   3.851  13.598  0.00  0.00    +0.000 C 
ATOM     20  C   UNL     1       7.140   4.814  13.855  0.00  0.00    +0.000 C 
ENDBRANCH  18  20
ENDBRANCH   1  18
TORSDOF 3
ENDMDL
MODEL 9
REMARK VINA RESULT:      -6.4      4.186      6.043
REMARK  Name = 
REMARK  4 active torsions:
REMARK  status: ('A' for Active; 'I' for Inactive)
REMARK    1  A    between atoms: C_1  and  C_2
REMARK    2  A    between atoms: C_2  and  C_3
REMARK    3  A    between atoms: C_3  and  C_4
REMARK    4  A    between atoms: C_15  and  N_16
REMARK                            x       y       z     vdW  Elec       q    Type
REMARK                         _______ _______ _______ _____ _____    ______ ____
ROOT
ATOM      1  C   UNL     1       3.623   7.162  17.875  0.00  0.00    +0.000 C 
ATOM      2  C   UNL     1       2.929   5.955  18.513  0.00  0.00    +0.000 C 
ATOM      3  C   UNL     1       2.533   6.300  19.953  0.00  0.00    +0.000 C 
ATOM      4  C   UNL     1       1.821   7.627  20.084  0.00  0.00    +0.000 A 
ATOM      5  N   UNL     1       1.181   7.836  21.257  0.00  0.00    +0.000 NA
ATOM      6  C   UNL     1       0.524   8.993  21.438  0.00  0.00    +0.000 A 
ATOM      7  C   UNL     1      -0.141   9.186  22.639  0.00  0.00    +0.000 A 
ATOM      8  C   UNL     1      -0.865  10.352  22.914  0.00  0.00    +0.000 A 
ATOM      9  C   UNL     1      -0.932  11.357  21.958  0.00  0.00    +0.000 A 
ATOM     10  C   UNL     1      -0.276  11.184  20.742  0.00  0.00    +0.000 A 
ATOM     11  C   UNL     1       0.466  10.011  20.462  0.00  0.00    +0.000 A 
ATOM     12  C   UNL     1       1.181   9.800  19.256  0.00  0.00    +0.000 A 
ATOM     13  C   UNL     1       1.863   8.583  19.071  0.00  0.00    +0.000 A 
ATOM     14  C   UNL     1       2.617   8.316  17.797  0.00  0.00    +0.000 C 
ENDROOT
BRANCH  12  15
ATOM     15  N   UNL     1       1.026  10.691  18.164  0.00  0.00    +0.000 N 
ATOM     16  H   UNL     1       0.178  11.244  18.193  0.00  0.00    +0.000 HD
ATOM     17  H   UNL     1       1.831  11.274  17.964  0.00  0.00    +0.000 HD
ENDBRANCH  12  15
BRANCH   1  18
ATOM     18  C   UNL     1       4.202   6.848  16.482  0.00  0.00    +0.000 C 
BRANCH  18  20
ATOM     19  C   UNL     1       5.254   4.630  15.840  0.00  0.00    +0.000 C 
ATOM     20  C   UNL     1       5.442   5.947  16.570  0.00  0.00    +0.000 C 
ENDBRANCH  18  20
ENDBRANCH   1  18
TORSDOF 3
ENDMDL
