MODEL 1
REMARK VINA RESULT:      -9.9      0.000      0.000
REMARK  Name = 
REMARK  10 active torsions:
REMARK  status: ('A' for Active; 'I' for Inactive)
REMARK    1  A    between atoms: O_1  and  C_2
REMARK    2  A    between atoms: C_2  and  C_3
REMARK    3  A    between atoms: C_2  and  C_30
REMARK    4  A    between atoms: C_3  and  N_4
REMARK    5  A    between atoms: N_4  and  C_5
REMARK    6  A    between atoms: N_4  and  C_17
REMARK    7  A    between atoms: C_5  and  C_6
REMARK    8  A    between atoms: C_10  and  C_11
REMARK    9  A    between atoms: C_21  and  O_22
REMARK   10  A    between atoms: O_22  and  C_23
REMARK                            x       y       z     vdW  Elec       q    Type
REMARK                         _______ _______ _______ _____ _____    ______ ____
ROOT
ATOM      1  N   UNL     1       3.538   5.163  18.573  0.00  0.00    +0.000 N 
ENDROOT
BRANCH   1   2
ATOM      2  C   UNL     1       4.907   5.240  18.295  0.00  0.00    +0.000 A 
ATOM      3  C   UNL     1       5.875   5.257  19.309  0.00  0.00    +0.000 A 
ATOM      4  C   UNL     1       7.245   5.442  19.045  0.00  0.00    +0.000 A 
ATOM      5  C   UNL     1       7.675   5.648  17.744  0.00  0.00    +0.000 A 
ATOM      6  C   UNL     1       6.739   5.643  16.719  0.00  0.00    +0.000 A 
ATOM      7  C   UNL     1       5.392   5.359  16.985  0.00  0.00    +0.000 A 
BRANCH   6   8
ATOM      8  O   UNL     1       7.216   5.898  15.445  0.00  0.00    +0.000 OA
BRANCH   8   9
ATOM      9  C   UNL     1       6.799   5.077  14.412  0.00  0.00    +0.000 A 
ATOM     10  C   UNL     1       5.616   4.339  14.426  0.00  0.00    +0.000 A 
ATOM     11  C   UNL     1       5.303   3.498  13.355  0.00  0.00    +0.000 A 
ATOM     12  C   UNL     1       6.144   3.443  12.248  0.00  0.00    +0.000 A 
ATOM     13  C   UNL     1       7.293   4.234  12.204  0.00  0.00    +0.000 A 
ATOM     14  C   UNL     1       7.622   5.045  13.288  0.00  0.00    +0.000 A 
ENDBRANCH   8   9
ENDBRANCH   6   8
ENDBRANCH   1   2
BRANCH   1  15
ATOM     15  C   UNL     1       2.720   4.070  17.983  0.00  0.00    +0.000 C 
BRANCH  15  16
ATOM     16  C   UNL     1       2.575   2.810  18.876  0.00  0.00    +0.000 C 
BRANCH  16  17
ATOM     17  C   UNL     1       1.156   2.793  19.484  0.00  0.00    +0.000 C 
ATOM     18  F   UNL     1       0.598   4.024  19.536  0.00  0.00    +0.000 F 
ATOM     19  F   UNL     1       0.334   2.021  18.732  0.00  0.00    +0.000 F 
ATOM     20  F   UNL     1       1.133   2.291  20.740  0.00  0.00    +0.000 F 
ENDBRANCH  16  17
BRANCH  16  21
ATOM     21  O   UNL     1       2.862   1.587  18.172  0.00  0.00    +0.000 OA
ATOM     22  H   UNL     1       2.540   0.855  18.730  0.00  0.00    +0.000 HD
ENDBRANCH  16  21
ENDBRANCH  15  16
ENDBRANCH   1  15
BRANCH   1  23
ATOM     23  C   UNL     1       2.949   5.867  19.730  0.00  0.00    +0.000 C 
BRANCH  23  24
ATOM     24  C   UNL     1       2.227   7.171  19.409  0.00  0.00    +0.000 A 
ATOM     25  C   UNL     1       2.271   7.677  18.102  0.00  0.00    +0.000 A 
ATOM     26  C   UNL     1       1.826   8.970  17.827  0.00  0.00    +0.000 A 
ATOM     27  C   UNL     1       1.354   9.791  18.856  0.00  0.00    +0.000 A 
ATOM     28  C   UNL     1       1.291   9.320  20.174  0.00  0.00    +0.000 A 
ATOM     29  C   UNL     1       1.683   7.985  20.416  0.00  0.00    +0.000 A 
BRANCH  28  30
ATOM     30  C   UNL     1       0.789  10.211  21.306  0.00  0.00    +0.000 C 
ATOM     31  C   UNL     1      -0.471  11.014  20.943  0.00  0.00    +0.000 C 
ATOM     32  C   UNL     1      -1.106  11.387  22.266  0.00  0.00    +0.000 C 
ATOM     33  C   UNL     1      -0.886  10.167  23.138  0.00  0.00    +0.000 C 
ATOM     34  C   UNL     1       0.403   9.511  22.632  0.00  0.00    +0.000 C 
ENDBRANCH  28  30
ENDBRANCH  23  24
ENDBRANCH   1  23
TORSDOF 10
ENDMDL
MODEL 2
REMARK VINA RESULT:      -9.6      2.721      8.508
REMARK  Name = 
REMARK  10 active torsions:
REMARK  status: ('A' for Active; 'I' for Inactive)
REMARK    1  A    between atoms: O_1  and  C_2
REMARK    2  A    between atoms: C_2  and  C_3
REMARK    3  A    between atoms: C_2  and  C_30
REMARK    4  A    between atoms: C_3  and  N_4
REMARK    5  A    between atoms: N_4  and  C_5
REMARK    6  A    between atoms: N_4  and  C_17
REMARK    7  A    between atoms: C_5  and  C_6
REMARK    8  A    between atoms: C_10  and  C_11
REMARK    9  A    between atoms: C_21  and  O_22
REMARK   10  A    between atoms: O_22  and  C_23
REMARK                            x       y       z     vdW  Elec       q    Type
REMARK                         _______ _______ _______ _____ _____    ______ ____
ROOT
ATOM      1  N   UNL     1       2.833   6.834  18.288  0.00  0.00    +0.000 N 
ENDROOT
BRANCH   1   2
ATOM      2  C   UNL     1       2.138   7.812  19.008  0.00  0.00    +0.000 A 
ATOM      3  C   UNL     1       1.832   7.662  20.368  0.00  0.00    +0.000 A 
ATOM      4  C   UNL     1       1.043   8.589  21.073  0.00  0.00    +0.000 A 
ATOM      5  C   UNL     1       0.510   9.685  20.414  0.00  0.00    +0.000 A 
ATOM      6  C   UNL     1       0.791   9.858  19.066  0.00  0.00    +0.000 A 
ATOM      7  C   UNL     1       1.659   8.981  18.400  0.00  0.00    +0.000 A 
BRANCH   6   8
ATOM      8  O   UNL     1       0.198  10.943  18.444  0.00  0.00    +0.000 OA
BRANCH   8   9
ATOM      9  C   UNL     1      -1.170  10.914  18.238  0.00  0.00    +0.000 A 
ATOM     10  C   UNL     1      -2.070  11.806  18.820  0.00  0.00    +0.000 A 
ATOM     11  C   UNL     1      -3.441  11.667  18.589  0.00  0.00    +0.000 A 
ATOM     12  C   UNL     1      -3.902  10.674  17.731  0.00  0.00    +0.000 A 
ATOM     13  C   UNL     1      -2.997   9.826  17.094  0.00  0.00    +0.000 A 
ATOM     14  C   UNL     1      -1.633   9.942  17.352  0.00  0.00    +0.000 A 
ENDBRANCH   8   9
ENDBRANCH   6   8
ENDBRANCH   1   2
BRANCH   1  15
ATOM     15  C   UNL     1       2.252   5.473  18.130  0.00  0.00    +0.000 C 
BRANCH  15  16
ATOM     16  C   UNL     1       2.674   4.453  19.220  0.00  0.00    +0.000 C 
BRANCH  16  17
ATOM     17  C   UNL     1       3.315   3.229  18.531  0.00  0.00    +0.000 C 
ATOM     18  F   UNL     1       2.765   2.060  18.932  0.00  0.00    +0.000 F 
ATOM     19  F   UNL     1       3.143   3.305  17.189  0.00  0.00    +0.000 F 
ATOM     20  F   UNL     1       4.645   3.141  18.756  0.00  0.00    +0.000 F 
ENDBRANCH  16  17
BRANCH  16  21
ATOM     21  O   UNL     1       3.550   5.020  20.211  0.00  0.00    +0.000 OA
ATOM     22  H   UNL     1       3.578   5.981  20.051  0.00  0.00    +0.000 HD
ENDBRANCH  16  21
ENDBRANCH  15  16
ENDBRANCH   1  15
BRANCH   1  23
ATOM     23  C   UNL     1       3.912   7.195  17.348  0.00  0.00    +0.000 C 
BRANCH  23  24
ATOM     24  C   UNL     1       5.052   6.190  17.237  0.00  0.00    +0.000 A 
ATOM     25  C   UNL     1       6.008   6.119  18.260  0.00  0.00    +0.000 A 
ATOM     26  C   UNL     1       7.181   5.385  18.085  0.00  0.00    +0.000 A 
ATOM     27  C   UNL     1       7.434   4.731  16.876  0.00  0.00    +0.000 A 
ATOM     28  C   UNL     1       6.502   4.775  15.830  0.00  0.00    +0.000 A 
ATOM     29  C   UNL     1       5.292   5.467  16.056  0.00  0.00    +0.000 A 
BRANCH  28  30
ATOM     30  C   UNL     1       6.773   4.076  14.502  0.00  0.00    +0.000 C 
ATOM     31  C   UNL     1       5.498   3.753  13.706  0.00  0.00    +0.000 C 
ATOM     32  C   UNL     1       5.951   3.581  12.272  0.00  0.00    +0.000 C 
ATOM     33  C   UNL     1       7.027   4.633  12.096  0.00  0.00    +0.000 C 
ATOM     34  C   UNL     1       7.657   4.831  13.479  0.00  0.00    +0.000 C 
ENDBRANCH  28  30
ENDBRANCH  23  24
ENDBRANCH   1  23
TORSDOF 10
ENDMDL
MODEL 3
REMARK VINA RESULT:      -9.5      2.460      8.257
REMARK  Name = 
REMARK  10 active torsions:
REMARK  status: ('A' for Active; 'I' for Inactive)
REMARK    1  A    between atoms: O_1  and  C_2
REMARK    2  A    between atoms: C_2  and  C_3
REMARK    3  A    between atoms: C_2  and  C_30
REMARK    4  A    between atoms: C_3  and  N_4
REMARK    5  A    between atoms: N_4  and  C_5
REMARK    6  A    between atoms: N_4  and  C_17
REMARK    7  A    between atoms: C_5  and  C_6
REMARK    8  A    between atoms: C_10  and  C_11
REMARK    9  A    between atoms: C_21  and  O_22
REMARK   10  A    between atoms: O_22  and  C_23
REMARK                            x       y       z     vdW  Elec       q    Type
REMARK                         _______ _______ _______ _____ _____    ______ ____
ROOT
ATOM      1  N   UNL     1       2.574   6.059  19.079  0.00  0.00    +0.000 N 
ENDROOT
BRANCH   1   2
ATOM      2  C   UNL     1       2.076   7.249  19.621  0.00  0.00    +0.000 A 
ATOM      3  C   UNL     1       1.799   7.389  20.988  0.00  0.00    +0.000 A 
ATOM      4  C   UNL     1       1.199   8.542  21.525  0.00  0.00    +0.000 A 
ATOM      5  C   UNL     1       0.830   9.582  20.687  0.00  0.00    +0.000 A 
ATOM      6  C   UNL     1       1.085   9.471  19.328  0.00  0.00    +0.000 A 
ATOM      7  C   UNL     1       1.773   8.360  18.820  0.00  0.00    +0.000 A 
BRANCH   6   8
ATOM      8  O   UNL     1       0.656  10.517  18.530  0.00  0.00    +0.000 OA
BRANCH   8   9
ATOM      9  C   UNL     1      -0.692  10.602  18.229  0.00  0.00    +0.000 A 
ATOM     10  C   UNL     1      -1.346   9.772  17.319  0.00  0.00    +0.000 A 
ATOM     11  C   UNL     1      -2.702   9.965  17.045  0.00  0.00    +0.000 A 
ATOM     12  C   UNL     1      -3.413  10.949  17.725  0.00  0.00    +0.000 A 
ATOM     13  C   UNL     1      -2.775  11.734  18.686  0.00  0.00    +0.000 A 
ATOM     14  C   UNL     1      -1.415  11.564  18.933  0.00  0.00    +0.000 A 
ENDBRANCH   8   9
ENDBRANCH   6   8
ENDBRANCH   1   2
BRANCH   1  15
ATOM     15  C   UNL     1       2.427   4.782  19.827  0.00  0.00    +0.000 C 
BRANCH  15  16
ATOM     16  C   UNL     1       1.563   3.707  19.119  0.00  0.00    +0.000 C 
BRANCH  16  17
ATOM     17  C   UNL     1       2.496   2.613  18.555  0.00  0.00    +0.000 C 
ATOM     18  F   UNL     1       2.274   1.401  19.115  0.00  0.00    +0.000 F 
ATOM     19  F   UNL     1       2.297   2.472  17.222  0.00  0.00    +0.000 F 
ATOM     20  F   UNL     1       3.804   2.901  18.734  0.00  0.00    +0.000 F 
ENDBRANCH  16  17
BRANCH  16  21
ATOM     21  O   UNL     1       0.550   3.147  19.974  0.00  0.00    +0.000 OA
ATOM     22  H   UNL     1       0.219   2.341  19.535  0.00  0.00    +0.000 HD
ENDBRANCH  16  21
ENDBRANCH  15  16
ENDBRANCH   1  15
BRANCH   1  23
ATOM     23  C   UNL     1       2.877   5.940  17.639  0.00  0.00    +0.000 C 
BRANCH  23  24
ATOM     24  C   UNL     1       4.353   5.802  17.286  0.00  0.00    +0.000 A 
ATOM     25  C   UNL     1       5.283   6.680  17.860  0.00  0.00    +0.000 A 
ATOM     26  C   UNL     1       6.594   6.734  17.387  0.00  0.00    +0.000 A 
ATOM     27  C   UNL     1       6.994   5.932  16.314  0.00  0.00    +0.000 A 
ATOM     28  C   UNL     1       6.095   5.039  15.716  0.00  0.00    +0.000 A 
ATOM     29  C   UNL     1       4.794   4.953  16.256  0.00  0.00    +0.000 A 
BRANCH  28  30
ATOM     30  C   UNL     1       6.518   4.167  14.537  0.00  0.00    +0.000 C 
ATOM     31  C   UNL     1       5.346   3.746  13.634  0.00  0.00    +0.000 C 
ATOM     32  C   UNL     1       5.973   3.382  12.305  0.00  0.00    +0.000 C 
ATOM     33  C   UNL     1       7.084   4.399  12.131  0.00  0.00    +0.000 C 
ATOM     34  C   UNL     1       7.538   4.776  13.545  0.00  0.00    +0.000 C 
ENDBRANCH  28  30
ENDBRANCH  23  24
ENDBRANCH   1  23
TORSDOF 10
ENDMDL
MODEL 4
REMARK VINA RESULT:      -9.4      2.504      8.306
REMARK  Name = 
REMARK  10 active torsions:
REMARK  status: ('A' for Active; 'I' for Inactive)
REMARK    1  A    between atoms: O_1  and  C_2
REMARK    2  A    between atoms: C_2  and  C_3
REMARK    3  A    between atoms: C_2  and  C_30
REMARK    4  A    between atoms: C_3  and  N_4
REMARK    5  A    between atoms: N_4  and  C_5
REMARK    6  A    between atoms: N_4  and  C_17
REMARK    7  A    between atoms: C_5  and  C_6
REMARK    8  A    between atoms: C_10  and  C_11
REMARK    9  A    between atoms: C_21  and  O_22
REMARK   10  A    between atoms: O_22  and  C_23
REMARK                            x       y       z     vdW  Elec       q    Type
REMARK                         _______ _______ _______ _____ _____    ______ ____
ROOT
ATOM      1  N   UNL     1       2.831   5.987  19.244  0.00  0.00    +0.000 N 
ENDROOT
BRANCH   1   2
ATOM      2  C   UNL     1       2.189   7.155  19.670  0.00  0.00    +0.000 A 
ATOM      3  C   UNL     1       1.720   7.314  20.982  0.00  0.00    +0.000 A 
ATOM      4  C   UNL     1       0.981   8.438  21.391  0.00  0.00    +0.000 A 
ATOM      5  C   UNL     1       0.664   9.427  20.473  0.00  0.00    +0.000 A 
ATOM      6  C   UNL     1       1.109   9.296  19.165  0.00  0.00    +0.000 A 
ATOM      7  C   UNL     1       1.928   8.220  18.796  0.00  0.00    +0.000 A 
BRANCH   6   8
ATOM      8  O   UNL     1       0.726  10.288  18.279  0.00  0.00    +0.000 OA
BRANCH   8   9
ATOM      9  C   UNL     1      -0.620  10.590  18.173  0.00  0.00    +0.000 A 
ATOM     10  C   UNL     1      -1.220  11.706  18.755  0.00  0.00    +0.000 A 
ATOM     11  C   UNL     1      -2.598  11.902  18.634  0.00  0.00    +0.000 A 
ATOM     12  C   UNL     1      -3.361  11.015  17.882  0.00  0.00    +0.000 A 
ATOM     13  C   UNL     1      -2.749   9.937  17.242  0.00  0.00    +0.000 A 
ATOM     14  C   UNL     1      -1.381   9.722  17.393  0.00  0.00    +0.000 A 
ENDBRANCH   8   9
ENDBRANCH   6   8
ENDBRANCH   1   2
BRANCH   1  15
ATOM     15  C   UNL     1       2.951   4.826  20.166  0.00  0.00    +0.000 C 
BRANCH  15  16
ATOM     16  C   UNL     1       2.684   3.444  19.513  0.00  0.00    +0.000 C 
BRANCH  16  17
ATOM     17  C   UNL     1       3.961   2.584  19.633  0.00  0.00    +0.000 C 
ATOM     18  F   UNL     1       5.086   3.281  19.353  0.00  0.00    +0.000 F 
ATOM     19  F   UNL     1       4.092   2.117  20.898  0.00  0.00    +0.000 F 
ATOM     20  F   UNL     1       3.943   1.509  18.812  0.00  0.00    +0.000 F 
ENDBRANCH  16  17
BRANCH  16  21
ATOM     21  O   UNL     1       1.540   2.771  20.070  0.00  0.00    +0.000 OA
ATOM     22  H   UNL     1       0.958   2.534  19.324  0.00  0.00    +0.000 HD
ENDBRANCH  16  21
ENDBRANCH  15  16
ENDBRANCH   1  15
BRANCH   1  23
ATOM     23  C   UNL     1       3.037   5.705  17.809  0.00  0.00    +0.000 C 
BRANCH  23  24
ATOM     24  C   UNL     1       4.491   5.664  17.350  0.00  0.00    +0.000 A 
ATOM     25  C   UNL     1       5.396   6.610  17.848  0.00  0.00    +0.000 A 
ATOM     26  C   UNL     1       6.662   6.748  17.280  0.00  0.00    +0.000 A 
ATOM     27  C   UNL     1       7.038   5.963  16.186  0.00  0.00    +0.000 A 
ATOM     28  C   UNL     1       6.162   5.003  15.661  0.00  0.00    +0.000 A 
ATOM     29  C   UNL     1       4.912   4.835  16.297  0.00  0.00    +0.000 A 
BRANCH  28  30
ATOM     30  C   UNL     1       6.556   4.149  14.460  0.00  0.00    +0.000 C 
ATOM     31  C   UNL     1       5.362   3.730  13.587  0.00  0.00    +0.000 C 
ATOM     32  C   UNL     1       5.953   3.386  12.236  0.00  0.00    +0.000 C 
ATOM     33  C   UNL     1       7.051   4.413  12.042  0.00  0.00    +0.000 C 
ATOM     34  C   UNL     1       7.543   4.777  13.447  0.00  0.00    +0.000 C 
ENDBRANCH  28  30
ENDBRANCH  23  24
ENDBRANCH   1  23
TORSDOF 10
ENDMDL
MODEL 5
REMARK VINA RESULT:      -9.4      2.435      8.374
REMARK  Name = 
REMARK  10 active torsions:
REMARK  status: ('A' for Active; 'I' for Inactive)
REMARK    1  A    between atoms: O_1  and  C_2
REMARK    2  A    between atoms: C_2  and  C_3
REMARK    3  A    between atoms: C_2  and  C_30
REMARK    4  A    between atoms: C_3  and  N_4
REMARK    5  A    between atoms: N_4  and  C_5
REMARK    6  A    between atoms: N_4  and  C_17
REMARK    7  A    between atoms: C_5  and  C_6
REMARK    8  A    between atoms: C_10  and  C_11
REMARK    9  A    between atoms: C_21  and  O_22
REMARK   10  A    between atoms: O_22  and  C_23
REMARK                            x       y       z     vdW  Elec       q    Type
REMARK                         _______ _______ _______ _____ _____    ______ ____
ROOT
ATOM      1  N   UNL     1       2.907   6.522  18.829  0.00  0.00    +0.000 N 
ENDROOT
BRANCH   1   2
ATOM      2  C   UNL     1       2.150   7.528  19.440  0.00  0.00    +0.000 A 
ATOM      3  C   UNL     1       1.682   7.416  20.757  0.00  0.00    +0.000 A 
ATOM      4  C   UNL     1       0.832   8.372  21.343  0.00  0.00    +0.000 A 
ATOM      5  C   UNL     1       0.403   9.461  20.601  0.00  0.00    +0.000 A 
ATOM      6  C   UNL     1       0.844   9.597  19.292  0.00  0.00    +0.000 A 
ATOM      7  C   UNL     1       1.769   8.691  18.754  0.00  0.00    +0.000 A 
BRANCH   6   8
ATOM      8  O   UNL     1       0.350  10.677  18.581  0.00  0.00    +0.000 OA
BRANCH   8   9
ATOM      9  C   UNL     1      -0.988  10.673  18.229  0.00  0.00    +0.000 A 
ATOM     10  C   UNL     1      -1.560   9.769  17.334  0.00  0.00    +0.000 A 
ATOM     11  C   UNL     1      -2.913   9.874  17.003  0.00  0.00    +0.000 A 
ATOM     12  C   UNL     1      -3.703  10.844  17.613  0.00  0.00    +0.000 A 
ATOM     13  C   UNL     1      -3.147  11.703  18.561  0.00  0.00    +0.000 A 
ATOM     14  C   UNL     1      -1.789  11.620  18.864  0.00  0.00    +0.000 A 
ENDBRANCH   8   9
ENDBRANCH   6   8
ENDBRANCH   1   2
BRANCH   1  15
ATOM     15  C   UNL     1       2.934   5.155  19.413  0.00  0.00    +0.000 C 
BRANCH  15  16
ATOM     16  C   UNL     1       2.073   4.107  18.661  0.00  0.00    +0.000 C 
BRANCH  16  17
ATOM     17  C   UNL     1       1.167   3.385  19.682  0.00  0.00    +0.000 C 
ATOM     18  F   UNL     1       1.873   2.683  20.598  0.00  0.00    +0.000 F 
ATOM     19  F   UNL     1       0.422   4.287  20.366  0.00  0.00    +0.000 F 
ATOM     20  F   UNL     1       0.307   2.522  19.096  0.00  0.00    +0.000 F 
ENDBRANCH  16  17
BRANCH  16  21
ATOM     21  O   UNL     1       1.305   4.678  17.586  0.00  0.00    +0.000 OA
ATOM     22  H   UNL     1       0.476   5.013  17.974  0.00  0.00    +0.000 HD
ENDBRANCH  16  21
ENDBRANCH  15  16
ENDBRANCH   1  15
BRANCH   1  23
ATOM     23  C   UNL     1       3.352   6.642  17.427  0.00  0.00    +0.000 C 
BRANCH  23  24
ATOM     24  C   UNL     1       4.785   6.201  17.152  0.00  0.00    +0.000 A 
ATOM     25  C   UNL     1       5.840   6.833  17.824  0.00  0.00    +0.000 A 
ATOM     26  C   UNL     1       7.161   6.620  17.430  0.00  0.00    +0.000 A 
ATOM     27  C   UNL     1       7.451   5.794  16.340  0.00  0.00    +0.000 A 
ATOM     28  C   UNL     1       6.425   5.142  15.645  0.00  0.00    +0.000 A 
ATOM     29  C   UNL     1       5.102   5.319  16.105  0.00  0.00    +0.000 A 
BRANCH  28  30
ATOM     30  C   UNL     1       6.729   4.247  14.446  0.00  0.00    +0.000 C 
ATOM     31  C   UNL     1       5.473   3.790  13.687  0.00  0.00    +0.000 C 
ATOM     32  C   UNL     1       5.956   3.402  12.306  0.00  0.00    +0.000 C 
ATOM     33  C   UNL     1       7.026   4.428  11.988  0.00  0.00    +0.000 C 
ATOM     34  C   UNL     1       7.626   4.845  13.336  0.00  0.00    +0.000 C 
ENDBRANCH  28  30
ENDBRANCH  23  24
ENDBRANCH   1  23
TORSDOF 10
ENDMDL
MODEL 6
REMARK VINA RESULT:      -9.3      4.371      6.992
REMARK  Name = 
REMARK  10 active torsions:
REMARK  status: ('A' for Active; 'I' for Inactive)
REMARK    1  A    between atoms: O_1  and  C_2
REMARK    2  A    between atoms: C_2  and  C_3
REMARK    3  A    between atoms: C_2  and  C_30
REMARK    4  A    between atoms: C_3  and  N_4
REMARK    5  A    between atoms: N_4  and  C_5
REMARK    6  A    between atoms: N_4  and  C_17
REMARK    7  A    between atoms: C_5  and  C_6
REMARK    8  A    between atoms: C_10  and  C_11
REMARK    9  A    between atoms: C_21  and  O_22
REMARK   10  A    between atoms: O_22  and  C_23
REMARK                            x       y       z     vdW  Elec       q    Type
REMARK                         _______ _______ _______ _____ _____    ______ ____
ROOT
ATOM      1  N   UNL     1       0.711  10.381  19.686  0.00  0.00    +0.000 N 
ENDROOT
BRANCH   1   2
ATOM      2  C   UNL     1       1.442   9.244  19.323  0.00  0.00    +0.000 A 
ATOM      3  C   UNL     1       1.938   9.057  18.026  0.00  0.00    +0.000 A 
ATOM      4  C   UNL     1       2.580   7.872  17.623  0.00  0.00    +0.000 A 
ATOM      5  C   UNL     1       2.712   6.821  18.517  0.00  0.00    +0.000 A 
ATOM      6  C   UNL     1       2.226   6.973  19.807  0.00  0.00    +0.000 A 
ATOM      7  C   UNL     1       1.678   8.195  20.224  0.00  0.00    +0.000 A 
BRANCH   6   8
ATOM      8  O   UNL     1       2.342   5.878  20.646  0.00  0.00    +0.000 OA
BRANCH   8   9
ATOM      9  C   UNL     1       2.238   4.614  20.092  0.00  0.00    +0.000 A 
ATOM     10  C   UNL     1       3.323   3.867  19.636  0.00  0.00    +0.000 A 
ATOM     11  C   UNL     1       3.114   2.618  19.046  0.00  0.00    +0.000 A 
ATOM     12  C   UNL     1       1.827   2.094  18.969  0.00  0.00    +0.000 A 
ATOM     13  C   UNL     1       0.749   2.812  19.489  0.00  0.00    +0.000 A 
ATOM     14  C   UNL     1       0.955   4.073  20.044  0.00  0.00    +0.000 A 
ENDBRANCH   8   9
ENDBRANCH   6   8
ENDBRANCH   1   2
BRANCH   1  15
ATOM     15  C   UNL     1       0.896  10.985  21.033  0.00  0.00    +0.000 C 
BRANCH  15  16
ATOM     16  C   UNL     1      -0.407  11.156  21.855  0.00  0.00    +0.000 C 
BRANCH  16  17
ATOM     17  C   UNL     1      -0.576   9.930  22.779  0.00  0.00    +0.000 C 
ATOM     18  F   UNL     1       0.536   9.667  23.503  0.00  0.00    +0.000 F 
ATOM     19  F   UNL     1      -1.580  10.146  23.663  0.00  0.00    +0.000 F 
ATOM     20  F   UNL     1      -0.883   8.803  22.097  0.00  0.00    +0.000 F 
ENDBRANCH  16  17
BRANCH  16  21
ATOM     21  O   UNL     1      -0.444  12.387  22.601  0.00  0.00    +0.000 OA
ATOM     22  H   UNL     1       0.330  12.911  22.324  0.00  0.00    +0.000 HD
ENDBRANCH  16  21
ENDBRANCH  15  16
ENDBRANCH   1  15
BRANCH   1  23
ATOM     23  C   UNL     1       0.071  11.238  18.669  0.00  0.00    +0.000 C 
BRANCH  23  24
ATOM     24  C   UNL     1      -1.339  10.830  18.258  0.00  0.00    +0.000 A 
ATOM     25  C   UNL     1      -1.514   9.941  17.189  0.00  0.00    +0.000 A 
ATOM     26  C   UNL     1      -2.779   9.730  16.641  0.00  0.00    +0.000 A 
ATOM     27  C   UNL     1      -3.889  10.424  17.132  0.00  0.00    +0.000 A 
ATOM     28  C   UNL     1      -3.756  11.318  18.202  0.00  0.00    +0.000 A 
ATOM     29  C   UNL     1      -2.478  11.463  18.785  0.00  0.00    +0.000 A 
BRANCH  28  30
ATOM     30  C   UNL     1      -4.958  12.090  18.739  0.00  0.00    +0.000 C 
ATOM     31  C   UNL     1      -6.297  11.365  18.527  0.00  0.00    +0.000 C 
ATOM     32  C   UNL     1      -7.245  11.967  19.542  0.00  0.00    +0.000 C 
ATOM     33  C   UNL     1      -6.383  12.185  20.769  0.00  0.00    +0.000 C 
ATOM     34  C   UNL     1      -4.961  12.422  20.250  0.00  0.00    +0.000 C 
ENDBRANCH  28  30
ENDBRANCH  23  24
ENDBRANCH   1  23
TORSDOF 10
ENDMDL
MODEL 7
REMARK VINA RESULT:      -9.2      0.785      1.493
REMARK  Name = 
REMARK  10 active torsions:
REMARK  status: ('A' for Active; 'I' for Inactive)
REMARK    1  A    between atoms: O_1  and  C_2
REMARK    2  A    between atoms: C_2  and  C_3
REMARK    3  A    between atoms: C_2  and  C_30
REMARK    4  A    between atoms: C_3  and  N_4
REMARK    5  A    between atoms: N_4  and  C_5
REMARK    6  A    between atoms: N_4  and  C_17
REMARK    7  A    between atoms: C_5  and  C_6
REMARK    8  A    between atoms: C_10  and  C_11
REMARK    9  A    between atoms: C_21  and  O_22
REMARK   10  A    between atoms: O_22  and  C_23
REMARK                            x       y       z     vdW  Elec       q    Type
REMARK                         _______ _______ _______ _____ _____    ______ ____
ROOT
ATOM      1  N   UNL     1       3.433   5.838  18.467  0.00  0.00    +0.000 N 
ENDROOT
BRANCH   1   2
ATOM      2  C   UNL     1       4.760   5.509  18.168  0.00  0.00    +0.000 A 
ATOM      3  C   UNL     1       5.641   5.002  19.133  0.00  0.00    +0.000 A 
ATOM      4  C   UNL     1       7.003   4.770  18.869  0.00  0.00    +0.000 A 
ATOM      5  C   UNL     1       7.525   5.075  17.622  0.00  0.00    +0.000 A 
ATOM      6  C   UNL     1       6.680   5.584  16.647  0.00  0.00    +0.000 A 
ATOM      7  C   UNL     1       5.306   5.717  16.893  0.00  0.00    +0.000 A 
BRANCH   6   8
ATOM      8  O   UNL     1       7.261   5.915  15.435  0.00  0.00    +0.000 OA
BRANCH   8   9
ATOM      9  C   UNL     1       6.969   5.131  14.332  0.00  0.00    +0.000 A 
ATOM     10  C   UNL     1       7.704   5.141  13.147  0.00  0.00    +0.000 A 
ATOM     11  C   UNL     1       7.303   4.349  12.069  0.00  0.00    +0.000 A 
ATOM     12  C   UNL     1       6.204   3.505  12.199  0.00  0.00    +0.000 A 
ATOM     13  C   UNL     1       5.511   3.443  13.408  0.00  0.00    +0.000 A 
ATOM     14  C   UNL     1       5.890   4.261  14.471  0.00  0.00    +0.000 A 
ENDBRANCH   8   9
ENDBRANCH   6   8
ENDBRANCH   1   2
BRANCH   1  15
ATOM     15  C   UNL     1       2.327   4.955  18.008  0.00  0.00    +0.000 C 
BRANCH  15  16
ATOM     16  C   UNL     1       2.596   3.436  18.167  0.00  0.00    +0.000 C 
BRANCH  16  17
ATOM     17  C   UNL     1       1.918   2.945  19.464  0.00  0.00    +0.000 C 
ATOM     18  F   UNL     1       1.448   1.681  19.358  0.00  0.00    +0.000 F 
ATOM     19  F   UNL     1       2.808   2.949  20.486  0.00  0.00    +0.000 F 
ATOM     20  F   UNL     1       0.880   3.726  19.838  0.00  0.00    +0.000 F 
ENDBRANCH  16  17
BRANCH  16  21
ATOM     21  O   UNL     1       2.172   2.668  17.026  0.00  0.00    +0.000 OA
ATOM     22  H   UNL     1       2.978   2.349  16.581  0.00  0.00    +0.000 HD
ENDBRANCH  16  21
ENDBRANCH  15  16
ENDBRANCH   1  15
BRANCH   1  23
ATOM     23  C   UNL     1       3.104   6.789  19.547  0.00  0.00    +0.000 C 
BRANCH  23  24
ATOM     24  C   UNL     1       2.180   7.936  19.154  0.00  0.00    +0.000 A 
ATOM     25  C   UNL     1       2.458   8.676  17.997  0.00  0.00    +0.000 A 
ATOM     26  C   UNL     1       1.778   9.866  17.736  0.00  0.00    +0.000 A 
ATOM     27  C   UNL     1       0.829  10.353  18.639  0.00  0.00    +0.000 A 
ATOM     28  C   UNL     1       0.521   9.640  19.805  0.00  0.00    +0.000 A 
ATOM     29  C   UNL     1       1.172   8.405  20.014  0.00  0.00    +0.000 A 
BRANCH  28  30
ATOM     30  C   UNL     1      -0.505  10.168  20.804  0.00  0.00    +0.000 C 
ATOM     31  C   UNL     1      -0.391   9.527  22.197  0.00  0.00    +0.000 C 
ATOM     32  C   UNL     1      -1.066  10.498  23.143  0.00  0.00    +0.000 C 
ATOM     33  C   UNL     1      -0.676  11.862  22.611  0.00  0.00    +0.000 C 
ATOM     34  C   UNL     1      -0.477  11.687  21.102  0.00  0.00    +0.000 C 
ENDBRANCH  28  30
ENDBRANCH  23  24
ENDBRANCH   1  23
TORSDOF 10
ENDMDL
MODEL 8
REMARK VINA RESULT:      -9.2      1.391      2.173
REMARK  Name = 
REMARK  10 active torsions:
REMARK  status: ('A' for Active; 'I' for Inactive)
REMARK    1  A    between atoms: O_1  and  C_2
REMARK    2  A    between atoms: C_2  and  C_3
REMARK    3  A    between atoms: C_2  and  C_30
REMARK    4  A    between atoms: C_3  and  N_4
REMARK    5  A    between atoms: N_4  and  C_5
REMARK    6  A    between atoms: N_4  and  C_17
REMARK    7  A    between atoms: C_5  and  C_6
REMARK    8  A    between atoms: C_10  and  C_11
REMARK    9  A    between atoms: C_21  and  O_22
REMARK   10  A    between atoms: O_22  and  C_23
REMARK                            x       y       z     vdW  Elec       q    Type
REMARK                         _______ _______ _______ _____ _____    ______ ____
ROOT
ATOM      1  N   UNL     1       3.293   5.949  18.141  0.00  0.00    +0.000 N 
ENDROOT
BRANCH   1   2
ATOM      2  C   UNL     1       4.663   5.681  18.045  0.00  0.00    +0.000 A 
ATOM      3  C   UNL     1       5.459   5.439  19.173  0.00  0.00    +0.000 A 
ATOM      4  C   UNL     1       6.854   5.275  19.095  0.00  0.00    +0.000 A 
ATOM      5  C   UNL     1       7.494   5.382  17.872  0.00  0.00    +0.000 A 
ATOM      6  C   UNL     1       6.735   5.628  16.736  0.00  0.00    +0.000 A 
ATOM      7  C   UNL     1       5.336   5.691  16.814  0.00  0.00    +0.000 A 
BRANCH   6   8
ATOM      8  O   UNL     1       7.428   5.771  15.547  0.00  0.00    +0.000 OA
BRANCH   8   9
ATOM      9  C   UNL     1       7.007   5.040  14.450  0.00  0.00    +0.000 A 
ATOM     10  C   UNL     1       5.909   4.181  14.456  0.00  0.00    +0.000 A 
ATOM     11  C   UNL     1       5.589   3.446  13.311  0.00  0.00    +0.000 A 
ATOM     12  C   UNL     1       6.332   3.618  12.148  0.00  0.00    +0.000 A 
ATOM     13  C   UNL     1       7.388   4.530  12.121  0.00  0.00    +0.000 A 
ATOM     14  C   UNL     1       7.728   5.235  13.274  0.00  0.00    +0.000 A 
ENDBRANCH   8   9
ENDBRANCH   6   8
ENDBRANCH   1   2
BRANCH   1  15
ATOM     15  C   UNL     1       2.417   5.061  18.951  0.00  0.00    +0.000 C 
BRANCH  15  16
ATOM     16  C   UNL     1       1.881   3.814  18.201  0.00  0.00    +0.000 C 
BRANCH  16  17
ATOM     17  C   UNL     1       1.149   2.904  19.212  0.00  0.00    +0.000 C 
ATOM     18  F   UNL     1       1.984   2.038  19.831  0.00  0.00    +0.000 F 
ATOM     19  F   UNL     1       0.570   3.653  20.181  0.00  0.00    +0.000 F 
ATOM     20  F   UNL     1       0.169   2.170  18.637  0.00  0.00    +0.000 F 
ENDBRANCH  16  17
BRANCH  16  21
ATOM     21  O   UNL     1       1.036   4.150  17.085  0.00  0.00    +0.000 OA
ATOM     22  H   UNL     1       0.731   3.310  16.696  0.00  0.00    +0.000 HD
ENDBRANCH  16  21
ENDBRANCH  15  16
ENDBRANCH   1  15
BRANCH   1  23
ATOM     23  C   UNL     1       2.748   7.281  17.814  0.00  0.00    +0.000 C 
BRANCH  23  24
ATOM     24  C   UNL     1       2.099   8.030  18.973  0.00  0.00    +0.000 A 
ATOM     25  C   UNL     1       2.104   7.455  20.251  0.00  0.00    +0.000 A 
ATOM     26  C   UNL     1       1.325   7.994  21.275  0.00  0.00    +0.000 A 
ATOM     27  C   UNL     1       0.506   9.101  21.034  0.00  0.00    +0.000 A 
ATOM     28  C   UNL     1       0.476   9.706  19.770  0.00  0.00    +0.000 A 
ATOM     29  C   UNL     1       1.324   9.184  18.770  0.00  0.00    +0.000 A 
BRANCH  28  30
ATOM     30  C   UNL     1      -0.424  10.907  19.493  0.00  0.00    +0.000 C 
ATOM     31  C   UNL     1       0.297  12.062  18.780  0.00  0.00    +0.000 C 
ATOM     32  C   UNL     1      -0.798  12.881  18.131  0.00  0.00    +0.000 C 
ATOM     33  C   UNL     1      -1.796  11.847  17.650  0.00  0.00    +0.000 C 
ATOM     34  C   UNL     1      -1.671  10.659  18.611  0.00  0.00    +0.000 C 
ENDBRANCH  28  30
ENDBRANCH  23  24
ENDBRANCH   1  23
TORSDOF 10
ENDMDL
MODEL 9
REMARK VINA RESULT:      -9.2      2.519      8.498
REMARK  Name = 
REMARK  10 active torsions:
REMARK  status: ('A' for Active; 'I' for Inactive)
REMARK    1  A    between atoms: O_1  and  C_2
REMARK    2  A    between atoms: C_2  and  C_3
REMARK    3  A    between atoms: C_2  and  C_30
REMARK    4  A    between atoms: C_3  and  N_4
REMARK    5  A    between atoms: N_4  and  C_5
REMARK    6  A    between atoms: N_4  and  C_17
REMARK    7  A    between atoms: C_5  and  C_6
REMARK    8  A    between atoms: C_10  and  C_11
REMARK    9  A    between atoms: C_21  and  O_22
REMARK   10  A    between atoms: O_22  and  C_23
REMARK                            x       y       z     vdW  Elec       q    Type
REMARK                         _______ _______ _______ _____ _____    ______ ____
ROOT
ATOM      1  N   UNL     1       2.958   6.829  18.649  0.00  0.00    +0.000 N 
ENDROOT
BRANCH   1   2
ATOM      2  C   UNL     1       2.137   7.709  19.363  0.00  0.00    +0.000 A 
ATOM      3  C   UNL     1       1.673   7.418  20.653  0.00  0.00    +0.000 A 
ATOM      4  C   UNL     1       0.764   8.246  21.336  0.00  0.00    +0.000 A 
ATOM      5  C   UNL     1       0.268   9.383  20.718  0.00  0.00    +0.000 A 
ATOM      6  C   UNL     1       0.703   9.695  19.439  0.00  0.00    +0.000 A 
ATOM      7  C   UNL     1       1.685   8.916  18.809  0.00  0.00    +0.000 A 
BRANCH   6   8
ATOM      8  O   UNL     1       0.143  10.816  18.850  0.00  0.00    +0.000 OA
BRANCH   8   9
ATOM      9  C   UNL     1      -1.144  10.721  18.352  0.00  0.00    +0.000 A 
ATOM     10  C   UNL     1      -1.545   9.796  17.387  0.00  0.00    +0.000 A 
ATOM     11  C   UNL     1      -2.857   9.809  16.910  0.00  0.00    +0.000 A 
ATOM     12  C   UNL     1      -3.780  10.704  17.440  0.00  0.00    +0.000 A 
ATOM     13  C   UNL     1      -3.397  11.582  18.455  0.00  0.00    +0.000 A 
ATOM     14  C   UNL     1      -2.079  11.594  18.905  0.00  0.00    +0.000 A 
ENDBRANCH   8   9
ENDBRANCH   6   8
ENDBRANCH   1   2
BRANCH   1  15
ATOM     15  C   UNL     1       2.533   5.419  18.442  0.00  0.00    +0.000 C 
BRANCH  15  16
ATOM     16  C   UNL     1       3.061   4.416  19.501  0.00  0.00    +0.000 C 
BRANCH  16  17
ATOM     17  C   UNL     1       1.863   3.867  20.305  0.00  0.00    +0.000 C 
ATOM     18  F   UNL     1       1.755   2.521  20.223  0.00  0.00    +0.000 F 
ATOM     19  F   UNL     1       2.004   4.171  21.619  0.00  0.00    +0.000 F 
ATOM     20  F   UNL     1       0.682   4.387  19.901  0.00  0.00    +0.000 F 
ENDBRANCH  16  17
BRANCH  16  21
ATOM     21  O   UNL     1       3.844   3.353  18.928  0.00  0.00    +0.000 OA
ATOM     22  H   UNL     1       4.758   3.682  18.850  0.00  0.00    +0.000 HD
ENDBRANCH  16  21
ENDBRANCH  15  16
ENDBRANCH   1  15
BRANCH   1  23
ATOM     23  C   UNL     1       4.023   7.327  17.756  0.00  0.00    +0.000 C 
BRANCH  23  24
ATOM     24  C   UNL     1       4.962   6.265  17.196  0.00  0.00    +0.000 A 
ATOM     25  C   UNL     1       5.997   5.769  18.002  0.00  0.00    +0.000 A 
ATOM     26  C   UNL     1       7.007   4.979  17.453  0.00  0.00    +0.000 A 
ATOM     27  C   UNL     1       7.017   4.692  16.084  0.00  0.00    +0.000 A 
ATOM     28  C   UNL     1       5.998   5.166  15.247  0.00  0.00    +0.000 A 
ATOM     29  C   UNL     1       4.951   5.906  15.838  0.00  0.00    +0.000 A 
BRANCH  28  30
ATOM     30  C   UNL     1       6.006   4.868  13.750  0.00  0.00    +0.000 C 
ATOM     31  C   UNL     1       7.417   4.695  13.166  0.00  0.00    +0.000 C 
ATOM     32  C   UNL     1       7.229   3.910  11.885  0.00  0.00    +0.000 C 
ATOM     33  C   UNL     1       6.131   2.920  12.217  0.00  0.00    +0.000 C 
ATOM     34  C   UNL     1       5.262   3.593  13.285  0.00  0.00    +0.000 C 
ENDBRANCH  28  30
ENDBRANCH  23  24
ENDBRANCH   1  23
TORSDOF 10
ENDMDL
