MODEL 1
REMARK VINA RESULT:      -7.8      0.000      0.000
REMARK  Name = 
REMARK  6 active torsions:
REMARK  status: ('A' for Active; 'I' for Inactive)
REMARK    1  A    between atoms: C_1  and  N_2
REMARK    2  A    between atoms: C_4  and  C_5
REMARK    3  A    between atoms: C_14  and  C_15
REMARK    4  A    between atoms: N_21  and  C_22
REMARK    5  A    between atoms: C_22  and  C_23
REMARK    6  A    between atoms: C_23  and  N_24
REMARK                            x       y       z     vdW  Elec       q    Type
REMARK                         _______ _______ _______ _____ _____    ______ ____
ROOT
ATOM      1  C   UNL     1       1.350   9.262  19.660  0.00  0.00    +0.000 C 
ATOM      2  C   UNL     1       1.140   8.140  20.683  0.00  0.00    +0.000 C 
ATOM      3  C   UNL     1       2.327   7.149  20.596  0.00  0.00    +0.000 C 
ATOM      4  N   UNL     1       2.559   6.702  19.210  0.00  0.00    +0.000 N 
ATOM      5  C   UNL     1       2.812   5.370  18.945  0.00  0.00    +0.000 C 
ATOM      6  O   UNL     1       2.947   4.528  19.831  0.00  0.00    +0.000 OA
ATOM      7  N   UNL     1       2.871   5.044  17.618  0.00  0.00    +0.000 N 
ATOM      8  C   UNL     1       2.730   7.782  18.241  0.00  0.00    +0.000 C 
ATOM      9  C   UNL     1       1.490   8.639  18.261  0.00  0.00    +0.000 C 
ATOM     10  H   UNL     1       2.563   5.685  16.915  0.00  0.00    +0.000 HD
ENDROOT
BRANCH   1  16
ATOM     11  C   UNL     1       1.882  12.044  18.524  0.00  0.00    +0.000 C 
ATOM     12  N   UNL     1       0.585  11.531  18.914  0.00  0.00    +0.000 N 
ATOM     13  N   UNL     1      -0.513  12.145  18.451  0.00  0.00    +0.000 NA
ATOM     14  C   UNL     1      -1.537  11.373  18.847  0.00  0.00    +0.000 A 
ATOM     15  C   UNL     1      -1.061  10.297  19.654  0.00  0.00    +0.000 A 
ATOM     16  C   UNL     1       0.314  10.337  19.540  0.00  0.00    +0.000 A 
BRANCH  14  17
ATOM     17  C   UNL     1      -2.884  11.594  18.299  0.00  0.00    +0.000 A 
ATOM     18  C   UNL     1      -3.101  11.212  16.954  0.00  0.00    +0.000 A 
ATOM     19  C   UNL     1      -4.355  11.323  16.354  0.00  0.00    +0.000 A 
ATOM     20  C   UNL     1      -5.421  11.817  17.093  0.00  0.00    +0.000 A 
ATOM     21  C   UNL     1      -5.231  12.209  18.424  0.00  0.00    +0.000 A 
ATOM     22 CL   UNL     1      -6.626  12.805  19.262  0.00  0.00    +0.000 Cl
ATOM     23  C   UNL     1      -3.965  12.107  19.035  0.00  0.00    +0.000 A 
ATOM     24 CL   UNL     1      -3.763  12.652  20.674  0.00  0.00    +0.000 Cl
ENDBRANCH  14  17
ENDBRANCH   1  16
BRANCH   7  25
ATOM     25  C   UNL     1       3.184   3.714  17.137  0.00  0.00    +0.000 C 
BRANCH  25  26
ATOM     26  C   UNL     1       4.692   3.436  17.215  0.00  0.00    +0.000 C 
BRANCH  26  27
ATOM     27  N   UNL     1       5.420   4.390  16.366  0.00  0.00    +0.000 NA
ATOM     28  C   UNL     1       6.601   4.732  16.722  0.00  0.00    +0.000 C 
ATOM     29  N   UNL     1       7.342   4.324  17.776  0.00  0.00    +0.000 N 
ATOM     30  N   UNL     1       7.296   5.633  15.995  0.00  0.00    +0.000 N 
ATOM     31  H   UNL     1       6.824   3.850  18.504  0.00  0.00    +0.000 HD
ATOM     32  H   UNL     1       7.917   5.064  18.160  0.00  0.00    +0.000 HD
ATOM     33  H   UNL     1       6.831   5.820  15.114  0.00  0.00    +0.000 HD
ATOM     34  H   UNL     1       8.267   5.377  15.855  0.00  0.00    +0.000 HD
ENDBRANCH  26  27
ENDBRANCH  25  26
ENDBRANCH   7  25
TORSDOF 5
ENDMDL
MODEL 2
REMARK VINA RESULT:      -7.7      4.982     10.419
REMARK  Name = 
REMARK  6 active torsions:
REMARK  status: ('A' for Active; 'I' for Inactive)
REMARK    1  A    between atoms: C_1  and  N_2
REMARK    2  A    between atoms: C_4  and  C_5
REMARK    3  A    between atoms: C_14  and  C_15
REMARK    4  A    between atoms: N_21  and  C_22
REMARK    5  A    between atoms: C_22  and  C_23
REMARK    6  A    between atoms: C_23  and  N_24
REMARK                            x       y       z     vdW  Elec       q    Type
REMARK                         _______ _______ _______ _____ _____    ______ ____
ROOT
ATOM      1  C   UNL     1       0.421  10.167  18.267  0.00  0.00    +0.000 C 
ATOM      2  C   UNL     1      -0.949   9.679  17.783  0.00  0.00    +0.000 C 
ATOM      3  C   UNL     1      -1.880  10.901  17.586  0.00  0.00    +0.000 C 
ATOM      4  N   UNL     1      -1.905  11.762  18.783  0.00  0.00    +0.000 N 
ATOM      5  C   UNL     1      -3.103  12.270  19.247  0.00  0.00    +0.000 C 
ATOM      6  O   UNL     1      -4.168  12.113  18.651  0.00  0.00    +0.000 OA
ATOM      7  N   UNL     1      -3.028  12.935  20.439  0.00  0.00    +0.000 N 
ATOM      8  C   UNL     1      -0.590  12.198  19.248  0.00  0.00    +0.000 C 
ATOM      9  C   UNL     1       0.232  10.974  19.562  0.00  0.00    +0.000 C 
ATOM     10  H   UNL     1      -2.208  12.883  21.008  0.00  0.00    +0.000 HD
ENDROOT
BRANCH   1  16
ATOM     11  C   UNL     1       0.902   8.893  20.998  0.00  0.00    +0.000 C 
ATOM     12  N   UNL     1       1.586   8.535  19.772  0.00  0.00    +0.000 N 
ATOM     13  N   UNL     1       2.222   7.357  19.715  0.00  0.00    +0.000 NA
ATOM     14  C   UNL     1       2.622   7.238  18.438  0.00  0.00    +0.000 A 
ATOM     15  C   UNL     1       2.297   8.420  17.708  0.00  0.00    +0.000 A 
ATOM     16  C   UNL     1       1.491   9.159  18.551  0.00  0.00    +0.000 A 
BRANCH  14  17
ATOM     17  C   UNL     1       3.129   5.952  17.939  0.00  0.00    +0.000 A 
ATOM     18  C   UNL     1       2.247   4.846  17.998  0.00  0.00    +0.000 A 
ATOM     19  C   UNL     1       2.606   3.595  17.498  0.00  0.00    +0.000 A 
ATOM     20  C   UNL     1       3.858   3.426  16.923  0.00  0.00    +0.000 A 
ATOM     21  C   UNL     1       4.752   4.502  16.859  0.00  0.00    +0.000 A 
ATOM     22 CL   UNL     1       6.286   4.190  16.116  0.00  0.00    +0.000 Cl
ATOM     23  C   UNL     1       4.401   5.768  17.369  0.00  0.00    +0.000 A 
ATOM     24 CL   UNL     1       5.560   7.062  17.314  0.00  0.00    +0.000 Cl
ENDBRANCH  14  17
ENDBRANCH   1  16
BRANCH   7  25
ATOM     25  C   UNL     1      -4.162  13.589  21.060  0.00  0.00    +0.000 C 
BRANCH  25  26
ATOM     26  C   UNL     1      -4.901  12.633  22.009  0.00  0.00    +0.000 C 
BRANCH  26  27
ATOM     27  N   UNL     1      -5.992  13.349  22.687  0.00  0.00    +0.000 NA
ATOM     28  C   UNL     1      -6.199  13.096  23.925  0.00  0.00    +0.000 C 
ATOM     29  N   UNL     1      -5.536  12.269  24.764  0.00  0.00    +0.000 N 
ATOM     30  N   UNL     1      -7.211  13.700  24.582  0.00  0.00    +0.000 N 
ATOM     31  H   UNL     1      -4.932  11.596  24.311  0.00  0.00    +0.000 HD
ATOM     32  H   UNL     1      -6.148  11.818  25.433  0.00  0.00    +0.000 HD
ATOM     33  H   UNL     1      -7.609  14.446  24.022  0.00  0.00    +0.000 HD
ATOM     34  H   UNL     1      -6.956  14.026  25.507  0.00  0.00    +0.000 HD
ENDBRANCH  26  27
ENDBRANCH  25  26
ENDBRANCH   7  25
TORSDOF 5
ENDMDL
MODEL 3
REMARK VINA RESULT:      -7.7      4.750     10.277
REMARK  Name = 
REMARK  6 active torsions:
REMARK  status: ('A' for Active; 'I' for Inactive)
REMARK    1  A    between atoms: C_1  and  N_2
REMARK    2  A    between atoms: C_4  and  C_5
REMARK    3  A    between atoms: C_14  and  C_15
REMARK    4  A    between atoms: N_21  and  C_22
REMARK    5  A    between atoms: C_22  and  C_23
REMARK    6  A    between atoms: C_23  and  N_24
REMARK                            x       y       z     vdW  Elec       q    Type
REMARK                         _______ _______ _______ _____ _____    ______ ____
ROOT
ATOM      1  C   UNL     1       0.287  10.235  18.487  0.00  0.00    +0.000 C 
ATOM      2  C   UNL     1      -1.139   9.682  18.389  0.00  0.00    +0.000 C 
ATOM      3  C   UNL     1      -2.124  10.859  18.189  0.00  0.00    +0.000 C 
ATOM      4  N   UNL     1      -1.925  11.912  19.202  0.00  0.00    +0.000 N 
ATOM      5  C   UNL     1      -3.015  12.501  19.814  0.00  0.00    +0.000 C 
ATOM      6  O   UNL     1      -4.176  12.253  19.489  0.00  0.00    +0.000 OA
ATOM      7  N   UNL     1      -2.713  13.359  20.834  0.00  0.00    +0.000 N 
ATOM      8  C   UNL     1      -0.556  12.411  19.302  0.00  0.00    +0.000 C 
ATOM      9  C   UNL     1       0.348  11.253  19.638  0.00  0.00    +0.000 C 
ATOM     10  H   UNL     1      -1.792  13.399  21.220  0.00  0.00    +0.000 HD
ENDROOT
BRANCH   1  16
ATOM     11  C   UNL     1       0.766   8.701  21.081  0.00  0.00    +0.000 C 
ATOM     12  N   UNL     1       1.520   8.534  19.855  0.00  0.00    +0.000 N 
ATOM     13  N   UNL     1       2.247   7.419  19.698  0.00  0.00    +0.000 NA
ATOM     14  C   UNL     1       2.700   7.474  18.435  0.00  0.00    +0.000 A 
ATOM     15  C   UNL     1       2.312   8.703  17.824  0.00  0.00    +0.000 A 
ATOM     16  C   UNL     1       1.421   9.282  18.706  0.00  0.00    +0.000 A 
BRANCH  14  17
ATOM     17  C   UNL     1       3.323   6.292  17.821  0.00  0.00    +0.000 A 
ATOM     18  C   UNL     1       4.451   6.515  16.996  0.00  0.00    +0.000 A 
ATOM     19  C   UNL     1       5.153   5.461  16.413  0.00  0.00    +0.000 A 
ATOM     20  C   UNL     1       4.740   4.157  16.647  0.00  0.00    +0.000 A 
ATOM     21  C   UNL     1       3.622   3.909  17.454  0.00  0.00    +0.000 A 
ATOM     22 CL   UNL     1       3.192   2.247  17.691  0.00  0.00    +0.000 Cl
ATOM     23  C   UNL     1       2.902   4.969  18.041  0.00  0.00    +0.000 A 
ATOM     24 CL   UNL     1       1.491   4.618  18.993  0.00  0.00    +0.000 Cl
ENDBRANCH  14  17
ENDBRANCH   1  16
BRANCH   7  25
ATOM     25  C   UNL     1      -3.712  14.118  21.560  0.00  0.00    +0.000 C 
BRANCH  25  26
ATOM     26  C   UNL     1      -3.842  13.621  23.007  0.00  0.00    +0.000 C 
BRANCH  26  27
ATOM     27  N   UNL     1      -4.900  12.605  23.093  0.00  0.00    +0.000 NA
ATOM     28  C   UNL     1      -5.986  12.917  23.695  0.00  0.00    +0.000 C 
ATOM     29  N   UNL     1      -6.358  14.086  24.264  0.00  0.00    +0.000 N 
ATOM     30  N   UNL     1      -6.974  12.007  23.832  0.00  0.00    +0.000 N 
ATOM     31  H   UNL     1      -5.603  14.737  24.432  0.00  0.00    +0.000 HD
ATOM     32  H   UNL     1      -6.919  13.954  25.098  0.00  0.00    +0.000 HD
ATOM     33  H   UNL     1      -6.787  11.186  23.267  0.00  0.00    +0.000 HD
ATOM     34  H   UNL     1      -7.898  12.381  23.648  0.00  0.00    +0.000 HD
ENDBRANCH  26  27
ENDBRANCH  25  26
ENDBRANCH   7  25
TORSDOF 5
ENDMDL
MODEL 4
REMARK VINA RESULT:      -7.6      4.642     10.092
REMARK  Name = 
REMARK  6 active torsions:
REMARK  status: ('A' for Active; 'I' for Inactive)
REMARK    1  A    between atoms: C_1  and  N_2
REMARK    2  A    between atoms: C_4  and  C_5
REMARK    3  A    between atoms: C_14  and  C_15
REMARK    4  A    between atoms: N_21  and  C_22
REMARK    5  A    between atoms: C_22  and  C_23
REMARK    6  A    between atoms: C_23  and  N_24
REMARK                            x       y       z     vdW  Elec       q    Type
REMARK                         _______ _______ _______ _____ _____    ______ ____
ROOT
ATOM      1  C   UNL     1       0.213  10.283  18.103  0.00  0.00    +0.000 C 
ATOM      2  C   UNL     1      -1.114   9.648  17.670  0.00  0.00    +0.000 C 
ATOM      3  C   UNL     1      -2.148  10.770  17.407  0.00  0.00    +0.000 C 
ATOM      4  N   UNL     1      -2.238  11.703  18.546  0.00  0.00    +0.000 N 
ATOM      5  C   UNL     1      -3.472  12.136  18.991  0.00  0.00    +0.000 C 
ATOM      6  O   UNL     1      -4.524  11.850  18.422  0.00  0.00    +0.000 OA
ATOM      7  N   UNL     1      -3.445  12.882  20.136  0.00  0.00    +0.000 N 
ATOM      8  C   UNL     1      -0.962  12.280  18.964  0.00  0.00    +0.000 C 
ATOM      9  C   UNL     1      -0.035  11.154  19.345  0.00  0.00    +0.000 C 
ATOM     10  H   UNL     1      -2.619  12.938  20.697  0.00  0.00    +0.000 HD
ENDROOT
BRANCH   1  16
ATOM     11  C   UNL     1       0.580   8.878  20.787  0.00  0.00    +0.000 C 
ATOM     12  N   UNL     1       1.420   8.695  19.622  0.00  0.00    +0.000 N 
ATOM     13  N   UNL     1       2.203   7.608  19.561  0.00  0.00    +0.000 NA
ATOM     14  C   UNL     1       2.737   7.631  18.330  0.00  0.00    +0.000 A 
ATOM     15  C   UNL     1       2.339   8.816  17.642  0.00  0.00    +0.000 A 
ATOM     16  C   UNL     1       1.368   9.391  18.438  0.00  0.00    +0.000 A 
BRANCH  14  17
ATOM     17  C   UNL     1       3.448   6.454  17.810  0.00  0.00    +0.000 A 
ATOM     18  C   UNL     1       4.650   6.691  17.100  0.00  0.00    +0.000 A 
ATOM     19  C   UNL     1       5.433   5.644  16.616  0.00  0.00    +0.000 A 
ATOM     20  C   UNL     1       5.030   4.334  16.836  0.00  0.00    +0.000 A 
ATOM     21  C   UNL     1       3.841   4.074  17.529  0.00  0.00    +0.000 A 
ATOM     22 CL   UNL     1       3.430   2.406  17.759  0.00  0.00    +0.000 Cl
ATOM     23  C   UNL     1       3.039   5.126  18.015  0.00  0.00    +0.000 A 
ATOM     24 CL   UNL     1       1.547   4.757  18.826  0.00  0.00    +0.000 Cl
ENDBRANCH  14  17
ENDBRANCH   1  16
BRANCH   7  25
ATOM     25  C   UNL     1      -4.627  13.476  20.729  0.00  0.00    +0.000 C 
BRANCH  25  26
ATOM     26  C   UNL     1      -4.933  12.852  22.099  0.00  0.00    +0.000 C 
BRANCH  26  27
ATOM     27  N   UNL     1      -4.247  13.608  23.156  0.00  0.00    +0.000 NA
ATOM     28  C   UNL     1      -4.350  13.186  24.361  0.00  0.00    +0.000 C 
ATOM     29  N   UNL     1      -4.982  12.094  24.846  0.00  0.00    +0.000 N 
ATOM     30  N   UNL     1      -3.768  13.866  25.371  0.00  0.00    +0.000 N 
ATOM     31  H   UNL     1      -5.645  11.668  24.213  0.00  0.00    +0.000 HD
ATOM     32  H   UNL     1      -5.398  12.256  25.756  0.00  0.00    +0.000 HD
ATOM     33  H   UNL     1      -3.150  14.585  25.012  0.00  0.00    +0.000 HD
ATOM     34  H   UNL     1      -3.294  13.270  26.040  0.00  0.00    +0.000 HD
ENDBRANCH  26  27
ENDBRANCH  25  26
ENDBRANCH   7  25
TORSDOF 5
ENDMDL
MODEL 5
REMARK VINA RESULT:      -7.5      4.792     10.271
REMARK  Name = 
REMARK  6 active torsions:
REMARK  status: ('A' for Active; 'I' for Inactive)
REMARK    1  A    between atoms: C_1  and  N_2
REMARK    2  A    between atoms: C_4  and  C_5
REMARK    3  A    between atoms: C_14  and  C_15
REMARK    4  A    between atoms: N_21  and  C_22
REMARK    5  A    between atoms: C_22  and  C_23
REMARK    6  A    between atoms: C_23  and  N_24
REMARK                            x       y       z     vdW  Elec       q    Type
REMARK                         _______ _______ _______ _____ _____    ______ ____
ROOT
ATOM      1  C   UNL     1       0.437  10.270  18.802  0.00  0.00    +0.000 C 
ATOM      2  C   UNL     1      -1.009   9.881  18.475  0.00  0.00    +0.000 C 
ATOM      3  C   UNL     1      -1.864  11.167  18.358  0.00  0.00    +0.000 C 
ATOM      4  N   UNL     1      -1.698  12.038  19.537  0.00  0.00    +0.000 N 
ATOM      5  C   UNL     1      -2.799  12.637  20.116  0.00  0.00    +0.000 C 
ATOM      6  O   UNL     1      -3.930  12.555  19.640  0.00  0.00    +0.000 OA
ATOM      7  N   UNL     1      -2.548  13.306  21.282  0.00  0.00    +0.000 N 
ATOM      8  C   UNL     1      -0.312  12.379  19.852  0.00  0.00    +0.000 C 
ATOM      9  C   UNL     1       0.448  11.100  20.096  0.00  0.00    +0.000 C 
ATOM     10  H   UNL     1      -1.677  13.198  21.762  0.00  0.00    +0.000 HD
ENDROOT
BRANCH   1  16
ATOM     11  C   UNL     1       0.897   8.773  21.421  0.00  0.00    +0.000 C 
ATOM     12  N   UNL     1       1.538   8.471  20.158  0.00  0.00    +0.000 N 
ATOM     13  N   UNL     1       2.107   7.267  20.000  0.00  0.00    +0.000 NA
ATOM     14  C   UNL     1       2.476   7.222  18.709  0.00  0.00    +0.000 A 
ATOM     15  C   UNL     1       2.203   8.471  18.075  0.00  0.00    +0.000 A 
ATOM     16  C   UNL     1       1.455   9.188  18.988  0.00  0.00    +0.000 A 
BRANCH  14  17
ATOM     17  C   UNL     1       2.902   5.951  18.106  0.00  0.00    +0.000 A 
ATOM     18  C   UNL     1       2.016   4.854  18.226  0.00  0.00    +0.000 A 
ATOM     19  C   UNL     1       2.295   3.620  17.640  0.00  0.00    +0.000 A 
ATOM     20  C   UNL     1       3.469   3.459  16.918  0.00  0.00    +0.000 A 
ATOM     21  C   UNL     1       4.366   4.528  16.791  0.00  0.00    +0.000 A 
ATOM     22 CL   UNL     1       5.798   4.228  15.862  0.00  0.00    +0.000 Cl
ATOM     23  C   UNL     1       4.096   5.776  17.386  0.00  0.00    +0.000 A 
ATOM     24 CL   UNL     1       5.260   7.059  17.245  0.00  0.00    +0.000 Cl
ENDBRANCH  14  17
ENDBRANCH   1  16
BRANCH   7  25
ATOM     25  C   UNL     1      -3.558  14.047  22.010  0.00  0.00    +0.000 C 
BRANCH  25  26
ATOM     26  C   UNL     1      -4.415  13.113  22.876  0.00  0.00    +0.000 C 
BRANCH  26  27
ATOM     27  N   UNL     1      -5.830  13.497  22.774  0.00  0.00    +0.000 NA
ATOM     28  C   UNL     1      -6.578  12.831  21.977  0.00  0.00    +0.000 C 
ATOM     29  N   UNL     1      -6.285  11.763  21.201  0.00  0.00    +0.000 N 
ATOM     30  N   UNL     1      -7.876  13.167  21.820  0.00  0.00    +0.000 N 
ATOM     31  H   UNL     1      -5.298  11.596  21.060  0.00  0.00    +0.000 HD
ATOM     32  H   UNL     1      -6.783  11.772  20.319  0.00  0.00    +0.000 HD
ATOM     33  H   UNL     1      -8.157  13.850  22.516  0.00  0.00    +0.000 HD
ATOM     34  H   UNL     1      -8.503  12.371  21.809  0.00  0.00    +0.000 HD
ENDBRANCH  26  27
ENDBRANCH  25  26
ENDBRANCH   7  25
TORSDOF 5
ENDMDL
MODEL 6
REMARK VINA RESULT:      -7.4      4.998     10.434
REMARK  Name = 
REMARK  6 active torsions:
REMARK  status: ('A' for Active; 'I' for Inactive)
REMARK    1  A    between atoms: C_1  and  N_2
REMARK    2  A    between atoms: C_4  and  C_5
REMARK    3  A    between atoms: C_14  and  C_15
REMARK    4  A    between atoms: N_21  and  C_22
REMARK    5  A    between atoms: C_22  and  C_23
REMARK    6  A    between atoms: C_23  and  N_24
REMARK                            x       y       z     vdW  Elec       q    Type
REMARK                         _______ _______ _______ _____ _____    ______ ____
ROOT
ATOM      1  C   UNL     1       0.402  10.211  18.652  0.00  0.00    +0.000 C 
ATOM      2  C   UNL     1      -1.073   9.844  18.850  0.00  0.00    +0.000 C 
ATOM      3  C   UNL     1      -1.941  11.106  18.626  0.00  0.00    +0.000 C 
ATOM      4  N   UNL     1      -1.461  12.245  19.431  0.00  0.00    +0.000 N 
ATOM      5  C   UNL     1      -2.363  13.047  20.103  0.00  0.00    +0.000 C 
ATOM      6  O   UNL     1      -3.582  12.916  19.995  0.00  0.00    +0.000 OA
ATOM      7  N   UNL     1      -1.803  13.982  20.929  0.00  0.00    +0.000 N 
ATOM      8  C   UNL     1      -0.047  12.566  19.251  0.00  0.00    +0.000 C 
ATOM      9  C   UNL     1       0.766  11.351  19.618  0.00  0.00    +0.000 C 
ATOM     10  H   UNL     1      -0.832  13.948  21.164  0.00  0.00    +0.000 HD
ENDROOT
BRANCH   1  16
ATOM     11  C   UNL     1       1.030   8.870  21.320  0.00  0.00    +0.000 C 
ATOM     12  N   UNL     1       1.603   8.503  20.042  0.00  0.00    +0.000 N 
ATOM     13  N   UNL     1       2.180   7.299  19.919  0.00  0.00    +0.000 NA
ATOM     14  C   UNL     1       2.476   7.185  18.615  0.00  0.00    +0.000 A 
ATOM     15  C   UNL     1       2.150   8.392  17.928  0.00  0.00    +0.000 A 
ATOM     16  C   UNL     1       1.445   9.152  18.840  0.00  0.00    +0.000 A 
BRANCH  14  17
ATOM     17  C   UNL     1       2.885   5.886  18.061  0.00  0.00    +0.000 A 
ATOM     18  C   UNL     1       1.957   4.823  18.163  0.00  0.00    +0.000 A 
ATOM     19  C   UNL     1       2.220   3.566  17.618  0.00  0.00    +0.000 A 
ATOM     20  C   UNL     1       3.421   3.349  16.956  0.00  0.00    +0.000 A 
ATOM     21  C   UNL     1       4.359   4.384  16.848  0.00  0.00    +0.000 A 
ATOM     22 CL   UNL     1       5.822   4.015  15.995  0.00  0.00    +0.000 Cl
ATOM     23  C   UNL     1       4.105   5.654  17.402  0.00  0.00    +0.000 A 
ATOM     24 CL   UNL     1       5.318   6.893  17.287  0.00  0.00    +0.000 Cl
ENDBRANCH  14  17
ENDBRANCH   1  16
BRANCH   7  25
ATOM     25  C   UNL     1      -2.578  14.953  21.674  0.00  0.00    +0.000 C 
BRANCH  25  26
ATOM     26  C   UNL     1      -2.816  14.484  23.117  0.00  0.00    +0.000 C 
BRANCH  26  27
ATOM     27  N   UNL     1      -4.193  13.990  23.259  0.00  0.00    +0.000 NA
ATOM     28  C   UNL     1      -5.007  14.674  23.973  0.00  0.00    +0.000 C 
ATOM     29  N   UNL     1      -4.819  15.845  24.621  0.00  0.00    +0.000 N 
ATOM     30  N   UNL     1      -6.272  14.243  24.163  0.00  0.00    +0.000 N 
ATOM     31  H   UNL     1      -3.852  16.114  24.744  0.00  0.00    +0.000 HD
ATOM     32  H   UNL     1      -5.325  15.892  25.497  0.00  0.00    +0.000 HD
ATOM     33  H   UNL     1      -6.482  13.463  23.550  0.00  0.00    +0.000 HD
ATOM     34  H   UNL     1      -6.966  14.976  24.082  0.00  0.00    +0.000 HD
ENDBRANCH  26  27
ENDBRANCH  25  26
ENDBRANCH   7  25
TORSDOF 5
ENDMDL
MODEL 7
REMARK VINA RESULT:      -7.4      3.248      3.999
REMARK  Name = 
REMARK  6 active torsions:
REMARK  status: ('A' for Active; 'I' for Inactive)
REMARK    1  A    between atoms: C_1  and  N_2
REMARK    2  A    between atoms: C_4  and  C_5
REMARK    3  A    between atoms: C_14  and  C_15
REMARK    4  A    between atoms: N_21  and  C_22
REMARK    5  A    between atoms: C_22  and  C_23
REMARK    6  A    between atoms: C_23  and  N_24
REMARK                            x       y       z     vdW  Elec       q    Type
REMARK                         _______ _______ _______ _____ _____    ______ ____
ROOT
ATOM      1  C   UNL     1       0.803   9.610  19.922  0.00  0.00    +0.000 C 
ATOM      2  C   UNL     1       1.601   9.730  18.619  0.00  0.00    +0.000 C 
ATOM      3  C   UNL     1       1.784   8.320  18.008  0.00  0.00    +0.000 C 
ATOM      4  N   UNL     1       2.327   7.367  18.993  0.00  0.00    +0.000 N 
ATOM      5  C   UNL     1       3.330   6.489  18.629  0.00  0.00    +0.000 C 
ATOM      6  O   UNL     1       3.745   6.393  17.475  0.00  0.00    +0.000 OA
ATOM      7  N   UNL     1       3.855   5.752  19.653  0.00  0.00    +0.000 N 
ATOM      8  C   UNL     1       1.571   7.282  20.241  0.00  0.00    +0.000 C 
ATOM      9  C   UNL     1       1.541   8.651  20.871  0.00  0.00    +0.000 C 
ATOM     10  H   UNL     1       3.656   5.978  20.607  0.00  0.00    +0.000 HD
ENDROOT
BRANCH   1  16
ATOM     11  C   UNL     1       0.789  12.431  18.759  0.00  0.00    +0.000 C 
ATOM     12  N   UNL     1       0.412  12.080  20.112  0.00  0.00    +0.000 N 
ATOM     13  N   UNL     1      -0.316  12.954  20.822  0.00  0.00    +0.000 NA
ATOM     14  C   UNL     1      -0.634  12.305  21.954  0.00  0.00    +0.000 A 
ATOM     15  C   UNL     1      -0.010  11.023  21.979  0.00  0.00    +0.000 A 
ATOM     16  C   UNL     1       0.517  10.848  20.715  0.00  0.00    +0.000 A 
BRANCH  14  17
ATOM     17  C   UNL     1      -1.646  12.860  22.864  0.00  0.00    +0.000 A 
ATOM     18  C   UNL     1      -2.766  12.045  23.153  0.00  0.00    +0.000 A 
ATOM     19  C   UNL     1      -3.755  12.449  24.049  0.00  0.00    +0.000 A 
ATOM     20  C   UNL     1      -3.641  13.681  24.678  0.00  0.00    +0.000 A 
ATOM     21  C   UNL     1      -2.545  14.510  24.404  0.00  0.00    +0.000 A 
ATOM     22 CL   UNL     1      -2.490  16.023  25.247  0.00  0.00    +0.000 Cl
ATOM     23  C   UNL     1      -1.545  14.112  23.494  0.00  0.00    +0.000 A 
ATOM     24 CL   UNL     1      -0.230  15.193  23.146  0.00  0.00    +0.000 Cl
ENDBRANCH  14  17
ENDBRANCH   1  16
BRANCH   7  25
ATOM     25  C   UNL     1       4.872   4.737  19.466  0.00  0.00    +0.000 C 
BRANCH  25  26
ATOM     26  C   UNL     1       6.260   5.369  19.283  0.00  0.00    +0.000 C 
BRANCH  26  27
ATOM     27  N   UNL     1       7.000   4.653  18.235  0.00  0.00    +0.000 NA
ATOM     28  C   UNL     1       7.108   5.211  17.087  0.00  0.00    +0.000 C 
ATOM     29  N   UNL     1       6.666   6.416  16.663  0.00  0.00    +0.000 N 
ATOM     30  N   UNL     1       7.747   4.578  16.081  0.00  0.00    +0.000 N 
ATOM     31  H   UNL     1       5.972   6.849  17.257  0.00  0.00    +0.000 HD
ATOM     32  H   UNL     1       6.364   6.404  15.697  0.00  0.00    +0.000 HD
ATOM     33  H   UNL     1       8.231   3.755  16.423  0.00  0.00    +0.000 HD
ATOM     34  H   UNL     1       8.368   5.180  15.553  0.00  0.00    +0.000 HD
ENDBRANCH  26  27
ENDBRANCH  25  26
ENDBRANCH   7  25
TORSDOF 5
ENDMDL
MODEL 8
REMARK VINA RESULT:      -7.3      0.961      1.114
REMARK  Name = 
REMARK  6 active torsions:
REMARK  status: ('A' for Active; 'I' for Inactive)
REMARK    1  A    between atoms: C_1  and  N_2
REMARK    2  A    between atoms: C_4  and  C_5
REMARK    3  A    between atoms: C_14  and  C_15
REMARK    4  A    between atoms: N_21  and  C_22
REMARK    5  A    between atoms: C_22  and  C_23
REMARK    6  A    between atoms: C_23  and  N_24
REMARK                            x       y       z     vdW  Elec       q    Type
REMARK                         _______ _______ _______ _____ _____    ______ ____
ROOT
ATOM      1  C   UNL     1       0.956   9.741  19.925  0.00  0.00    +0.000 C 
ATOM      2  C   UNL     1       0.796   8.649  20.988  0.00  0.00    +0.000 C 
ATOM      3  C   UNL     1       2.006   7.686  20.908  0.00  0.00    +0.000 C 
ATOM      4  N   UNL     1       2.222   7.199  19.533  0.00  0.00    +0.000 N 
ATOM      5  C   UNL     1       2.506   5.867  19.306  0.00  0.00    +0.000 C 
ATOM      6  O   UNL     1       2.680   5.058  20.217  0.00  0.00    +0.000 OA
ATOM      7  N   UNL     1       2.547   5.499  17.990  0.00  0.00    +0.000 N 
ATOM      8  C   UNL     1       2.346   8.251  18.527  0.00  0.00    +0.000 C 
ATOM      9  C   UNL     1       1.085   9.077  18.545  0.00  0.00    +0.000 C 
ATOM     10  H   UNL     1       2.208   6.109  17.273  0.00  0.00    +0.000 HD
ENDROOT
BRANCH   1  16
ATOM     11  C   UNL     1       1.364  12.457  18.593  0.00  0.00    +0.000 C 
ATOM     12  N   UNL     1       0.101  11.942  19.080  0.00  0.00    +0.000 N 
ATOM     13  N   UNL     1      -1.033  12.503  18.636  0.00  0.00    +0.000 NA
ATOM     14  C   UNL     1      -2.018  11.736  19.131  0.00  0.00    +0.000 A 
ATOM     15  C   UNL     1      -1.477  10.724  19.978  0.00  0.00    +0.000 A 
ATOM     16  C   UNL     1      -0.110  10.785  19.792  0.00  0.00    +0.000 A 
BRANCH  14  17
ATOM     17  C   UNL     1      -3.395  11.894  18.641  0.00  0.00    +0.000 A 
ATOM     18  C   UNL     1      -3.649  11.509  17.303  0.00  0.00    +0.000 A 
ATOM     19  C   UNL     1      -4.930  11.561  16.756  0.00  0.00    +0.000 A 
ATOM     20  C   UNL     1      -5.988  12.000  17.541  0.00  0.00    +0.000 A 
ATOM     21  C   UNL     1      -5.762  12.394  18.866  0.00  0.00    +0.000 A 
ATOM     22 CL   UNL     1      -7.148  12.916  19.764  0.00  0.00    +0.000 Cl
ATOM     23  C   UNL     1      -4.469  12.351  19.424  0.00  0.00    +0.000 A 
ATOM     24 CL   UNL     1      -4.225  12.896  21.057  0.00  0.00    +0.000 Cl
ENDBRANCH  14  17
ENDBRANCH   1  16
BRANCH   7  25
ATOM     25  C   UNL     1       2.885   4.162  17.545  0.00  0.00    +0.000 C 
BRANCH  25  26
ATOM     26  C   UNL     1       4.330   4.098  17.028  0.00  0.00    +0.000 C 
BRANCH  26  27
ATOM     27  N   UNL     1       5.263   4.042  18.161  0.00  0.00    +0.000 NA
ATOM     28  C   UNL     1       5.999   5.065  18.387  0.00  0.00    +0.000 C 
ATOM     29  N   UNL     1       6.043   6.258  17.752  0.00  0.00    +0.000 N 
ATOM     30  N   UNL     1       6.897   5.049  19.393  0.00  0.00    +0.000 N 
ATOM     31  H   UNL     1       5.595   6.276  16.846  0.00  0.00    +0.000 HD
ATOM     32  H   UNL     1       6.980   6.640  17.704  0.00  0.00    +0.000 HD
ATOM     33  H   UNL     1       6.761   4.236  19.984  0.00  0.00    +0.000 HD
ATOM     34  H   UNL     1       6.913   5.904  19.937  0.00  0.00    +0.000 HD
ENDBRANCH  26  27
ENDBRANCH  25  26
ENDBRANCH   7  25
TORSDOF 5
ENDMDL
MODEL 9
REMARK VINA RESULT:      -7.3      4.559     10.025
REMARK  Name = 
REMARK  6 active torsions:
REMARK  status: ('A' for Active; 'I' for Inactive)
REMARK    1  A    between atoms: C_1  and  N_2
REMARK    2  A    between atoms: C_4  and  C_5
REMARK    3  A    between atoms: C_14  and  C_15
REMARK    4  A    between atoms: N_21  and  C_22
REMARK    5  A    between atoms: C_22  and  C_23
REMARK    6  A    between atoms: C_23  and  N_24
REMARK                            x       y       z     vdW  Elec       q    Type
REMARK                         _______ _______ _______ _____ _____    ______ ____
ROOT
ATOM      1  C   UNL     1       2.402   6.663  18.456  0.00  0.00    +0.000 C 
ATOM      2  C   UNL     1       2.358   6.885  19.972  0.00  0.00    +0.000 C 
ATOM      3  C   UNL     1       1.230   7.893  20.302  0.00  0.00    +0.000 C 
ATOM      4  N   UNL     1       1.341   9.118  19.490  0.00  0.00    +0.000 N 
ATOM      5  C   UNL     1       1.160  10.357  20.074  0.00  0.00    +0.000 C 
ATOM      6  O   UNL     1       0.815  10.496  21.247  0.00  0.00    +0.000 OA
ATOM      7  N   UNL     1       1.425  11.424  19.263  0.00  0.00    +0.000 N 
ATOM      8  C   UNL     1       1.408   8.889  18.048  0.00  0.00    +0.000 C 
ATOM      9  C   UNL     1       2.605   8.019  17.761  0.00  0.00    +0.000 C 
ATOM     10  H   UNL     1       1.894  11.304  18.388  0.00  0.00    +0.000 HD
ENDROOT
BRANCH   1  16
ATOM     11  C   UNL     1       2.110   3.628  18.325  0.00  0.00    +0.000 C 
ATOM     12  N   UNL     1       3.198   4.392  17.751  0.00  0.00    +0.000 N 
ATOM     13  N   UNL     1       3.959   3.816  16.809  0.00  0.00    +0.000 NA
ATOM     14  C   UNL     1       4.768   4.793  16.368  0.00  0.00    +0.000 A 
ATOM     15  C   UNL     1       4.558   5.985  17.123  0.00  0.00    +0.000 A 
ATOM     16  C   UNL     1       3.435   5.740  17.888  0.00  0.00    +0.000 A 
BRANCH  14  17
ATOM     17  C   UNL     1       5.566   4.598  15.149  0.00  0.00    +0.000 A 
ATOM     18  C   UNL     1       5.032   3.737  14.162  0.00  0.00    +0.000 A 
ATOM     19  C   UNL     1       5.678   3.528  12.944  0.00  0.00    +0.000 A 
ATOM     20  C   UNL     1       6.875   4.182  12.688  0.00  0.00    +0.000 A 
ATOM     21  C   UNL     1       7.429   5.034  13.652  0.00  0.00    +0.000 A 
ATOM     22 CL   UNL     1       8.921   5.809  13.233  0.00  0.00    +0.000 Cl
ATOM     23  C   UNL     1       6.787   5.244  14.889  0.00  0.00    +0.000 A 
ATOM     24 CL   UNL     1       7.535   6.271  16.075  0.00  0.00    +0.000 Cl
ENDBRANCH  14  17
ENDBRANCH   1  16
BRANCH   7  25
ATOM     25  C   UNL     1       1.240  12.802  19.671  0.00  0.00    +0.000 C 
BRANCH  25  26
ATOM     26  C   UNL     1       0.140  13.483  18.844  0.00  0.00    +0.000 C 
BRANCH  26  27
ATOM     27  N   UNL     1      -1.180  12.999  19.273  0.00  0.00    +0.000 NA
ATOM     28  C   UNL     1      -1.915  12.410  18.407  0.00  0.00    +0.000 C 
ATOM     29  N   UNL     1      -1.663  12.113  17.112  0.00  0.00    +0.000 N 
ATOM     30  N   UNL     1      -3.149  11.979  18.743  0.00  0.00    +0.000 N 
ATOM     31  H   UNL     1      -0.880  12.608  16.706  0.00  0.00    +0.000 HD
ATOM     32  H   UNL     1      -2.486  12.187  16.527  0.00  0.00    +0.000 HD
ATOM     33  H   UNL     1      -3.290  12.037  19.745  0.00  0.00    +0.000 HD
ATOM     34  H   UNL     1      -3.365  11.053  18.391  0.00  0.00    +0.000 HD
ENDBRANCH  26  27
ENDBRANCH  25  26
ENDBRANCH   7  25
TORSDOF 5
ENDMDL
