MODEL 1
REMARK VINA RESULT:      -7.2      0.000      0.000
REMARK  Name = 
REMARK  2 active torsions:
REMARK  status: ('A' for Active; 'I' for Inactive)
REMARK    1  A    between atoms: C_6  and  C_7
REMARK    2  A    between atoms: C_13  and  N_14
REMARK                            x       y       z     vdW  Elec       q    Type
REMARK                         _______ _______ _______ _____ _____    ______ ____
ROOT
ATOM      1  C   UNL     1       0.800   8.925  20.990  0.00  0.00    +0.000 A 
ATOM      2  C   UNL     1      -0.212   8.954  21.973  0.00  0.00    +0.000 A 
ATOM      3  C   UNL     1      -0.522  10.275  22.161  0.00  0.00    +0.000 A 
ATOM      4  N   UNL     1      -1.439  10.868  22.981  0.00  0.00    +0.000 NA
ATOM      5  C   UNL     1      -1.518  12.165  22.921  0.00  0.00    +0.000 A 
ATOM      6  C   UNL     1      -0.704  13.042  22.018  0.00  0.00    +0.000 A 
ATOM      7  C   UNL     1       0.214  12.420  21.240  0.00  0.00    +0.000 A 
ATOM      8  N   UNL     1       0.306  11.000  21.302  0.00  0.00    +0.000 N 
ATOM      9  N   UNL     1       1.109  10.162  20.577  0.00  0.00    +0.000 NA
ATOM     10  C   UNL     1      -0.908  14.524  22.036  0.00  0.00    +0.000 C 
ATOM     11  C   UNL     1      -1.666  15.142  23.208  0.00  0.00    +0.000 C 
ATOM     12  C   UNL     1      -2.042  14.186  24.327  0.00  0.00    +0.000 C 
ATOM     13  C   UNL     1      -2.535  12.843  23.818  0.00  0.00    +0.000 C 
ENDROOT
BRANCH   7  14
ATOM     14  N   UNL     1       1.061  13.146  20.380  0.00  0.00    +0.000 N 
ATOM     15  C   UNL     1       2.465  13.416  20.710  0.00  0.00    +0.000 C 
ATOM     16  C   UNL     1       2.736  14.894  20.424  0.00  0.00    +0.000 C 
ATOM     17  C   UNL     1       2.384  15.251  18.977  0.00  0.00    +0.000 C 
ATOM     18  C   UNL     1       0.973  14.794  18.602  0.00  0.00    +0.000 C 
ATOM     19  C   UNL     1       0.754  13.330  18.958  0.00  0.00    +0.000 C 
ATOM     20  O   UNL     1       3.349  14.643  18.100  0.00  0.00    +0.000 OA
ATOM     21  C   UNL     1       3.701  15.661  17.168  0.00  0.00    +0.000 C 
ATOM     22  C   UNL     1       3.528  16.939  17.940  0.00  0.00    +0.000 C 
ATOM     23  O   UNL     1       2.428  16.681  18.810  0.00  0.00    +0.000 OA
ENDBRANCH   7  14
BRANCH   1  29
ATOM     24  F   UNL     1       1.859   4.203  21.183  0.00  0.00    +0.000 F 
ATOM     25  C   UNL     1       1.972   5.380  20.556  0.00  0.00    +0.000 A 
ATOM     26  C   UNL     1       2.698   5.456  19.373  0.00  0.00    +0.000 A 
ATOM     27  C   UNL     1       2.817   6.680  18.718  0.00  0.00    +0.000 A 
ATOM     28  C   UNL     1       2.205   7.818  19.253  0.00  0.00    +0.000 A 
ATOM     29  C   UNL     1       1.461   7.740  20.444  0.00  0.00    +0.000 A 
ATOM     30  C   UNL     1       1.357   6.505  21.094  0.00  0.00    +0.000 A 
ENDBRANCH   1  29
TORSDOF 2
ENDMDL
MODEL 2
REMARK VINA RESULT:      -7.2      0.898      1.257
REMARK  Name = 
REMARK  2 active torsions:
REMARK  status: ('A' for Active; 'I' for Inactive)
REMARK    1  A    between atoms: C_6  and  C_7
REMARK    2  A    between atoms: C_13  and  N_14
REMARK                            x       y       z     vdW  Elec       q    Type
REMARK                         _______ _______ _______ _____ _____    ______ ____
ROOT
ATOM      1  C   UNL     1       0.823   8.878  20.897  0.00  0.00    +0.000 A 
ATOM      2  C   UNL     1      -0.169   8.877  21.901  0.00  0.00    +0.000 A 
ATOM      3  C   UNL     1      -0.506  10.188  22.106  0.00  0.00    +0.000 A 
ATOM      4  N   UNL     1      -1.418  10.754  22.949  0.00  0.00    +0.000 NA
ATOM      5  C   UNL     1      -1.528  12.050  22.902  0.00  0.00    +0.000 A 
ATOM      6  C   UNL     1      -0.753  12.952  21.990  0.00  0.00    +0.000 A 
ATOM      7  C   UNL     1       0.163  12.357  21.188  0.00  0.00    +0.000 A 
ATOM      8  N   UNL     1       0.288  10.939  21.235  0.00  0.00    +0.000 N 
ATOM      9  N   UNL     1       1.094  10.126  20.487  0.00  0.00    +0.000 NA
ATOM     10  C   UNL     1      -0.990  14.429  22.024  0.00  0.00    +0.000 C 
ATOM     11  C   UNL     1      -1.737  15.020  23.216  0.00  0.00    +0.000 C 
ATOM     12  C   UNL     1      -2.068  14.047  24.335  0.00  0.00    +0.000 C 
ATOM     13  C   UNL     1      -2.541  12.697  23.825  0.00  0.00    +0.000 C 
ENDROOT
BRANCH   7  14
ATOM     14  N   UNL     1       0.975  13.108  20.316  0.00  0.00    +0.000 N 
ATOM     15  C   UNL     1       2.387  13.388  20.608  0.00  0.00    +0.000 C 
ATOM     16  C   UNL     1       2.634  14.873  20.343  0.00  0.00    +0.000 C 
ATOM     17  C   UNL     1       2.233  15.255  18.915  0.00  0.00    +0.000 C 
ATOM     18  C   UNL     1       0.815  14.791  18.575  0.00  0.00    +0.000 C 
ATOM     19  C   UNL     1       0.622  13.318  18.909  0.00  0.00    +0.000 C 
ATOM     20  O   UNL     1       3.176  14.675  17.996  0.00  0.00    +0.000 OA
ATOM     21  C   UNL     1       3.489  15.715  17.075  0.00  0.00    +0.000 C 
ATOM     22  C   UNL     1       3.327  16.975  17.877  0.00  0.00    +0.000 C 
ATOM     23  O   UNL     1       2.257  16.689  18.775  0.00  0.00    +0.000 OA
ENDBRANCH   7  14
BRANCH   1  29
ATOM     24  F   UNL     1       3.545   6.826  17.458  0.00  0.00    +0.000 F 
ATOM     25  C   UNL     1       2.864   6.709  18.605  0.00  0.00    +0.000 A 
ATOM     26  C   UNL     1       2.829   5.482  19.256  0.00  0.00    +0.000 A 
ATOM     27  C   UNL     1       2.121   5.360  20.450  0.00  0.00    +0.000 A 
ATOM     28  C   UNL     1       1.455   6.468  20.982  0.00  0.00    +0.000 A 
ATOM     29  C   UNL     1       1.498   7.713  20.328  0.00  0.00    +0.000 A 
ATOM     30  C   UNL     1       2.209   7.819  19.127  0.00  0.00    +0.000 A 
ENDBRANCH   1  29
TORSDOF 2
ENDMDL
MODEL 3
REMARK VINA RESULT:      -7.2      3.401      5.927
REMARK  Name = 
REMARK  2 active torsions:
REMARK  status: ('A' for Active; 'I' for Inactive)
REMARK    1  A    between atoms: C_6  and  C_7
REMARK    2  A    between atoms: C_13  and  N_14
REMARK                            x       y       z     vdW  Elec       q    Type
REMARK                         _______ _______ _______ _____ _____    ______ ____
ROOT
ATOM      1  C   UNL     1       0.887  11.087  19.515  0.00  0.00    +0.000 A 
ATOM      2  C   UNL     1       1.555  12.091  18.781  0.00  0.00    +0.000 A 
ATOM      3  C   UNL     1       0.844  13.245  18.979  0.00  0.00    +0.000 A 
ATOM      4  N   UNL     1       1.053  14.512  18.518  0.00  0.00    +0.000 NA
ATOM      5  C   UNL     1       0.201  15.418  18.902  0.00  0.00    +0.000 A 
ATOM      6  C   UNL     1      -0.963  15.181  19.814  0.00  0.00    +0.000 A 
ATOM      7  C   UNL     1      -1.156  13.905  20.228  0.00  0.00    +0.000 A 
ATOM      8  N   UNL     1      -0.227  12.909  19.812  0.00  0.00    +0.000 N 
ATOM      9  N   UNL     1      -0.187  11.583  20.146  0.00  0.00    +0.000 NA
ATOM     10  C   UNL     1      -1.858  16.319  20.193  0.00  0.00    +0.000 C 
ATOM     11  C   UNL     1      -1.791  17.604  19.372  0.00  0.00    +0.000 C 
ATOM     12  C   UNL     1      -0.889  17.558  18.150  0.00  0.00    +0.000 C 
ATOM     13  C   UNL     1       0.421  16.834  18.406  0.00  0.00    +0.000 C 
ENDROOT
BRANCH   7  14
ATOM     14  N   UNL     1      -2.239  13.557  21.058  0.00  0.00    +0.000 N 
ATOM     15  C   UNL     1      -3.430  12.870  20.544  0.00  0.00    +0.000 C 
ATOM     16  C   UNL     1      -4.660  13.586  21.102  0.00  0.00    +0.000 C 
ATOM     17  C   UNL     1      -4.620  13.644  22.632  0.00  0.00    +0.000 C 
ATOM     18  C   UNL     1      -3.291  14.199  23.148  0.00  0.00    +0.000 C 
ATOM     19  C   UNL     1      -2.109  13.477  22.517  0.00  0.00    +0.000 C 
ATOM     20  O   UNL     1      -4.839  12.322  23.153  0.00  0.00    +0.000 OA
ATOM     21  C   UNL     1      -5.781  12.487  24.210  0.00  0.00    +0.000 C 
ATOM     22  C   UNL     1      -6.591  13.682  23.793  0.00  0.00    +0.000 C 
ATOM     23  O   UNL     1      -5.661  14.519  23.107  0.00  0.00    +0.000 OA
ENDBRANCH   7  14
BRANCH   1  29
ATOM     24  F   UNL     1       2.870   7.083  17.648  0.00  0.00    +0.000 F 
ATOM     25  C   UNL     1       2.266   7.693  18.675  0.00  0.00    +0.000 A 
ATOM     26  C   UNL     1       2.028   6.984  19.846  0.00  0.00    +0.000 A 
ATOM     27  C   UNL     1       1.399   7.617  20.916  0.00  0.00    +0.000 A 
ATOM     28  C   UNL     1       1.016   8.957  20.804  0.00  0.00    +0.000 A 
ATOM     29  C   UNL     1       1.266   9.679  19.623  0.00  0.00    +0.000 A 
ATOM     30  C   UNL     1       1.892   9.027  18.555  0.00  0.00    +0.000 A 
ENDBRANCH   1  29
TORSDOF 2
ENDMDL
MODEL 4
REMARK VINA RESULT:      -7.2      0.778      1.394
REMARK  Name = 
REMARK  2 active torsions:
REMARK  status: ('A' for Active; 'I' for Inactive)
REMARK    1  A    between atoms: C_6  and  C_7
REMARK    2  A    between atoms: C_13  and  N_14
REMARK                            x       y       z     vdW  Elec       q    Type
REMARK                         _______ _______ _______ _____ _____    ______ ____
ROOT
ATOM      1  C   UNL     1       0.681   9.501  20.968  0.00  0.00    +0.000 A 
ATOM      2  C   UNL     1      -0.378   9.458  21.899  0.00  0.00    +0.000 A 
ATOM      3  C   UNL     1      -0.690  10.760  22.183  0.00  0.00    +0.000 A 
ATOM      4  N   UNL     1      -1.643  11.291  23.004  0.00  0.00    +0.000 NA
ATOM      5  C   UNL     1      -1.712  12.590  23.051  0.00  0.00    +0.000 A 
ATOM      6  C   UNL     1      -0.849  13.531  22.266  0.00  0.00    +0.000 A 
ATOM      7  C   UNL     1       0.103  12.969  21.484  0.00  0.00    +0.000 A 
ATOM      8  N   UNL     1       0.184  11.547  21.429  0.00  0.00    +0.000 N 
ATOM      9  N   UNL     1       1.017  10.766  20.676  0.00  0.00    +0.000 NA
ATOM     10  C   UNL     1      -1.046  15.008  22.400  0.00  0.00    +0.000 C 
ATOM     11  C   UNL     1      -1.857  15.533  23.581  0.00  0.00    +0.000 C 
ATOM     12  C   UNL     1      -2.294  14.490  24.595  0.00  0.00    +0.000 C 
ATOM     13  C   UNL     1      -2.768  13.199  23.951  0.00  0.00    +0.000 C 
ENDROOT
BRANCH   7  14
ATOM     14  N   UNL     1       0.995  13.756  20.731  0.00  0.00    +0.000 N 
ATOM     15  C   UNL     1       0.674  14.225  19.378  0.00  0.00    +0.000 C 
ATOM     16  C   UNL     1       1.891  13.962  18.491  0.00  0.00    +0.000 C 
ATOM     17  C   UNL     1       3.149  14.620  19.067  0.00  0.00    +0.000 C 
ATOM     18  C   UNL     1       3.362  14.256  20.538  0.00  0.00    +0.000 C 
ATOM     19  C   UNL     1       2.099  14.494  21.354  0.00  0.00    +0.000 C 
ATOM     20  O   UNL     1       3.035  16.046  18.923  0.00  0.00    +0.000 OA
ATOM     21  C   UNL     1       4.301  16.474  18.428  0.00  0.00    +0.000 C 
ATOM     22  C   UNL     1       4.801  15.298  17.637  0.00  0.00    +0.000 C 
ATOM     23  O   UNL     1       4.307  14.161  18.342  0.00  0.00    +0.000 OA
ENDBRANCH   7  14
BRANCH   1  29
ATOM     24  F   UNL     1       2.092   4.870  21.059  0.00  0.00    +0.000 F 
ATOM     25  C   UNL     1       2.051   6.045  20.418  0.00  0.00    +0.000 A 
ATOM     26  C   UNL     1       2.635   6.159  19.163  0.00  0.00    +0.000 A 
ATOM     27  C   UNL     1       2.592   7.380  18.495  0.00  0.00    +0.000 A 
ATOM     28  C   UNL     1       1.962   8.478  19.090  0.00  0.00    +0.000 A 
ATOM     29  C   UNL     1       1.362   8.361  20.356  0.00  0.00    +0.000 A 
ATOM     30  C   UNL     1       1.418   7.128  21.017  0.00  0.00    +0.000 A 
ENDBRANCH   1  29
TORSDOF 2
ENDMDL
MODEL 5
REMARK VINA RESULT:      -7.1      1.267      1.933
REMARK  Name = 
REMARK  2 active torsions:
REMARK  status: ('A' for Active; 'I' for Inactive)
REMARK    1  A    between atoms: C_6  and  C_7
REMARK    2  A    between atoms: C_13  and  N_14
REMARK                            x       y       z     vdW  Elec       q    Type
REMARK                         _______ _______ _______ _____ _____    ______ ____
ROOT
ATOM      1  C   UNL     1       0.642   9.589  20.971  0.00  0.00    +0.000 A 
ATOM      2  C   UNL     1      -0.417   9.548  21.902  0.00  0.00    +0.000 A 
ATOM      3  C   UNL     1      -0.711  10.851  22.204  0.00  0.00    +0.000 A 
ATOM      4  N   UNL     1      -1.655  11.385  23.032  0.00  0.00    +0.000 NA
ATOM      5  C   UNL     1      -1.706  12.683  23.097  0.00  0.00    +0.000 A 
ATOM      6  C   UNL     1      -0.830  13.623  22.325  0.00  0.00    +0.000 A 
ATOM      7  C   UNL     1       0.114  13.057  21.535  0.00  0.00    +0.000 A 
ATOM      8  N   UNL     1       0.174  11.636  21.460  0.00  0.00    +0.000 N 
ATOM      9  N   UNL     1       0.995  10.853  20.696  0.00  0.00    +0.000 NA
ATOM     10  C   UNL     1      -1.005  15.101  22.478  0.00  0.00    +0.000 C 
ATOM     11  C   UNL     1      -1.809  15.621  23.667  0.00  0.00    +0.000 C 
ATOM     12  C   UNL     1      -2.260  14.570  24.667  0.00  0.00    +0.000 C 
ATOM     13  C   UNL     1      -2.753  13.295  24.006  0.00  0.00    +0.000 C 
ENDROOT
BRANCH   7  14
ATOM     14  N   UNL     1       1.017  13.842  20.791  0.00  0.00    +0.000 N 
ATOM     15  C   UNL     1       0.681  14.380  19.468  0.00  0.00    +0.000 C 
ATOM     16  C   UNL     1       1.864  14.109  18.539  0.00  0.00    +0.000 C 
ATOM     17  C   UNL     1       3.160  14.693  19.108  0.00  0.00    +0.000 C 
ATOM     18  C   UNL     1       3.396  14.259  20.556  0.00  0.00    +0.000 C 
ATOM     19  C   UNL     1       2.164  14.510  21.415  0.00  0.00    +0.000 C 
ATOM     20  O   UNL     1       3.099  16.128  19.027  0.00  0.00    +0.000 OA
ATOM     21  C   UNL     1       4.367  16.529  18.517  0.00  0.00    +0.000 C 
ATOM     22  C   UNL     1       4.801  15.370  17.665  0.00  0.00    +0.000 C 
ATOM     23  O   UNL     1       4.281  14.223  18.334  0.00  0.00    +0.000 OA
ENDBRANCH   7  14
BRANCH   1  29
ATOM     24  F   UNL     1       3.108   7.621  17.297  0.00  0.00    +0.000 F 
ATOM     25  C   UNL     1       2.541   7.486  18.503  0.00  0.00    +0.000 A 
ATOM     26  C   UNL     1       2.615   6.262  19.158  0.00  0.00    +0.000 A 
ATOM     27  C   UNL     1       2.027   6.120  20.413  0.00  0.00    +0.000 A 
ATOM     28  C   UNL     1       1.372   7.205  21.002  0.00  0.00    +0.000 A 
ATOM     29  C   UNL     1       1.306   8.447  20.344  0.00  0.00    +0.000 A 
ATOM     30  C   UNL     1       1.896   8.572  19.081  0.00  0.00    +0.000 A 
ENDBRANCH   1  29
TORSDOF 2
ENDMDL
MODEL 6
REMARK VINA RESULT:      -7.0      3.462      5.993
REMARK  Name = 
REMARK  2 active torsions:
REMARK  status: ('A' for Active; 'I' for Inactive)
REMARK    1  A    between atoms: C_6  and  C_7
REMARK    2  A    between atoms: C_13  and  N_14
REMARK                            x       y       z     vdW  Elec       q    Type
REMARK                         _______ _______ _______ _____ _____    ______ ____
ROOT
ATOM      1  C   UNL     1       0.821  11.616  19.165  0.00  0.00    +0.000 A 
ATOM      2  C   UNL     1       1.398  12.701  18.472  0.00  0.00    +0.000 A 
ATOM      3  C   UNL     1       0.645  13.800  18.788  0.00  0.00    +0.000 A 
ATOM      4  N   UNL     1       0.768  15.105  18.408  0.00  0.00    +0.000 NA
ATOM      5  C   UNL     1      -0.103  15.938  18.899  0.00  0.00    +0.000 A 
ATOM      6  C   UNL     1      -1.203  15.579  19.851  0.00  0.00    +0.000 A 
ATOM      7  C   UNL     1      -1.311  14.270  20.183  0.00  0.00    +0.000 A 
ATOM      8  N   UNL     1      -0.360  13.353  19.649  0.00  0.00    +0.000 N 
ATOM      9  N   UNL     1      -0.239  12.012  19.885  0.00  0.00    +0.000 NA
ATOM     10  C   UNL     1      -2.128  16.641  20.355  0.00  0.00    +0.000 C 
ATOM     11  C   UNL     1      -2.167  17.981  19.625  0.00  0.00    +0.000 C 
ATOM     12  C   UNL     1      -1.334  18.066  18.359  0.00  0.00    +0.000 C 
ATOM     13  C   UNL     1       0.021  17.394  18.495  0.00  0.00    +0.000 C 
ENDROOT
BRANCH   7  14
ATOM     14  N   UNL     1      -2.329  13.811  21.040  0.00  0.00    +0.000 N 
ATOM     15  C   UNL     1      -3.488  13.058  20.546  0.00  0.00    +0.000 C 
ATOM     16  C   UNL     1      -4.742  13.658  21.183  0.00  0.00    +0.000 C 
ATOM     17  C   UNL     1      -4.640  13.660  22.711  0.00  0.00    +0.000 C 
ATOM     18  C   UNL     1      -3.334  14.292  23.196  0.00  0.00    +0.000 C 
ATOM     19  C   UNL     1      -2.131  13.685  22.488  0.00  0.00    +0.000 C 
ATOM     20  O   UNL     1      -4.739  12.306  23.186  0.00  0.00    +0.000 OA
ATOM     21  C   UNL     1      -5.644  12.360  24.285  0.00  0.00    +0.000 C 
ATOM     22  C   UNL     1      -6.556  13.507  23.952  0.00  0.00    +0.000 C 
ATOM     23  O   UNL     1      -5.720  14.436  23.265  0.00  0.00    +0.000 OA
ENDBRANCH   7  14
BRANCH   1  29
ATOM     24  F   UNL     1       1.371   7.326  21.344  0.00  0.00    +0.000 F 
ATOM     25  C   UNL     1       1.531   8.090  20.256  0.00  0.00    +0.000 A 
ATOM     26  C   UNL     1       2.101   7.541  19.114  0.00  0.00    +0.000 A 
ATOM     27  C   UNL     1       2.267   8.334  17.981  0.00  0.00    +0.000 A 
ATOM     28  C   UNL     1       1.858   9.671  18.001  0.00  0.00    +0.000 A 
ATOM     29  C   UNL     1       1.271  10.225  19.153  0.00  0.00    +0.000 A 
ATOM     30  C   UNL     1       1.117   9.417  20.285  0.00  0.00    +0.000 A 
ENDBRANCH   1  29
TORSDOF 2
ENDMDL
MODEL 7
REMARK VINA RESULT:      -6.9      2.955      5.527
REMARK  Name = 
REMARK  2 active torsions:
REMARK  status: ('A' for Active; 'I' for Inactive)
REMARK    1  A    between atoms: C_6  and  C_7
REMARK    2  A    between atoms: C_13  and  N_14
REMARK                            x       y       z     vdW  Elec       q    Type
REMARK                         _______ _______ _______ _____ _____    ______ ____
ROOT
ATOM      1  C   UNL     1       1.477  10.771  19.062  0.00  0.00    +0.000 A 
ATOM      2  C   UNL     1       2.117  11.790  18.325  0.00  0.00    +0.000 A 
ATOM      3  C   UNL     1       1.498  12.960  18.674  0.00  0.00    +0.000 A 
ATOM      4  N   UNL     1       1.727  14.245  18.274  0.00  0.00    +0.000 NA
ATOM      5  C   UNL     1       0.974  15.163  18.807  0.00  0.00    +0.000 A 
ATOM      6  C   UNL     1      -0.096  14.919  19.827  0.00  0.00    +0.000 A 
ATOM      7  C   UNL     1      -0.314  13.630  20.178  0.00  0.00    +0.000 A 
ATOM      8  N   UNL     1       0.506  12.620  19.597  0.00  0.00    +0.000 N 
ATOM      9  N   UNL     1       0.507  11.274  19.840  0.00  0.00    +0.000 NA
ATOM     10  C   UNL     1      -0.879  16.071  20.375  0.00  0.00    +0.000 C 
ATOM     11  C   UNL     1      -0.828  17.405  19.635  0.00  0.00    +0.000 C 
ATOM     12  C   UNL     1      -0.068  17.401  18.320  0.00  0.00    +0.000 C 
ATOM     13  C   UNL     1       1.219  16.597  18.382  0.00  0.00    +0.000 C 
ENDROOT
BRANCH   7  14
ATOM     14  N   UNL     1      -1.320  13.278  21.099  0.00  0.00    +0.000 N 
ATOM     15  C   UNL     1      -2.550  12.589  20.690  0.00  0.00    +0.000 C 
ATOM     16  C   UNL     1      -3.728  13.301  21.356  0.00  0.00    +0.000 C 
ATOM     17  C   UNL     1      -3.553  13.357  22.876  0.00  0.00    +0.000 C 
ATOM     18  C   UNL     1      -2.185  13.915  23.275  0.00  0.00    +0.000 C 
ATOM     19  C   UNL     1      -1.062  13.196  22.540  0.00  0.00    +0.000 C 
ATOM     20  O   UNL     1      -3.723  12.034  23.413  0.00  0.00    +0.000 OA
ATOM     21  C   UNL     1      -4.568  12.196  24.548  0.00  0.00    +0.000 C 
ATOM     22  C   UNL     1      -5.414  13.390  24.206  0.00  0.00    +0.000 C 
ATOM     23  O   UNL     1      -4.551  14.229  23.443  0.00  0.00    +0.000 OA
ENDBRANCH   7  14
BRANCH   1  29
ATOM     24  F   UNL     1       1.575   6.425  21.196  0.00  0.00    +0.000 F 
ATOM     25  C   UNL     1       1.819   7.180  20.118  0.00  0.00    +0.000 A 
ATOM     26  C   UNL     1       2.340   6.588  18.973  0.00  0.00    +0.000 A 
ATOM     27  C   UNL     1       2.594   7.373  17.850  0.00  0.00    +0.000 A 
ATOM     28  C   UNL     1       2.322   8.744  17.883  0.00  0.00    +0.000 A 
ATOM     29  C   UNL     1       1.785   9.342  19.037  0.00  0.00    +0.000 A 
ATOM     30  C   UNL     1       1.541   8.542  20.159  0.00  0.00    +0.000 A 
ENDBRANCH   1  29
TORSDOF 2
ENDMDL
MODEL 8
REMARK VINA RESULT:      -6.9      1.818      2.053
REMARK  Name = 
REMARK  2 active torsions:
REMARK  status: ('A' for Active; 'I' for Inactive)
REMARK    1  A    between atoms: C_6  and  C_7
REMARK    2  A    between atoms: C_13  and  N_14
REMARK                            x       y       z     vdW  Elec       q    Type
REMARK                         _______ _______ _______ _____ _____    ______ ____
ROOT
ATOM      1  C   UNL     1       0.867   9.758  19.654  0.00  0.00    +0.000 A 
ATOM      2  C   UNL     1      -0.496   9.962  19.960  0.00  0.00    +0.000 A 
ATOM      3  C   UNL     1      -0.666  11.316  20.063  0.00  0.00    +0.000 A 
ATOM      4  N   UNL     1      -1.781  12.059  20.326  0.00  0.00    +0.000 NA
ATOM      5  C   UNL     1      -1.630  13.351  20.337  0.00  0.00    +0.000 A 
ATOM      6  C   UNL     1      -0.346  14.074  20.067  0.00  0.00    +0.000 A 
ATOM      7  C   UNL     1       0.745  13.305  19.839  0.00  0.00    +0.000 A 
ATOM      8  N   UNL     1       0.586  11.889  19.825  0.00  0.00    +0.000 N 
ATOM      9  N   UNL     1       1.521  10.925  19.563  0.00  0.00    +0.000 NA
ATOM     10  C   UNL     1      -0.313  15.570  20.094  0.00  0.00    +0.000 C 
ATOM     11  C   UNL     1      -1.479  16.314  20.741  0.00  0.00    +0.000 C 
ATOM     12  C   UNL     1      -2.522  15.442  21.417  0.00  0.00    +0.000 C 
ATOM     13  C   UNL     1      -2.858  14.193  20.620  0.00  0.00    +0.000 C 
ENDROOT
BRANCH   7  14
ATOM     14  N   UNL     1       2.013  13.874  19.610  0.00  0.00    +0.000 N 
ATOM     15  C   UNL     1       3.004  14.033  20.680  0.00  0.00    +0.000 C 
ATOM     16  C   UNL     1       3.571  15.450  20.587  0.00  0.00    +0.000 C 
ATOM     17  C   UNL     1       4.148  15.724  19.194  0.00  0.00    +0.000 C 
ATOM     18  C   UNL     1       3.153  15.378  18.085  0.00  0.00    +0.000 C 
ATOM     19  C   UNL     1       2.590  13.975  18.266  0.00  0.00    +0.000 C 
ATOM     20  O   UNL     1       5.354  14.958  19.032  0.00  0.00    +0.000 OA
ATOM     21  C   UNL     1       6.296  15.861  18.460  0.00  0.00    +0.000 C 
ATOM     22  C   UNL     1       5.877  17.206  18.982  0.00  0.00    +0.000 C 
ATOM     23  O   UNL     1       4.456  17.126  19.069  0.00  0.00    +0.000 OA
ENDBRANCH   7  14
BRANCH   1  29
ATOM     24  F   UNL     1       2.087   5.320  21.159  0.00  0.00    +0.000 F 
ATOM     25  C   UNL     1       2.131   6.263  20.209  0.00  0.00    +0.000 A 
ATOM     26  C   UNL     1       2.796   6.000  19.017  0.00  0.00    +0.000 A 
ATOM     27  C   UNL     1       2.842   6.980  18.028  0.00  0.00    +0.000 A 
ATOM     28  C   UNL     1       2.220   8.214  18.240  0.00  0.00    +0.000 A 
ATOM     29  C   UNL     1       1.538   8.477  19.442  0.00  0.00    +0.000 A 
ATOM     30  C   UNL     1       1.506   7.485  20.429  0.00  0.00    +0.000 A 
ENDBRANCH   1  29
TORSDOF 2
ENDMDL
MODEL 9
REMARK VINA RESULT:      -6.8      6.817     10.366
REMARK  Name = 
REMARK  2 active torsions:
REMARK  status: ('A' for Active; 'I' for Inactive)
REMARK    1  A    between atoms: C_6  and  C_7
REMARK    2  A    between atoms: C_13  and  N_14
REMARK                            x       y       z     vdW  Elec       q    Type
REMARK                         _______ _______ _______ _____ _____    ______ ____
ROOT
ATOM      1  C   UNL     1       5.940  15.145  19.036  0.00  0.00    +0.000 A 
ATOM      2  C   UNL     1       6.788  14.963  17.923  0.00  0.00    +0.000 A 
ATOM      3  C   UNL     1       7.881  14.278  18.384  0.00  0.00    +0.000 A 
ATOM      4  N   UNL     1       8.993  13.829  17.733  0.00  0.00    +0.000 NA
ATOM      5  C   UNL     1       9.864  13.180  18.449  0.00  0.00    +0.000 A 
ATOM      6  C   UNL     1       9.729  12.875  19.909  0.00  0.00    +0.000 A 
ATOM      7  C   UNL     1       8.626  13.360  20.528  0.00  0.00    +0.000 A 
ATOM      8  N   UNL     1       7.669  14.072  19.750  0.00  0.00    +0.000 N 
ATOM      9  N   UNL     1       6.468  14.599  20.141  0.00  0.00    +0.000 NA
ATOM     10  C   UNL     1      10.799  12.100  20.611  0.00  0.00    +0.000 C 
ATOM     11  C   UNL     1      12.157  11.949  19.930  0.00  0.00    +0.000 C 
ATOM     12  C   UNL     1      12.331  12.720  18.633  0.00  0.00    +0.000 C 
ATOM     13  C   UNL     1      11.103  12.667  17.741  0.00  0.00    +0.000 C 
ENDROOT
BRANCH   7  14
ATOM     14  N   UNL     1       8.411  13.167  21.907  0.00  0.00    +0.000 N 
ATOM     15  C   UNL     1       8.184  11.838  22.485  0.00  0.00    +0.000 C 
ATOM     16  C   UNL     1       6.991  11.938  23.435  0.00  0.00    +0.000 C 
ATOM     17  C   UNL     1       7.219  13.019  24.497  0.00  0.00    +0.000 C 
ATOM     18  C   UNL     1       7.632  14.354  23.874  0.00  0.00    +0.000 C 
ATOM     19  C   UNL     1       8.790  14.175  22.902  0.00  0.00    +0.000 C 
ATOM     20  O   UNL     1       8.233  12.566  25.411  0.00  0.00    +0.000 OA
ATOM     21  C   UNL     1       7.728  12.867  26.709  0.00  0.00    +0.000 C 
ATOM     22  C   UNL     1       6.236  12.783  26.549  0.00  0.00    +0.000 C 
ATOM     23  O   UNL     1       5.995  13.247  25.222  0.00  0.00    +0.000 OA
ENDBRANCH   7  14
BRANCH   1  29
ATOM     24  F   UNL     1       2.273  17.319  16.739  0.00  0.00    +0.000 F 
ATOM     25  C   UNL     1       2.821  16.897  17.886  0.00  0.00    +0.000 A 
ATOM     26  C   UNL     1       2.133  17.083  19.079  0.00  0.00    +0.000 A 
ATOM     27  C   UNL     1       2.701  16.643  20.273  0.00  0.00    +0.000 A 
ATOM     28  C   UNL     1       3.952  16.018  20.261  0.00  0.00    +0.000 A 
ATOM     29  C   UNL     1       4.643  15.820  19.052  0.00  0.00    +0.000 A 
ATOM     30  C   UNL     1       4.063  16.273  17.862  0.00  0.00    +0.000 A 
ENDBRANCH   1  29
TORSDOF 2
ENDMDL
