MODEL 1
REMARK VINA RESULT:      -8.1      0.000      0.000
REMARK  Name = 
REMARK  8 active torsions:
REMARK  status: ('A' for Active; 'I' for Inactive)
REMARK    1  A    between atoms: C_1  and  C_2
REMARK    2  A    between atoms: C_2  and  C_3
REMARK    3  A    between atoms: C_3  and  C_4
REMARK    4  A    between atoms: C_4  and  C_5
REMARK    5  A    between atoms: C_5  and  C_6
REMARK    6  A    between atoms: C_6  and  C_7
REMARK    7  A    between atoms: C_11  and  O_12
REMARK    8  A    between atoms: C_18  and  O_19
REMARK                            x       y       z     vdW  Elec       q    Type
REMARK                         _______ _______ _______ _____ _____    ______ ____
ROOT
ATOM      1  C   UNL     1       4.512   4.788  16.712  0.00  0.00    +0.000 C 
ATOM      2  C   UNL     1       5.665   5.549  17.335  0.00  0.00    +0.000 A 
ATOM      3  C   UNL     1       6.297   6.608  16.663  0.00  0.00    +0.000 A 
ATOM      4  C   UNL     1       7.362   7.289  17.259  0.00  0.00    +0.000 A 
ATOM      5  C   UNL     1       7.806   6.902  18.519  0.00  0.00    +0.000 A 
ATOM      6  C   UNL     1       7.201   5.849  19.196  0.00  0.00    +0.000 A 
ATOM      7  C   UNL     1       6.122   5.187  18.609  0.00  0.00    +0.000 A 
ATOM      8  O   UNL     1       5.543   4.182  19.350  0.00  0.00    +0.000 OA
ATOM      9  C   UNL     1       4.250   3.835  19.028  0.00  0.00    +0.000 A 
ATOM     10  C   UNL     1       3.525   3.150  20.006  0.00  0.00    +0.000 A 
ATOM     11  C   UNL     1       2.207   2.790  19.748  0.00  0.00    +0.000 A 
ATOM     12  C   UNL     1       1.599   3.122  18.543  0.00  0.00    +0.000 A 
ATOM     13  C   UNL     1       2.322   3.818  17.576  0.00  0.00    +0.000 A 
ATOM     14  C   UNL     1       3.668   4.148  17.795  0.00  0.00    +0.000 A 
ENDROOT
BRANCH   5  15
ATOM     15  O   UNL     1       8.838   7.543  19.138  0.00  0.00    +0.000 OA
ATOM     16  H   UNL     1       9.666   7.316  18.679  0.00  0.00    +0.000 HD
ENDBRANCH   5  15
BRANCH  11  17
ATOM     17  O   UNL     1       1.461   2.105  20.662  0.00  0.00    +0.000 OA
ATOM     18  H   UNL     1       1.077   1.330  20.226  0.00  0.00    +0.000 HD
ENDBRANCH  11  17
BRANCH   1  19
ATOM     19  C   UNL     1       5.053   3.746  15.691  0.00  0.00    +0.000 C 
BRANCH  19  20
ATOM     20  C   UNL     1       5.268   4.318  14.285  0.00  0.00    +0.000 C 
BRANCH  20  21
ATOM     21  C   UNL     1       6.588   3.895  13.646  0.00  0.00    +0.000 C 
BRANCH  21  22
ATOM     22  C   UNL     1       6.384   3.682  12.141  0.00  0.00    +0.000 C 
BRANCH  22  24
ATOM     23  C   UNL     1       4.130   3.184  11.153  0.00  0.00    +0.000 C 
ATOM     24  C   UNL     1       5.351   2.599  11.848  0.00  0.00    +0.000 C 
ENDBRANCH  22  24
ENDBRANCH  21  22
ENDBRANCH  20  21
ENDBRANCH  19  20
ENDBRANCH   1  19
TORSDOF 7
ENDMDL
MODEL 2
REMARK VINA RESULT:      -8.0      3.737      6.055
REMARK  Name = 
REMARK  8 active torsions:
REMARK  status: ('A' for Active; 'I' for Inactive)
REMARK    1  A    between atoms: C_1  and  C_2
REMARK    2  A    between atoms: C_2  and  C_3
REMARK    3  A    between atoms: C_3  and  C_4
REMARK    4  A    between atoms: C_4  and  C_5
REMARK    5  A    between atoms: C_5  and  C_6
REMARK    6  A    between atoms: C_6  and  C_7
REMARK    7  A    between atoms: C_11  and  O_12
REMARK    8  A    between atoms: C_18  and  O_19
REMARK                            x       y       z     vdW  Elec       q    Type
REMARK                         _______ _______ _______ _____ _____    ______ ____
ROOT
ATOM      1  C   UNL     1       2.603   6.100  20.113  0.00  0.00    +0.000 C 
ATOM      2  C   UNL     1       2.091   7.452  19.653  0.00  0.00    +0.000 A 
ATOM      3  C   UNL     1       1.422   8.322  20.530  0.00  0.00    +0.000 A 
ATOM      4  C   UNL     1       0.956   9.559  20.077  0.00  0.00    +0.000 A 
ATOM      5  C   UNL     1       1.142   9.919  18.746  0.00  0.00    +0.000 A 
ATOM      6  C   UNL     1       1.792   9.067  17.861  0.00  0.00    +0.000 A 
ATOM      7  C   UNL     1       2.278   7.843  18.321  0.00  0.00    +0.000 A 
ATOM      8  O   UNL     1       2.948   7.065  17.404  0.00  0.00    +0.000 OA
ATOM      9  C   UNL     1       3.809   6.113  17.902  0.00  0.00    +0.000 A 
ATOM     10  C   UNL     1       4.782   5.629  17.025  0.00  0.00    +0.000 A 
ATOM     11  C   UNL     1       5.694   4.681  17.475  0.00  0.00    +0.000 A 
ATOM     12  C   UNL     1       5.662   4.228  18.789  0.00  0.00    +0.000 A 
ATOM     13  C   UNL     1       4.698   4.725  19.665  0.00  0.00    +0.000 A 
ATOM     14  C   UNL     1       3.737   5.645  19.219  0.00  0.00    +0.000 A 
ENDROOT
BRANCH   5  15
ATOM     15  O   UNL     1       0.707  11.119  18.266  0.00  0.00    +0.000 OA
ATOM     16  H   UNL     1      -0.266  11.115  18.252  0.00  0.00    +0.000 HD
ENDBRANCH   5  15
BRANCH  11  17
ATOM     17  O   UNL     1       6.651   4.164  16.654  0.00  0.00    +0.000 OA
ATOM     18  H   UNL     1       6.213   3.715  15.916  0.00  0.00    +0.000 HD
ENDBRANCH  11  17
BRANCH   1  19
ATOM     19  C   UNL     1       1.434   5.075  20.154  0.00  0.00    +0.000 C 
BRANCH  19  20
ATOM     20  C   UNL     1       1.740   3.828  20.993  0.00  0.00    +0.000 C 
BRANCH  20  21
ATOM     21  C   UNL     1       1.656   2.523  20.205  0.00  0.00    +0.000 C 
BRANCH  21  22
ATOM     22  C   UNL     1       1.263   2.826  18.754  0.00  0.00    +0.000 C 
BRANCH  22  24
ATOM     23  C   UNL     1       3.374   1.511  18.414  0.00  0.00    +0.000 C 
ATOM     24  C   UNL     1       2.360   2.442  17.768  0.00  0.00    +0.000 C 
ENDBRANCH  22  24
ENDBRANCH  21  22
ENDBRANCH  20  21
ENDBRANCH  19  20
ENDBRANCH   1  19
TORSDOF 7
ENDMDL
MODEL 3
REMARK VINA RESULT:      -7.9      3.708      6.018
REMARK  Name = 
REMARK  8 active torsions:
REMARK  status: ('A' for Active; 'I' for Inactive)
REMARK    1  A    between atoms: C_1  and  C_2
REMARK    2  A    between atoms: C_2  and  C_3
REMARK    3  A    between atoms: C_3  and  C_4
REMARK    4  A    between atoms: C_4  and  C_5
REMARK    5  A    between atoms: C_5  and  C_6
REMARK    6  A    between atoms: C_6  and  C_7
REMARK    7  A    between atoms: C_11  and  O_12
REMARK    8  A    between atoms: C_18  and  O_19
REMARK                            x       y       z     vdW  Elec       q    Type
REMARK                         _______ _______ _______ _____ _____    ______ ____
ROOT
ATOM      1  C   UNL     1       3.113   5.989  19.532  0.00  0.00    +0.000 C 
ATOM      2  C   UNL     1       2.387   7.317  19.424  0.00  0.00    +0.000 A 
ATOM      3  C   UNL     1       1.608   7.817  20.479  0.00  0.00    +0.000 A 
ATOM      4  C   UNL     1       0.945   9.041  20.349  0.00  0.00    +0.000 A 
ATOM      5  C   UNL     1       1.048   9.756  19.161  0.00  0.00    +0.000 A 
ATOM      6  C   UNL     1       1.806   9.272  18.101  0.00  0.00    +0.000 A 
ATOM      7  C   UNL     1       2.486   8.062  18.242  0.00  0.00    +0.000 A 
ATOM      8  O   UNL     1       3.252   7.660  17.171  0.00  0.00    +0.000 OA
ATOM      9  C   UNL     1       4.260   6.758  17.426  0.00  0.00    +0.000 A 
ATOM     10  C   UNL     1       5.280   6.674  16.475  0.00  0.00    +0.000 A 
ATOM     11  C   UNL     1       6.336   5.796  16.687  0.00  0.00    +0.000 A 
ATOM     12  C   UNL     1       6.400   5.021  17.839  0.00  0.00    +0.000 A 
ATOM     13  C   UNL     1       5.388   5.119  18.791  0.00  0.00    +0.000 A 
ATOM     14  C   UNL     1       4.287   5.962  18.576  0.00  0.00    +0.000 A 
ENDROOT
BRANCH   5  15
ATOM     15  O   UNL     1       0.421  10.956  18.996  0.00  0.00    +0.000 OA
ATOM     16  H   UNL     1       1.007  11.661  19.321  0.00  0.00    +0.000 HD
ENDBRANCH   5  15
BRANCH  11  17
ATOM     17  O   UNL     1       7.347   5.663  15.781  0.00  0.00    +0.000 OA
ATOM     18  H   UNL     1       7.010   5.179  15.013  0.00  0.00    +0.000 HD
ENDBRANCH  11  17
BRANCH   1  19
ATOM     19  C   UNL     1       2.119   4.818  19.282  0.00  0.00    +0.000 C 
BRANCH  19  20
ATOM     20  C   UNL     1       1.812   4.580  17.799  0.00  0.00    +0.000 C 
BRANCH  20  21
ATOM     21  C   UNL     1       2.360   3.259  17.264  0.00  0.00    +0.000 C 
BRANCH  21  22
ATOM     22  C   UNL     1       2.333   2.206  18.378  0.00  0.00    +0.000 C 
BRANCH  22  24
ATOM     23  C   UNL     1       4.308   1.948  19.906  0.00  0.00    +0.000 C 
ATOM     24  C   UNL     1       3.691   1.542  18.576  0.00  0.00    +0.000 C 
ENDBRANCH  22  24
ENDBRANCH  21  22
ENDBRANCH  20  21
ENDBRANCH  19  20
ENDBRANCH   1  19
TORSDOF 7
ENDMDL
MODEL 4
REMARK VINA RESULT:      -7.8      3.195      6.334
REMARK  Name = 
REMARK  8 active torsions:
REMARK  status: ('A' for Active; 'I' for Inactive)
REMARK    1  A    between atoms: C_1  and  C_2
REMARK    2  A    between atoms: C_2  and  C_3
REMARK    3  A    between atoms: C_3  and  C_4
REMARK    4  A    between atoms: C_4  and  C_5
REMARK    5  A    between atoms: C_5  and  C_6
REMARK    6  A    between atoms: C_6  and  C_7
REMARK    7  A    between atoms: C_11  and  O_12
REMARK    8  A    between atoms: C_18  and  O_19
REMARK                            x       y       z     vdW  Elec       q    Type
REMARK                         _______ _______ _______ _____ _____    ______ ____
ROOT
ATOM      1  C   UNL     1       3.283   4.899  18.473  0.00  0.00    +0.000 C 
ATOM      2  C   UNL     1       2.705   6.234  18.901  0.00  0.00    +0.000 A 
ATOM      3  C   UNL     1       1.966   6.368  20.088  0.00  0.00    +0.000 A 
ATOM      4  C   UNL     1       1.439   7.610  20.455  0.00  0.00    +0.000 A 
ATOM      5  C   UNL     1       1.636   8.712  19.629  0.00  0.00    +0.000 A 
ATOM      6  C   UNL     1       2.356   8.596  18.445  0.00  0.00    +0.000 A 
ATOM      7  C   UNL     1       2.901   7.361  18.093  0.00  0.00    +0.000 A 
ATOM      8  O   UNL     1       3.637   7.325  16.931  0.00  0.00    +0.000 OA
ATOM      9  C   UNL     1       4.539   6.294  16.794  0.00  0.00    +0.000 A 
ATOM     10  C   UNL     1       5.559   6.475  15.857  0.00  0.00    +0.000 A 
ATOM     11  C   UNL     1       6.513   5.479  15.688  0.00  0.00    +0.000 A 
ATOM     12  C   UNL     1       6.476   4.318  16.453  0.00  0.00    +0.000 A 
ATOM     13  C   UNL     1       5.465   4.148  17.396  0.00  0.00    +0.000 A 
ATOM     14  C   UNL     1       4.463   5.119  17.549  0.00  0.00    +0.000 A 
ENDROOT
BRANCH   5  15
ATOM     15  O   UNL     1       1.143   9.941  19.954  0.00  0.00    +0.000 OA
ATOM     16  H   UNL     1       0.172   9.889  19.988  0.00  0.00    +0.000 HD
ENDBRANCH   5  15
BRANCH  11  17
ATOM     17  O   UNL     1       7.519   5.599  14.775  0.00  0.00    +0.000 OA
ATOM     18  H   UNL     1       8.360   5.663  15.251  0.00  0.00    +0.000 HD
ENDBRANCH  11  17
BRANCH   1  19
ATOM     19  C   UNL     1       2.175   4.024  17.819  0.00  0.00    +0.000 C 
BRANCH  19  20
ATOM     20  C   UNL     1       2.403   2.518  17.986  0.00  0.00    +0.000 C 
BRANCH  20  21
ATOM     21  C   UNL     1       1.492   1.871  19.027  0.00  0.00    +0.000 C 
BRANCH  21  22
ATOM     22  C   UNL     1       0.807   2.964  19.857  0.00  0.00    +0.000 C 
BRANCH  22  24
ATOM     23  C   UNL     1       2.685   2.763  21.511  0.00  0.00    +0.000 C 
ATOM     24  C   UNL     1       1.179   2.884  21.333  0.00  0.00    +0.000 C 
ENDBRANCH  22  24
ENDBRANCH  21  22
ENDBRANCH  20  21
ENDBRANCH  19  20
ENDBRANCH   1  19
TORSDOF 7
ENDMDL
MODEL 5
REMARK VINA RESULT:      -7.6      3.478      4.171
REMARK  Name = 
REMARK  8 active torsions:
REMARK  status: ('A' for Active; 'I' for Inactive)
REMARK    1  A    between atoms: C_1  and  C_2
REMARK    2  A    between atoms: C_2  and  C_3
REMARK    3  A    between atoms: C_3  and  C_4
REMARK    4  A    between atoms: C_4  and  C_5
REMARK    5  A    between atoms: C_5  and  C_6
REMARK    6  A    between atoms: C_6  and  C_7
REMARK    7  A    between atoms: C_11  and  O_12
REMARK    8  A    between atoms: C_18  and  O_19
REMARK                            x       y       z     vdW  Elec       q    Type
REMARK                         _______ _______ _______ _____ _____    ______ ____
ROOT
ATOM      1  C   UNL     1       3.079   6.536  17.545  0.00  0.00    +0.000 C 
ATOM      2  C   UNL     1       2.394   7.595  18.386  0.00  0.00    +0.000 A 
ATOM      3  C   UNL     1       2.184   8.896  17.901  0.00  0.00    +0.000 A 
ATOM      4  C   UNL     1       1.555   9.855  18.700  0.00  0.00    +0.000 A 
ATOM      5  C   UNL     1       1.152   9.519  19.988  0.00  0.00    +0.000 A 
ATOM      6  C   UNL     1       1.361   8.239  20.490  0.00  0.00    +0.000 A 
ATOM      7  C   UNL     1       1.967   7.277  19.681  0.00  0.00    +0.000 A 
ATOM      8  O   UNL     1       2.107   6.020  20.224  0.00  0.00    +0.000 OA
ATOM      9  C   UNL     1       2.262   4.973  19.343  0.00  0.00    +0.000 A 
ATOM     10  C   UNL     1       1.982   3.696  19.834  0.00  0.00    +0.000 A 
ATOM     11  C   UNL     1       2.100   2.600  18.987  0.00  0.00    +0.000 A 
ATOM     12  C   UNL     1       2.472   2.763  17.657  0.00  0.00    +0.000 A 
ATOM     13  C   UNL     1       2.737   4.041  17.168  0.00  0.00    +0.000 A 
ATOM     14  C   UNL     1       2.671   5.156  18.018  0.00  0.00    +0.000 A 
ENDROOT
BRANCH   5  15
ATOM     15  O   UNL     1       0.530  10.423  20.798  0.00  0.00    +0.000 OA
ATOM     16  H   UNL     1       1.062  10.537  21.605  0.00  0.00    +0.000 HD
ENDBRANCH   5  15
BRANCH  11  17
ATOM     17  O   UNL     1       1.856   1.331  19.421  0.00  0.00    +0.000 OA
ATOM     18  H   UNL     1       2.606   0.771  19.173  0.00  0.00    +0.000 HD
ENDBRANCH  11  17
BRANCH   1  19
ATOM     19  C   UNL     1       4.621   6.742  17.582  0.00  0.00    +0.000 C 
BRANCH  19  20
ATOM     20  C   UNL     1       5.304   6.514  16.229  0.00  0.00    +0.000 C 
BRANCH  20  21
ATOM     21  C   UNL     1       6.576   5.673  16.318  0.00  0.00    +0.000 C 
BRANCH  21  22
ATOM     22  C   UNL     1       6.274   4.241  15.862  0.00  0.00    +0.000 C 
BRANCH  22  24
ATOM     23  C   UNL     1       6.356   3.882  13.379  0.00  0.00    +0.000 C 
ATOM     24  C   UNL     1       5.466   4.205  14.570  0.00  0.00    +0.000 C 
ENDBRANCH  22  24
ENDBRANCH  21  22
ENDBRANCH  20  21
ENDBRANCH  19  20
ENDBRANCH   1  19
TORSDOF 7
ENDMDL
MODEL 6
REMARK VINA RESULT:      -7.6      3.457      5.579
REMARK  Name = 
REMARK  8 active torsions:
REMARK  status: ('A' for Active; 'I' for Inactive)
REMARK    1  A    between atoms: C_1  and  C_2
REMARK    2  A    between atoms: C_2  and  C_3
REMARK    3  A    between atoms: C_3  and  C_4
REMARK    4  A    between atoms: C_4  and  C_5
REMARK    5  A    between atoms: C_5  and  C_6
REMARK    6  A    between atoms: C_6  and  C_7
REMARK    7  A    between atoms: C_11  and  O_12
REMARK    8  A    between atoms: C_18  and  O_19
REMARK                            x       y       z     vdW  Elec       q    Type
REMARK                         _______ _______ _______ _____ _____    ______ ____
ROOT
ATOM      1  C   UNL     1       3.440   6.600  18.360  0.00  0.00    +0.000 C 
ATOM      2  C   UNL     1       4.630   6.116  17.556  0.00  0.00    +0.000 A 
ATOM      3  C   UNL     1       5.797   6.888  17.433  0.00  0.00    +0.000 A 
ATOM      4  C   UNL     1       6.877   6.420  16.680  0.00  0.00    +0.000 A 
ATOM      5  C   UNL     1       6.787   5.190  16.037  0.00  0.00    +0.000 A 
ATOM      6  C   UNL     1       5.636   4.416  16.139  0.00  0.00    +0.000 A 
ATOM      7  C   UNL     1       4.568   4.874  16.911  0.00  0.00    +0.000 A 
ATOM      8  O   UNL     1       3.476   4.042  17.003  0.00  0.00    +0.000 OA
ATOM      9  C   UNL     1       2.635   4.230  18.077  0.00  0.00    +0.000 A 
ATOM     10  C   UNL     1       1.799   3.163  18.412  0.00  0.00    +0.000 A 
ATOM     11  C   UNL     1       0.942   3.285  19.499  0.00  0.00    +0.000 A 
ATOM     12  C   UNL     1       0.923   4.444  20.266  0.00  0.00    +0.000 A 
ATOM     13  C   UNL     1       1.769   5.501  19.937  0.00  0.00    +0.000 A 
ATOM     14  C   UNL     1       2.607   5.419  18.814  0.00  0.00    +0.000 A 
ENDROOT
BRANCH   5  15
ATOM     15  O   UNL     1       7.820   4.695  15.298  0.00  0.00    +0.000 OA
ATOM     16  H   UNL     1       8.634   4.740  15.830  0.00  0.00    +0.000 HD
ENDBRANCH   5  15
BRANCH  11  17
ATOM     17  O   UNL     1       0.094   2.279  19.857  0.00  0.00    +0.000 OA
ATOM     18  H   UNL     1       0.607   1.464  19.954  0.00  0.00    +0.000 HD
ENDBRANCH  11  17
BRANCH   1  19
ATOM     19  C   UNL     1       2.612   7.619  17.525  0.00  0.00    +0.000 C 
BRANCH  19  20
ATOM     20  C   UNL     1       2.473   8.992  18.194  0.00  0.00    +0.000 C 
BRANCH  20  21
ATOM     21  C   UNL     1       1.031   9.483  18.290  0.00  0.00    +0.000 C 
BRANCH  21  22
ATOM     22  C   UNL     1       0.809  10.155  19.650  0.00  0.00    +0.000 C 
BRANCH  22  24
ATOM     23  C   UNL     1       1.242   8.714  21.659  0.00  0.00    +0.000 C 
ATOM     24  C   UNL     1       0.195   9.203  20.670  0.00  0.00    +0.000 C 
ENDBRANCH  22  24
ENDBRANCH  21  22
ENDBRANCH  20  21
ENDBRANCH  19  20
ENDBRANCH   1  19
TORSDOF 7
ENDMDL
MODEL 7
REMARK VINA RESULT:      -7.6      3.819      5.035
REMARK  Name = 
REMARK  8 active torsions:
REMARK  status: ('A' for Active; 'I' for Inactive)
REMARK    1  A    between atoms: C_1  and  C_2
REMARK    2  A    between atoms: C_2  and  C_3
REMARK    3  A    between atoms: C_3  and  C_4
REMARK    4  A    between atoms: C_4  and  C_5
REMARK    5  A    between atoms: C_5  and  C_6
REMARK    6  A    between atoms: C_6  and  C_7
REMARK    7  A    between atoms: C_11  and  O_12
REMARK    8  A    between atoms: C_18  and  O_19
REMARK                            x       y       z     vdW  Elec       q    Type
REMARK                         _______ _______ _______ _____ _____    ______ ____
ROOT
ATOM      1  C   UNL     1       2.741   6.639  17.857  0.00  0.00    +0.000 C 
ATOM      2  C   UNL     1       2.118   7.886  18.454  0.00  0.00    +0.000 A 
ATOM      3  C   UNL     1       1.889   9.036  17.680  0.00  0.00    +0.000 A 
ATOM      4  C   UNL     1       1.318  10.173  18.258  0.00  0.00    +0.000 A 
ATOM      5  C   UNL     1       0.992  10.169  19.610  0.00  0.00    +0.000 A 
ATOM      6  C   UNL     1       1.221   9.044  20.394  0.00  0.00    +0.000 A 
ATOM      7  C   UNL     1       1.768   7.901  19.810  0.00  0.00    +0.000 A 
ATOM      8  O   UNL     1       1.930   6.810  20.632  0.00  0.00    +0.000 OA
ATOM      9  C   UNL     1       2.023   5.577  20.025  0.00  0.00    +0.000 A 
ATOM     10  C   UNL     1       1.762   4.464  20.827  0.00  0.00    +0.000 A 
ATOM     11  C   UNL     1       1.819   3.193  20.266  0.00  0.00    +0.000 A 
ATOM     12  C   UNL     1       2.110   3.021  18.918  0.00  0.00    +0.000 A 
ATOM     13  C   UNL     1       2.355   4.136  18.118  0.00  0.00    +0.000 A 
ATOM     14  C   UNL     1       2.351   5.425  18.674  0.00  0.00    +0.000 A 
ENDROOT
BRANCH   5  15
ATOM     15  O   UNL     1       0.429  11.256  20.210  0.00  0.00    +0.000 OA
ATOM     16  H   UNL     1      -0.195  10.948  20.890  0.00  0.00    +0.000 HD
ENDBRANCH   5  15
BRANCH  11  17
ATOM     17  O   UNL     1       1.591   2.073  21.009  0.00  0.00    +0.000 OA
ATOM     18  H   UNL     1       1.216   2.340  21.861  0.00  0.00    +0.000 HD
ENDBRANCH  11  17
BRANCH   1  19
ATOM     19  C   UNL     1       4.283   6.812  17.755  0.00  0.00    +0.000 C 
BRANCH  19  20
ATOM     20  C   UNL     1       4.860   6.388  16.399  0.00  0.00    +0.000 C 
BRANCH  20  21
ATOM     21  C   UNL     1       5.440   4.976  16.394  0.00  0.00    +0.000 C 
BRANCH  21  22
ATOM     22  C   UNL     1       6.045   4.666  17.769  0.00  0.00    +0.000 C 
BRANCH  22  24
ATOM     23  C   UNL     1       7.811   5.752  19.185  0.00  0.00    +0.000 C 
ATOM     24  C   UNL     1       7.512   5.071  17.858  0.00  0.00    +0.000 C 
ENDBRANCH  22  24
ENDBRANCH  21  22
ENDBRANCH  20  21
ENDBRANCH  19  20
ENDBRANCH   1  19
TORSDOF 7
ENDMDL
MODEL 8
REMARK VINA RESULT:      -7.5      2.127      6.191
REMARK  Name = 
REMARK  8 active torsions:
REMARK  status: ('A' for Active; 'I' for Inactive)
REMARK    1  A    between atoms: C_1  and  C_2
REMARK    2  A    between atoms: C_2  and  C_3
REMARK    3  A    between atoms: C_3  and  C_4
REMARK    4  A    between atoms: C_4  and  C_5
REMARK    5  A    between atoms: C_5  and  C_6
REMARK    6  A    between atoms: C_6  and  C_7
REMARK    7  A    between atoms: C_11  and  O_12
REMARK    8  A    between atoms: C_18  and  O_19
REMARK                            x       y       z     vdW  Elec       q    Type
REMARK                         _______ _______ _______ _____ _____    ______ ____
ROOT
ATOM      1  C   UNL     1       5.010   5.725  18.198  0.00  0.00    +0.000 C 
ATOM      2  C   UNL     1       3.755   5.098  18.773  0.00  0.00    +0.000 A 
ATOM      3  C   UNL     1       2.969   5.768  19.726  0.00  0.00    +0.000 A 
ATOM      4  C   UNL     1       1.820   5.164  20.243  0.00  0.00    +0.000 A 
ATOM      5  C   UNL     1       1.465   3.886  19.823  0.00  0.00    +0.000 A 
ATOM      6  C   UNL     1       2.236   3.204  18.889  0.00  0.00    +0.000 A 
ATOM      7  C   UNL     1       3.369   3.818  18.355  0.00  0.00    +0.000 A 
ATOM      8  O   UNL     1       4.064   3.105  17.405  0.00  0.00    +0.000 OA
ATOM      9  C   UNL     1       4.875   3.821  16.553  0.00  0.00    +0.000 A 
ATOM     10  C   UNL     1       5.235   3.195  15.358  0.00  0.00    +0.000 A 
ATOM     11  C   UNL     1       6.035   3.876  14.448  0.00  0.00    +0.000 A 
ATOM     12  C   UNL     1       6.460   5.175  14.704  0.00  0.00    +0.000 A 
ATOM     13  C   UNL     1       6.086   5.801  15.891  0.00  0.00    +0.000 A 
ATOM     14  C   UNL     1       5.320   5.115  16.846  0.00  0.00    +0.000 A 
ENDROOT
BRANCH   5  15
ATOM     15  O   UNL     1       0.349   3.264  20.299  0.00  0.00    +0.000 OA
ATOM     16  H   UNL     1      -0.212   3.010  19.546  0.00  0.00    +0.000 HD
ENDBRANCH   5  15
BRANCH  11  17
ATOM     17  O   UNL     1       6.430   3.304  13.275  0.00  0.00    +0.000 OA
ATOM     18  H   UNL     1       7.276   3.695  13.012  0.00  0.00    +0.000 HD
ENDBRANCH  11  17
BRANCH   1  19
ATOM     19  C   UNL     1       6.190   5.570  19.201  0.00  0.00    +0.000 C 
BRANCH  19  20
ATOM     20  C   UNL     1       7.570   5.750  18.558  0.00  0.00    +0.000 C 
BRANCH  20  21
ATOM     21  C   UNL     1       8.183   7.127  18.800  0.00  0.00    +0.000 C 
BRANCH  21  22
ATOM     22  C   UNL     1       7.907   8.029  17.591  0.00  0.00    +0.000 C 
BRANCH  22  24
ATOM     23  C   UNL     1       9.163   9.754  18.915  0.00  0.00    +0.000 C 
ATOM     24  C   UNL     1       8.022   9.509  17.939  0.00  0.00    +0.000 C 
ENDBRANCH  22  24
ENDBRANCH  21  22
ENDBRANCH  20  21
ENDBRANCH  19  20
ENDBRANCH   1  19
TORSDOF 7
ENDMDL
MODEL 9
REMARK VINA RESULT:      -7.5      3.751      5.559
REMARK  Name = 
REMARK  8 active torsions:
REMARK  status: ('A' for Active; 'I' for Inactive)
REMARK    1  A    between atoms: C_1  and  C_2
REMARK    2  A    between atoms: C_2  and  C_3
REMARK    3  A    between atoms: C_3  and  C_4
REMARK    4  A    between atoms: C_4  and  C_5
REMARK    5  A    between atoms: C_5  and  C_6
REMARK    6  A    between atoms: C_6  and  C_7
REMARK    7  A    between atoms: C_11  and  O_12
REMARK    8  A    between atoms: C_18  and  O_19
REMARK                            x       y       z     vdW  Elec       q    Type
REMARK                         _______ _______ _______ _____ _____    ______ ____
ROOT
ATOM      1  C   UNL     1       3.529   6.522  18.479  0.00  0.00    +0.000 C 
ATOM      2  C   UNL     1       4.683   6.073  17.604  0.00  0.00    +0.000 A 
ATOM      3  C   UNL     1       5.872   6.815  17.517  0.00  0.00    +0.000 A 
ATOM      4  C   UNL     1       6.917   6.380  16.698  0.00  0.00    +0.000 A 
ATOM      5  C   UNL     1       6.769   5.215  15.953  0.00  0.00    +0.000 A 
ATOM      6  C   UNL     1       5.595   4.473  16.017  0.00  0.00    +0.000 A 
ATOM      7  C   UNL     1       4.562   4.896  16.854  0.00  0.00    +0.000 A 
ATOM      8  O   UNL     1       3.445   4.094  16.903  0.00  0.00    +0.000 OA
ATOM      9  C   UNL     1       2.636   4.213  18.011  0.00  0.00    +0.000 A 
ATOM     10  C   UNL     1       1.772   3.148  18.273  0.00  0.00    +0.000 A 
ATOM     11  C   UNL     1       0.946   3.201  19.390  0.00  0.00    +0.000 A 
ATOM     12  C   UNL     1       0.985   4.288  20.256  0.00  0.00    +0.000 A 
ATOM     13  C   UNL     1       1.859   5.343  19.998  0.00  0.00    +0.000 A 
ATOM     14  C   UNL     1       2.667   5.333  18.850  0.00  0.00    +0.000 A 
ENDROOT
BRANCH   5  15
ATOM     15  O   UNL     1       7.767   4.755  15.146  0.00  0.00    +0.000 OA
ATOM     16  H   UNL     1       8.513   5.377  15.186  0.00  0.00    +0.000 HD
ENDBRANCH   5  15
BRANCH  11  17
ATOM     17  O   UNL     1       0.072   2.196  19.681  0.00  0.00    +0.000 OA
ATOM     18  H   UNL     1      -0.086   2.193  20.636  0.00  0.00    +0.000 HD
ENDBRANCH  11  17
BRANCH   1  19
ATOM     19  C   UNL     1       2.717   7.637  17.758  0.00  0.00    +0.000 C 
BRANCH  19  20
ATOM     20  C   UNL     1       1.985   8.582  18.718  0.00  0.00    +0.000 C 
BRANCH  20  21
ATOM     21  C   UNL     1       1.271   9.735  18.018  0.00  0.00    +0.000 C 
BRANCH  21  22
ATOM     22  C   UNL     1      -0.032  10.056  18.760  0.00  0.00    +0.000 C 
BRANCH  22  24
ATOM     23  C   UNL     1      -2.303  11.056  18.379  0.00  0.00    +0.000 C 
ATOM     24  C   UNL     1      -1.227  10.139  17.817  0.00  0.00    +0.000 C 
ENDBRANCH  22  24
ENDBRANCH  21  22
ENDBRANCH  20  21
ENDBRANCH  19  20
ENDBRANCH   1  19
TORSDOF 7
ENDMDL
