MODEL 1
REMARK VINA RESULT:      -8.3      0.000      0.000
REMARK  Name = 
REMARK  2 active torsions:
REMARK  status: ('A' for Active; 'I' for Inactive)
REMARK    1  A    between atoms: C_15  and  C_16
REMARK    2  A    between atoms: C_16  and  C_17
REMARK                            x       y       z     vdW  Elec       q    Type
REMARK                         _______ _______ _______ _____ _____    ______ ____
ROOT
ATOM      1  O   UNL     1       2.877   7.703  16.896  0.00  0.00    +0.000 OA
ATOM      2  C   UNL     1       2.382   8.267  17.866  0.00  0.00    +0.000 A 
ATOM      3  O   UNL     1       1.759   9.502  17.743  0.00  0.00    +0.000 OA
ATOM      4  C   UNL     1       1.026  10.079  18.798  0.00  0.00    +0.000 A 
ATOM      5  C   UNL     1       0.363  11.266  18.516  0.00  0.00    +0.000 A 
ATOM      6  C   UNL     1      -0.421  11.855  19.501  0.00  0.00    +0.000 A 
ATOM      7  C   UNL     1      -0.556  11.259  20.765  0.00  0.00    +0.000 A 
ATOM      8  C   UNL     1      -1.377  11.860  21.733  0.00  0.00    +0.000 A 
ATOM      9  C   UNL     1      -1.543  11.288  22.993  0.00  0.00    +0.000 A 
ATOM     10  C   UNL     1      -0.885  10.106  23.303  0.00  0.00    +0.000 A 
ATOM     11  C   UNL     1      -0.061   9.497  22.353  0.00  0.00    +0.000 A 
ATOM     12  C   UNL     1       0.132  10.049  21.062  0.00  0.00    +0.000 A 
ATOM     13  C   UNL     1       0.945   9.463  20.049  0.00  0.00    +0.000 A 
ATOM     14  C   UNL     1       1.723   8.235  20.229  0.00  0.00    +0.000 A 
ATOM     15  C   UNL     1       2.411   7.673  19.222  0.00  0.00    +0.000 A 
ENDROOT
BRANCH  15  16
ATOM     16  C   UNL     1       3.144   6.369  19.382  0.00  0.00    +0.000 C 
BRANCH  16  17
ATOM     17  C   UNL     1       2.260   5.141  19.383  0.00  0.00    +0.000 A 
ATOM     18  C   UNL     1       1.948   4.482  18.183  0.00  0.00    +0.000 A 
ATOM     19  C   UNL     1       1.199   3.303  18.191  0.00  0.00    +0.000 A 
ATOM     20  C   UNL     1       0.751   2.772  19.399  0.00  0.00    +0.000 A 
ATOM     21  C   UNL     1       1.028   3.433  20.593  0.00  0.00    +0.000 A 
ATOM     22  C   UNL     1       1.772   4.615  20.587  0.00  0.00    +0.000 A 
ENDBRANCH  16  17
ENDBRANCH  15  16
TORSDOF 2
ENDMDL
MODEL 2
REMARK VINA RESULT:      -8.2      0.229      1.051
REMARK  Name = 
REMARK  2 active torsions:
REMARK  status: ('A' for Active; 'I' for Inactive)
REMARK    1  A    between atoms: C_15  and  C_16
REMARK    2  A    between atoms: C_16  and  C_17
REMARK                            x       y       z     vdW  Elec       q    Type
REMARK                         _______ _______ _______ _____ _____    ______ ____
ROOT
ATOM      1  O   UNL     1       2.988   7.693  16.757  0.00  0.00    +0.000 OA
ATOM      2  C   UNL     1       2.504   8.216  17.754  0.00  0.00    +0.000 A 
ATOM      3  O   UNL     1       1.864   9.446  17.686  0.00  0.00    +0.000 OA
ATOM      4  C   UNL     1       1.144   9.977  18.773  0.00  0.00    +0.000 A 
ATOM      5  C   UNL     1       0.461  11.165  18.545  0.00  0.00    +0.000 A 
ATOM      6  C   UNL     1      -0.312  11.709  19.565  0.00  0.00    +0.000 A 
ATOM      7  C   UNL     1      -0.417  11.067  20.809  0.00  0.00    +0.000 A 
ATOM      8  C   UNL     1      -1.228  11.623  21.812  0.00  0.00    +0.000 A 
ATOM      9  C   UNL     1      -1.365  11.005  23.053  0.00  0.00    +0.000 A 
ATOM     10  C   UNL     1      -0.688   9.821  23.309  0.00  0.00    +0.000 A 
ATOM     11  C   UNL     1       0.126   9.256  22.324  0.00  0.00    +0.000 A 
ATOM     12  C   UNL     1       0.290   9.856  21.050  0.00  0.00    +0.000 A 
ATOM     13  C   UNL     1       1.092   9.316  20.003  0.00  0.00    +0.000 A 
ATOM     14  C   UNL     1       1.887   8.092  20.126  0.00  0.00    +0.000 A 
ATOM     15  C   UNL     1       2.563   7.575  19.088  0.00  0.00    +0.000 A 
ENDROOT
BRANCH  15  16
ATOM     16  C   UNL     1       3.314   6.275  19.188  0.00  0.00    +0.000 C 
BRANCH  16  17
ATOM     17  C   UNL     1       2.441   5.046  19.321  0.00  0.00    +0.000 A 
ATOM     18  C   UNL     1       2.040   4.585  20.585  0.00  0.00    +0.000 A 
ATOM     19  C   UNL     1       1.169   3.499  20.704  0.00  0.00    +0.000 A 
ATOM     20  C   UNL     1       0.693   2.860  19.561  0.00  0.00    +0.000 A 
ATOM     21  C   UNL     1       1.108   3.289  18.303  0.00  0.00    +0.000 A 
ATOM     22  C   UNL     1       1.983   4.371  18.181  0.00  0.00    +0.000 A 
ENDBRANCH  16  17
ENDBRANCH  15  16
TORSDOF 2
ENDMDL
MODEL 3
REMARK VINA RESULT:      -8.2      4.244      6.938
REMARK  Name = 
REMARK  2 active torsions:
REMARK  status: ('A' for Active; 'I' for Inactive)
REMARK    1  A    between atoms: C_15  and  C_16
REMARK    2  A    between atoms: C_16  and  C_17
REMARK                            x       y       z     vdW  Elec       q    Type
REMARK                         _______ _______ _______ _____ _____    ______ ____
ROOT
ATOM      1  O   UNL     1       5.438   7.157  15.294  0.00  0.00    +0.000 OA
ATOM      2  C   UNL     1       5.135   6.546  16.312  0.00  0.00    +0.000 A 
ATOM      3  O   UNL     1       4.088   6.966  17.122  0.00  0.00    +0.000 OA
ATOM      4  C   UNL     1       3.605   6.182  18.188  0.00  0.00    +0.000 A 
ATOM      5  C   UNL     1       2.487   6.664  18.856  0.00  0.00    +0.000 A 
ATOM      6  C   UNL     1       1.932   5.907  19.881  0.00  0.00    +0.000 A 
ATOM      7  C   UNL     1       2.480   4.665  20.237  0.00  0.00    +0.000 A 
ATOM      8  C   UNL     1       1.883   3.908  21.258  0.00  0.00    +0.000 A 
ATOM      9  C   UNL     1       2.393   2.665  21.626  0.00  0.00    +0.000 A 
ATOM     10  C   UNL     1       3.513   2.163  20.979  0.00  0.00    +0.000 A 
ATOM     11  C   UNL     1       4.123   2.905  19.965  0.00  0.00    +0.000 A 
ATOM     12  C   UNL     1       3.632   4.173  19.563  0.00  0.00    +0.000 A 
ATOM     13  C   UNL     1       4.203   4.964  18.524  0.00  0.00    +0.000 A 
ATOM     14  C   UNL     1       5.399   4.588  17.767  0.00  0.00    +0.000 A 
ATOM     15  C   UNL     1       5.854   5.324  16.741  0.00  0.00    +0.000 A 
ENDROOT
BRANCH  15  16
ATOM     16  C   UNL     1       7.033   4.898  15.910  0.00  0.00    +0.000 C 
BRANCH  16  17
ATOM     17  C   UNL     1       6.701   4.518  14.484  0.00  0.00    +0.000 A 
ATOM     18  C   UNL     1       7.542   4.900  13.426  0.00  0.00    +0.000 A 
ATOM     19  C   UNL     1       7.279   4.481  12.120  0.00  0.00    +0.000 A 
ATOM     20  C   UNL     1       6.169   3.681  11.856  0.00  0.00    +0.000 A 
ATOM     21  C   UNL     1       5.310   3.322  12.892  0.00  0.00    +0.000 A 
ATOM     22  C   UNL     1       5.568   3.744  14.198  0.00  0.00    +0.000 A 
ENDBRANCH  16  17
ENDBRANCH  15  16
TORSDOF 2
ENDMDL
MODEL 4
REMARK VINA RESULT:      -8.1      4.285      7.178
REMARK  Name = 
REMARK  2 active torsions:
REMARK  status: ('A' for Active; 'I' for Inactive)
REMARK    1  A    between atoms: C_15  and  C_16
REMARK    2  A    between atoms: C_16  and  C_17
REMARK                            x       y       z     vdW  Elec       q    Type
REMARK                         _______ _______ _______ _____ _____    ______ ____
ROOT
ATOM      1  O   UNL     1       6.672   7.417  16.523  0.00  0.00    +0.000 OA
ATOM      2  C   UNL     1       5.930   6.603  17.062  0.00  0.00    +0.000 A 
ATOM      3  O   UNL     1       4.894   7.009  17.892  0.00  0.00    +0.000 OA
ATOM      4  C   UNL     1       3.921   6.110  18.370  0.00  0.00    +0.000 A 
ATOM      5  C   UNL     1       2.878   6.659  19.105  0.00  0.00    +0.000 A 
ATOM      6  C   UNL     1       1.858   5.829  19.558  0.00  0.00    +0.000 A 
ATOM      7  C   UNL     1       1.869   4.454  19.271  0.00  0.00    +0.000 A 
ATOM      8  C   UNL     1       0.812   3.643  19.716  0.00  0.00    +0.000 A 
ATOM      9  C   UNL     1       0.785   2.278  19.438  0.00  0.00    +0.000 A 
ATOM     10  C   UNL     1       1.819   1.705  18.711  0.00  0.00    +0.000 A 
ATOM     11  C   UNL     1       2.880   2.496  18.265  0.00  0.00    +0.000 A 
ATOM     12  C   UNL     1       2.942   3.887  18.529  0.00  0.00    +0.000 A 
ATOM     13  C   UNL     1       3.990   4.745  18.084  0.00  0.00    +0.000 A 
ATOM     14  C   UNL     1       5.161   4.289  17.333  0.00  0.00    +0.000 A 
ATOM     15  C   UNL     1       6.083   5.144  16.862  0.00  0.00    +0.000 A 
ENDROOT
BRANCH  15  16
ATOM     16  C   UNL     1       7.244   4.687  16.021  0.00  0.00    +0.000 C 
BRANCH  16  17
ATOM     17  C   UNL     1       6.927   4.490  14.555  0.00  0.00    +0.000 A 
ATOM     18  C   UNL     1       7.705   5.108  13.564  0.00  0.00    +0.000 A 
ATOM     19  C   UNL     1       7.463   4.862  12.210  0.00  0.00    +0.000 A 
ATOM     20  C   UNL     1       6.436   4.000  11.833  0.00  0.00    +0.000 A 
ATOM     21  C   UNL     1       5.636   3.405  12.806  0.00  0.00    +0.000 A 
ATOM     22  C   UNL     1       5.874   3.653  14.160  0.00  0.00    +0.000 A 
ENDBRANCH  16  17
ENDBRANCH  15  16
TORSDOF 2
ENDMDL
MODEL 5
REMARK VINA RESULT:      -8.0      4.248      6.979
REMARK  Name = 
REMARK  2 active torsions:
REMARK  status: ('A' for Active; 'I' for Inactive)
REMARK    1  A    between atoms: C_15  and  C_16
REMARK    2  A    between atoms: C_16  and  C_17
REMARK                            x       y       z     vdW  Elec       q    Type
REMARK                         _______ _______ _______ _____ _____    ______ ____
ROOT
ATOM      1  O   UNL     1       5.386   7.132  15.219  0.00  0.00    +0.000 OA
ATOM      2  C   UNL     1       5.094   6.529  16.245  0.00  0.00    +0.000 A 
ATOM      3  O   UNL     1       4.024   6.924  17.036  0.00  0.00    +0.000 OA
ATOM      4  C   UNL     1       3.558   6.142  18.111  0.00  0.00    +0.000 A 
ATOM      5  C   UNL     1       2.415   6.595  18.758  0.00  0.00    +0.000 A 
ATOM      6  C   UNL     1       1.877   5.838  19.792  0.00  0.00    +0.000 A 
ATOM      7  C   UNL     1       2.467   4.623  20.177  0.00  0.00    +0.000 A 
ATOM      8  C   UNL     1       1.886   3.863  21.205  0.00  0.00    +0.000 A 
ATOM      9  C   UNL     1       2.438   2.647  21.603  0.00  0.00    +0.000 A 
ATOM     10  C   UNL     1       3.584   2.176  20.977  0.00  0.00    +0.000 A 
ATOM     11  C   UNL     1       4.177   2.921  19.955  0.00  0.00    +0.000 A 
ATOM     12  C   UNL     1       3.644   4.162  19.524  0.00  0.00    +0.000 A 
ATOM     13  C   UNL     1       4.197   4.955  18.477  0.00  0.00    +0.000 A 
ATOM     14  C   UNL     1       5.414   4.609  17.740  0.00  0.00    +0.000 A 
ATOM     15  C   UNL     1       5.853   5.343  16.705  0.00  0.00    +0.000 A 
ENDROOT
BRANCH  15  16
ATOM     16  C   UNL     1       7.057   4.946  15.895  0.00  0.00    +0.000 C 
BRANCH  16  17
ATOM     17  C   UNL     1       6.750   4.476  14.490  0.00  0.00    +0.000 A 
ATOM     18  C   UNL     1       5.609   3.701  14.226  0.00  0.00    +0.000 A 
ATOM     19  C   UNL     1       5.282   3.336  12.919  0.00  0.00    +0.000 A 
ATOM     20  C   UNL     1       6.095   3.736  11.860  0.00  0.00    +0.000 A 
ATOM     21  C   UNL     1       7.246   4.479  12.112  0.00  0.00    +0.000 A 
ATOM     22  C   UNL     1       7.578   4.841  13.419  0.00  0.00    +0.000 A 
ENDBRANCH  16  17
ENDBRANCH  15  16
TORSDOF 2
ENDMDL
MODEL 6
REMARK VINA RESULT:      -7.9      4.303      7.254
REMARK  Name = 
REMARK  2 active torsions:
REMARK  status: ('A' for Active; 'I' for Inactive)
REMARK    1  A    between atoms: C_15  and  C_16
REMARK    2  A    between atoms: C_16  and  C_17
REMARK                            x       y       z     vdW  Elec       q    Type
REMARK                         _______ _______ _______ _____ _____    ______ ____
ROOT
ATOM      1  O   UNL     1       6.753   7.548  16.644  0.00  0.00    +0.000 OA
ATOM      2  C   UNL     1       6.003   6.702  17.118  0.00  0.00    +0.000 A 
ATOM      3  O   UNL     1       4.941   7.057  17.939  0.00  0.00    +0.000 OA
ATOM      4  C   UNL     1       3.963   6.127  18.341  0.00  0.00    +0.000 A 
ATOM      5  C   UNL     1       2.894   6.629  19.074  0.00  0.00    +0.000 A 
ATOM      6  C   UNL     1       1.869   5.769  19.452  0.00  0.00    +0.000 A 
ATOM      7  C   UNL     1       1.899   4.412  19.094  0.00  0.00    +0.000 A 
ATOM      8  C   UNL     1       0.837   3.571  19.466  0.00  0.00    +0.000 A 
ATOM      9  C   UNL     1       0.829   2.223  19.116  0.00  0.00    +0.000 A 
ATOM     10  C   UNL     1       1.888   1.695  18.391  0.00  0.00    +0.000 A 
ATOM     11  C   UNL     1       2.955   2.516  18.017  0.00  0.00    +0.000 A 
ATOM     12  C   UNL     1       2.998   3.892  18.355  0.00  0.00    +0.000 A 
ATOM     13  C   UNL     1       4.050   4.779  17.985  0.00  0.00    +0.000 A 
ATOM     14  C   UNL     1       5.247   4.371  17.246  0.00  0.00    +0.000 A 
ATOM     15  C   UNL     1       6.174   5.256  16.847  0.00  0.00    +0.000 A 
ENDROOT
BRANCH  15  16
ATOM     16  C   UNL     1       7.362   4.852  16.017  0.00  0.00    +0.000 C 
BRANCH  16  17
ATOM     17  C   UNL     1       7.048   4.537  14.571  0.00  0.00    +0.000 A 
ATOM     18  C   UNL     1       5.988   3.679  14.238  0.00  0.00    +0.000 A 
ATOM     19  C   UNL     1       5.647   3.451  12.903  0.00  0.00    +0.000 A 
ATOM     20  C   UNL     1       6.367   4.074  11.885  0.00  0.00    +0.000 A 
ATOM     21  C   UNL     1       7.441   4.902  12.201  0.00  0.00    +0.000 A 
ATOM     22  C   UNL     1       7.786   5.127  13.536  0.00  0.00    +0.000 A 
ENDBRANCH  16  17
ENDBRANCH  15  16
TORSDOF 2
ENDMDL
MODEL 7
REMARK VINA RESULT:      -7.8      5.926      8.503
REMARK  Name = 
REMARK  2 active torsions:
REMARK  status: ('A' for Active; 'I' for Inactive)
REMARK    1  A    between atoms: C_15  and  C_16
REMARK    2  A    between atoms: C_16  and  C_17
REMARK                            x       y       z     vdW  Elec       q    Type
REMARK                         _______ _______ _______ _____ _____    ______ ____
ROOT
ATOM      1  O   UNL     1       8.114   5.615  14.116  0.00  0.00    +0.000 OA
ATOM      2  C   UNL     1       7.237   5.152  14.838  0.00  0.00    +0.000 A 
ATOM      3  O   UNL     1       7.416   5.041  16.210  0.00  0.00    +0.000 OA
ATOM      4  C   UNL     1       6.362   4.689  17.076  0.00  0.00    +0.000 A 
ATOM      5  C   UNL     1       6.642   4.715  18.437  0.00  0.00    +0.000 A 
ATOM      6  C   UNL     1       5.627   4.430  19.342  0.00  0.00    +0.000 A 
ATOM      7  C   UNL     1       4.330   4.128  18.898  0.00  0.00    +0.000 A 
ATOM      8  C   UNL     1       3.316   3.871  19.836  0.00  0.00    +0.000 A 
ATOM      9  C   UNL     1       2.015   3.582  19.430  0.00  0.00    +0.000 A 
ATOM     10  C   UNL     1       1.711   3.542  18.076  0.00  0.00    +0.000 A 
ATOM     11  C   UNL     1       2.708   3.790  17.130  0.00  0.00    +0.000 A 
ATOM     12  C   UNL     1       4.042   4.088  17.505  0.00  0.00    +0.000 A 
ATOM     13  C   UNL     1       5.094   4.367  16.585  0.00  0.00    +0.000 A 
ATOM     14  C   UNL     1       4.941   4.338  15.129  0.00  0.00    +0.000 A 
ATOM     15  C   UNL     1       5.938   4.688  14.301  0.00  0.00    +0.000 A 
ENDROOT
BRANCH  15  16
ATOM     16  C   UNL     1       5.758   4.738  12.808  0.00  0.00    +0.000 C 
BRANCH  16  17
ATOM     17  C   UNL     1       6.089   3.450  12.085  0.00  0.00    +0.000 A 
ATOM     18  C   UNL     1       7.414   3.142  11.740  0.00  0.00    +0.000 A 
ATOM     19  C   UNL     1       7.730   1.918  11.145  0.00  0.00    +0.000 A 
ATOM     20  C   UNL     1       6.723   0.992  10.884  0.00  0.00    +0.000 A 
ATOM     21  C   UNL     1       5.400   1.298  11.192  0.00  0.00    +0.000 A 
ATOM     22  C   UNL     1       5.082   2.524  11.783  0.00  0.00    +0.000 A 
ENDBRANCH  16  17
ENDBRANCH  15  16
TORSDOF 2
ENDMDL
MODEL 8
REMARK VINA RESULT:      -7.8      5.710      8.385
REMARK  Name = 
REMARK  2 active torsions:
REMARK  status: ('A' for Active; 'I' for Inactive)
REMARK    1  A    between atoms: C_15  and  C_16
REMARK    2  A    between atoms: C_16  and  C_17
REMARK                            x       y       z     vdW  Elec       q    Type
REMARK                         _______ _______ _______ _____ _____    ______ ____
ROOT
ATOM      1  O   UNL     1       8.132   5.606  14.210  0.00  0.00    +0.000 OA
ATOM      2  C   UNL     1       7.234   5.183  14.929  0.00  0.00    +0.000 A 
ATOM      3  O   UNL     1       7.388   5.106  16.307  0.00  0.00    +0.000 OA
ATOM      4  C   UNL     1       6.313   4.801  17.164  0.00  0.00    +0.000 A 
ATOM      5  C   UNL     1       6.571   4.859  18.528  0.00  0.00    +0.000 A 
ATOM      6  C   UNL     1       5.535   4.621  19.424  0.00  0.00    +0.000 A 
ATOM      7  C   UNL     1       4.238   4.337  18.966  0.00  0.00    +0.000 A 
ATOM      8  C   UNL     1       3.204   4.129  19.893  0.00  0.00    +0.000 A 
ATOM      9  C   UNL     1       1.904   3.859  19.474  0.00  0.00    +0.000 A 
ATOM     10  C   UNL     1       1.620   3.789  18.117  0.00  0.00    +0.000 A 
ATOM     11  C   UNL     1       2.638   3.988  17.181  0.00  0.00    +0.000 A 
ATOM     12  C   UNL     1       3.973   4.266  17.570  0.00  0.00    +0.000 A 
ATOM     13  C   UNL     1       5.046   4.495  16.661  0.00  0.00    +0.000 A 
ATOM     14  C   UNL     1       4.915   4.430  15.204  0.00  0.00    +0.000 A 
ATOM     15  C   UNL     1       5.933   4.734  14.383  0.00  0.00    +0.000 A 
ENDROOT
BRANCH  15  16
ATOM     16  C   UNL     1       5.778   4.747  12.886  0.00  0.00    +0.000 C 
BRANCH  16  17
ATOM     17  C   UNL     1       6.106   3.438  12.202  0.00  0.00    +0.000 A 
ATOM     18  C   UNL     1       5.090   2.520  11.889  0.00  0.00    +0.000 A 
ATOM     19  C   UNL     1       5.381   1.348  11.186  0.00  0.00    +0.000 A 
ATOM     20  C   UNL     1       6.691   1.078  10.795  0.00  0.00    +0.000 A 
ATOM     21  C   UNL     1       7.711   1.965  11.127  0.00  0.00    +0.000 A 
ATOM     22  C   UNL     1       7.424   3.136  11.834  0.00  0.00    +0.000 A 
ENDBRANCH  16  17
ENDBRANCH  15  16
TORSDOF 2
ENDMDL
MODEL 9
REMARK VINA RESULT:      -7.7      3.107      5.048
REMARK  Name = 
REMARK  2 active torsions:
REMARK  status: ('A' for Active; 'I' for Inactive)
REMARK    1  A    between atoms: C_15  and  C_16
REMARK    2  A    between atoms: C_16  and  C_17
REMARK                            x       y       z     vdW  Elec       q    Type
REMARK                         _______ _______ _______ _____ _____    ______ ____
ROOT
ATOM      1  O   UNL     1       3.180   2.833  19.879  0.00  0.00    +0.000 OA
ATOM      2  C   UNL     1       2.785   3.961  19.606  0.00  0.00    +0.000 A 
ATOM      3  O   UNL     1       2.138   4.748  20.550  0.00  0.00    +0.000 OA
ATOM      4  C   UNL     1       1.843   6.105  20.318  0.00  0.00    +0.000 A 
ATOM      5  C   UNL     1       1.289   6.810  21.379  0.00  0.00    +0.000 A 
ATOM      6  C   UNL     1       1.027   8.167  21.228  0.00  0.00    +0.000 A 
ATOM      7  C   UNL     1       1.325   8.828  20.025  0.00  0.00    +0.000 A 
ATOM      8  C   UNL     1       1.076  10.205  19.909  0.00  0.00    +0.000 A 
ATOM      9  C   UNL     1       1.373  10.894  18.735  0.00  0.00    +0.000 A 
ATOM     10  C   UNL     1       1.920  10.212  17.657  0.00  0.00    +0.000 A 
ATOM     11  C   UNL     1       2.169   8.841  17.754  0.00  0.00    +0.000 A 
ATOM     12  C   UNL     1       1.882   8.106  18.932  0.00  0.00    +0.000 A 
ATOM     13  C   UNL     1       2.131   6.712  19.093  0.00  0.00    +0.000 A 
ATOM     14  C   UNL     1       2.678   5.850  18.044  0.00  0.00    +0.000 A 
ATOM     15  C   UNL     1       2.974   4.559  18.265  0.00  0.00    +0.000 A 
ENDROOT
BRANCH  15  16
ATOM     16  C   UNL     1       3.612   3.692  17.214  0.00  0.00    +0.000 C 
BRANCH  16  17
ATOM     17  C   UNL     1       4.955   4.180  16.717  0.00  0.00    +0.000 A 
ATOM     18  C   UNL     1       6.010   4.409  17.614  0.00  0.00    +0.000 A 
ATOM     19  C   UNL     1       7.273   4.782  17.148  0.00  0.00    +0.000 A 
ATOM     20  C   UNL     1       7.493   4.935  15.781  0.00  0.00    +0.000 A 
ATOM     21  C   UNL     1       6.446   4.741  14.883  0.00  0.00    +0.000 A 
ATOM     22  C   UNL     1       5.181   4.373  15.347  0.00  0.00    +0.000 A 
ENDBRANCH  16  17
ENDBRANCH  15  16
TORSDOF 2
ENDMDL
