MODEL 1
REMARK VINA RESULT:      -6.4      0.000      0.000
REMARK  Name = 
REMARK  4 active torsions:
REMARK  status: ('A' for Active; 'I' for Inactive)
REMARK    1  A    between atoms: C_1  and  C_2
REMARK    2  A    between atoms: C_2  and  C_3
REMARK    3  A    between atoms: C_2  and  C_9
REMARK    4  A    between atoms: C_3  and  N_4
REMARK                            x       y       z     vdW  Elec       q    Type
REMARK                         _______ _______ _______ _____ _____    ______ ____
ROOT
ATOM      1  C   UNL     1       3.609   5.863  19.252  0.00  0.00    +0.000 C 
ATOM      2  O   UNL     1       3.722   5.130  20.236  0.00  0.00    +0.000 OA
ATOM      3  N   UNL     1       2.523   6.711  19.120  0.00  0.00    +0.000 N 
ATOM      4  C   UNL     1       1.663   6.971  20.283  0.00  0.00    +0.000 C 
ATOM      5  C   UNL     1       1.577   8.483  20.609  0.00  0.00    +0.000 C 
ATOM      6  N   UNL     1       1.287   9.280  19.407  0.00  0.00    +0.000 N 
ATOM      7  C   UNL     1       0.175  10.093  19.323  0.00  0.00    +0.000 A 
ATOM      8  C   UNL     1      -0.326  10.796  20.428  0.00  0.00    +0.000 A 
ATOM      9  N   UNL     1      -1.421  11.605  20.409  0.00  0.00    +0.000 NA
ATOM     10  C   UNL     1      -2.022  11.705  19.211  0.00  0.00    +0.000 A 
ATOM     11  C   UNL     1      -1.546  11.038  18.100  0.00  0.00    +0.000 A 
ATOM     12  N   UNL     1      -0.448  10.237  18.131  0.00  0.00    +0.000 NA
ATOM     13  C   UNL     1       2.080   8.976  18.205  0.00  0.00    +0.000 C 
ATOM     14  C   UNL     1       2.115   7.463  17.924  0.00  0.00    +0.000 C 
ENDROOT
BRANCH   1  16
ATOM     15  C   UNL     1       6.030   5.471  18.838  0.00  0.00    +0.000 C 
ATOM     16  C   UNL     1       4.699   5.860  18.174  0.00  0.00    +0.000 C 
BRANCH  16  17
ATOM     17  C   UNL     1       4.345   4.889  17.045  0.00  0.00    +0.000 C 
BRANCH  17  18
ATOM     18  N   UNL     1       3.619   3.709  17.497  0.00  0.00    +0.000 N 
ATOM     19  C   UNL     1       2.269   3.497  17.448  0.00  0.00    +0.000 A 
ATOM     20  C   UNL     1       2.062   2.222  17.917  0.00  0.00    +0.000 A 
ATOM     21  C   UNL     1       3.348   1.747  18.237  0.00  0.00    +0.000 A 
ATOM     22  N   UNL     1       4.299   2.652  17.985  0.00  0.00    +0.000 NA
ENDBRANCH  17  18
ENDBRANCH  16  17
ENDBRANCH   1  16
TORSDOF 3
ENDMDL
MODEL 2
REMARK VINA RESULT:      -6.4      2.864      3.923
REMARK  Name = 
REMARK  4 active torsions:
REMARK  status: ('A' for Active; 'I' for Inactive)
REMARK    1  A    between atoms: C_1  and  C_2
REMARK    2  A    between atoms: C_2  and  C_3
REMARK    3  A    between atoms: C_2  and  C_9
REMARK    4  A    between atoms: C_3  and  N_4
REMARK                            x       y       z     vdW  Elec       q    Type
REMARK                         _______ _______ _______ _____ _____    ______ ____
ROOT
ATOM      1  C   UNL     1       4.390   4.231  17.122  0.00  0.00    +0.000 C 
ATOM      2  O   UNL     1       4.175   3.040  17.348  0.00  0.00    +0.000 OA
ATOM      3  N   UNL     1       3.500   5.205  17.541  0.00  0.00    +0.000 N 
ATOM      4  C   UNL     1       2.458   4.860  18.518  0.00  0.00    +0.000 C 
ATOM      5  C   UNL     1       2.533   5.754  19.781  0.00  0.00    +0.000 C 
ATOM      6  N   UNL     1       2.635   7.178  19.429  0.00  0.00    +0.000 N 
ATOM      7  C   UNL     1       1.704   8.103  19.857  0.00  0.00    +0.000 A 
ATOM      8  C   UNL     1       1.087   8.020  21.115  0.00  0.00    +0.000 A 
ATOM      9  N   UNL     1       0.158   8.895  21.589  0.00  0.00    +0.000 NA
ATOM     10  C   UNL     1      -0.147   9.898  20.748  0.00  0.00    +0.000 A 
ATOM     11  C   UNL     1       0.452  10.017  19.510  0.00  0.00    +0.000 A 
ATOM     12  N   UNL     1       1.383   9.139  19.050  0.00  0.00    +0.000 NA
ATOM     13  C   UNL     1       3.614   7.535  18.390  0.00  0.00    +0.000 C 
ATOM     14  C   UNL     1       3.480   6.624  17.157  0.00  0.00    +0.000 C 
ENDROOT
BRANCH   1  16
ATOM     15  C   UNL     1       6.761   4.907  17.452  0.00  0.00    +0.000 C 
ATOM     16  C   UNL     1       5.675   4.646  16.395  0.00  0.00    +0.000 C 
BRANCH  16  17
ATOM     17  C   UNL     1       6.116   3.561  15.409  0.00  0.00    +0.000 C 
BRANCH  17  18
ATOM     18  N   UNL     1       6.684   4.091  14.176  0.00  0.00    +0.000 N 
ATOM     19  C   UNL     1       6.413   3.686  12.899  0.00  0.00    +0.000 A 
ATOM     20  C   UNL     1       7.126   4.521  12.071  0.00  0.00    +0.000 A 
ATOM     21  C   UNL     1       7.808   5.389  12.945  0.00  0.00    +0.000 A 
ATOM     22  N   UNL     1       7.544   5.128  14.228  0.00  0.00    +0.000 NA
ENDBRANCH  17  18
ENDBRANCH  16  17
ENDBRANCH   1  16
TORSDOF 3
ENDMDL
MODEL 3
REMARK VINA RESULT:      -6.4      1.459      2.264
REMARK  Name = 
REMARK  4 active torsions:
REMARK  status: ('A' for Active; 'I' for Inactive)
REMARK    1  A    between atoms: C_1  and  C_2
REMARK    2  A    between atoms: C_2  and  C_3
REMARK    3  A    between atoms: C_2  and  C_9
REMARK    4  A    between atoms: C_3  and  N_4
REMARK                            x       y       z     vdW  Elec       q    Type
REMARK                         _______ _______ _______ _____ _____    ______ ____
ROOT
ATOM      1  C   UNL     1       3.370   5.699  19.445  0.00  0.00    +0.000 C 
ATOM      2  O   UNL     1       3.390   4.907  20.388  0.00  0.00    +0.000 OA
ATOM      3  N   UNL     1       2.346   6.620  19.315  0.00  0.00    +0.000 N 
ATOM      4  C   UNL     1       1.448   6.870  20.451  0.00  0.00    +0.000 C 
ATOM      5  C   UNL     1       1.439   8.364  20.861  0.00  0.00    +0.000 C 
ATOM      6  N   UNL     1       1.257   9.243  19.697  0.00  0.00    +0.000 N 
ATOM      7  C   UNL     1       0.203  10.129  19.611  0.00  0.00    +0.000 A 
ATOM      8  C   UNL     1      -0.308  10.801  20.733  0.00  0.00    +0.000 A 
ATOM      9  N   UNL     1      -1.348  11.678  20.712  0.00  0.00    +0.000 NA
ATOM     10  C   UNL     1      -1.884  11.883  19.496  0.00  0.00    +0.000 A 
ATOM     11  C   UNL     1      -1.397  11.250  18.370  0.00  0.00    +0.000 A 
ATOM     12  N   UNL     1      -0.353  10.379  18.403  0.00  0.00    +0.000 NA
ATOM     13  C   UNL     1       2.087   8.957  18.516  0.00  0.00    +0.000 C 
ATOM     14  C   UNL     1       2.043   7.463  18.148  0.00  0.00    +0.000 C 
ENDROOT
BRANCH   1  16
ATOM     15  C   UNL     1       5.774   5.154  19.111  0.00  0.00    +0.000 C 
ATOM     16  C   UNL     1       4.508   5.686  18.418  0.00  0.00    +0.000 C 
BRANCH  16  17
ATOM     17  C   UNL     1       4.140   4.822  17.209  0.00  0.00    +0.000 C 
BRANCH  17  18
ATOM     18  N   UNL     1       5.177   4.781  16.186  0.00  0.00    +0.000 N 
ATOM     19  C   UNL     1       5.854   3.681  15.737  0.00  0.00    +0.000 A 
ATOM     20  C   UNL     1       6.674   4.120  14.725  0.00  0.00    +0.000 A 
ATOM     21  C   UNL     1       6.430   5.505  14.645  0.00  0.00    +0.000 A 
ATOM     22  N   UNL     1       5.520   5.911  15.536  0.00  0.00    +0.000 NA
ENDBRANCH  17  18
ENDBRANCH  16  17
ENDBRANCH   1  16
TORSDOF 3
ENDMDL
MODEL 4
REMARK VINA RESULT:      -6.2      1.943      2.568
REMARK  Name = 
REMARK  4 active torsions:
REMARK  status: ('A' for Active; 'I' for Inactive)
REMARK    1  A    between atoms: C_1  and  C_2
REMARK    2  A    between atoms: C_2  and  C_3
REMARK    3  A    between atoms: C_2  and  C_9
REMARK    4  A    between atoms: C_3  and  N_4
REMARK                            x       y       z     vdW  Elec       q    Type
REMARK                         _______ _______ _______ _____ _____    ______ ____
ROOT
ATOM      1  C   UNL     1       3.960   5.943  18.497  0.00  0.00    +0.000 C 
ATOM      2  O   UNL     1       4.188   5.131  19.394  0.00  0.00    +0.000 OA
ATOM      3  N   UNL     1       2.832   6.744  18.535  0.00  0.00    +0.000 N 
ATOM      4  C   UNL     1       2.066   6.854  19.785  0.00  0.00    +0.000 C 
ATOM      5  C   UNL     1       1.945   8.324  20.259  0.00  0.00    +0.000 C 
ATOM      6  N   UNL     1       1.518   9.211  19.166  0.00  0.00    +0.000 N 
ATOM      7  C   UNL     1       0.370   9.971  19.251  0.00  0.00    +0.000 A 
ATOM      8  C   UNL     1      -0.063  10.546  20.456  0.00  0.00    +0.000 A 
ATOM      9  N   UNL     1      -1.188  11.297  20.603  0.00  0.00    +0.000 NA
ATOM     10  C   UNL     1      -1.895  11.475  19.474  0.00  0.00    +0.000 A 
ATOM     11  C   UNL     1      -1.490  10.937  18.269  0.00  0.00    +0.000 A 
ATOM     12  N   UNL     1      -0.361  10.191  18.134  0.00  0.00    +0.000 NA
ATOM     13  C   UNL     1       2.216   9.058  17.879  0.00  0.00    +0.000 C 
ATOM     14  C   UNL     1       2.290   7.580  17.454  0.00  0.00    +0.000 C 
ENDROOT
BRANCH   1  16
ATOM     15  C   UNL     1       5.895   7.262  17.659  0.00  0.00    +0.000 C 
ATOM     16  C   UNL     1       4.951   6.092  17.337  0.00  0.00    +0.000 C 
BRANCH  16  17
ATOM     17  C   UNL     1       5.736   4.795  17.122  0.00  0.00    +0.000 C 
BRANCH  17  18
ATOM     18  N   UNL     1       6.167   4.596  15.744  0.00  0.00    +0.000 N 
ATOM     19  C   UNL     1       5.525   3.882  14.771  0.00  0.00    +0.000 A 
ATOM     20  C   UNL     1       6.267   4.040  13.625  0.00  0.00    +0.000 A 
ATOM     21  C   UNL     1       7.347   4.857  14.010  0.00  0.00    +0.000 A 
ATOM     22  N   UNL     1       7.290   5.196  15.302  0.00  0.00    +0.000 NA
ENDBRANCH  17  18
ENDBRANCH  16  17
ENDBRANCH   1  16
TORSDOF 3
ENDMDL
MODEL 5
REMARK VINA RESULT:      -6.2      1.832      3.158
REMARK  Name = 
REMARK  4 active torsions:
REMARK  status: ('A' for Active; 'I' for Inactive)
REMARK    1  A    between atoms: C_1  and  C_2
REMARK    2  A    between atoms: C_2  and  C_3
REMARK    3  A    between atoms: C_2  and  C_9
REMARK    4  A    between atoms: C_3  and  N_4
REMARK                            x       y       z     vdW  Elec       q    Type
REMARK                         _______ _______ _______ _____ _____    ______ ____
ROOT
ATOM      1  C   UNL     1       2.531   3.066  19.252  0.00  0.00    +0.000 C 
ATOM      2  O   UNL     1       1.946   2.201  19.905  0.00  0.00    +0.000 OA
ATOM      3  N   UNL     1       2.057   4.365  19.210  0.00  0.00    +0.000 N 
ATOM      4  C   UNL     1       1.041   4.796  20.180  0.00  0.00    +0.000 C 
ATOM      5  C   UNL     1       1.512   6.020  21.005  0.00  0.00    +0.000 C 
ATOM      6  N   UNL     1       2.060   7.076  20.140  0.00  0.00    +0.000 N 
ATOM      7  C   UNL     1       1.531   8.350  20.124  0.00  0.00    +0.000 A 
ATOM      8  C   UNL     1       1.024   8.968  21.277  0.00  0.00    +0.000 A 
ATOM      9  N   UNL     1       0.484  10.217  21.322  0.00  0.00    +0.000 NA
ATOM     10  C   UNL     1       0.470  10.864  20.143  0.00  0.00    +0.000 A 
ATOM     11  C   UNL     1       0.974  10.291  18.993  0.00  0.00    +0.000 A 
ATOM     12  N   UNL     1       1.515   9.044  18.962  0.00  0.00    +0.000 NA
ATOM     13  C   UNL     1       3.017   6.653  19.105  0.00  0.00    +0.000 C 
ATOM     14  C   UNL     1       2.487   5.447  18.310  0.00  0.00    +0.000 C 
ENDROOT
BRANCH   1  16
ATOM     15  C   UNL     1       3.885   1.178  18.362  0.00  0.00    +0.000 C 
ATOM     16  C   UNL     1       3.819   2.708  18.501  0.00  0.00    +0.000 C 
BRANCH  16  17
ATOM     17  C   UNL     1       3.854   3.386  17.128  0.00  0.00    +0.000 C 
BRANCH  17  18
ATOM     18  N   UNL     1       5.155   3.951  16.791  0.00  0.00    +0.000 N 
ATOM     19  C   UNL     1       6.082   4.467  17.652  0.00  0.00    +0.000 A 
ATOM     20  C   UNL     1       7.172   4.807  16.886  0.00  0.00    +0.000 A 
ATOM     21  C   UNL     1       6.800   4.470  15.570  0.00  0.00    +0.000 A 
ATOM     22  N   UNL     1       5.570   3.950  15.508  0.00  0.00    +0.000 NA
ENDBRANCH  17  18
ENDBRANCH  16  17
ENDBRANCH   1  16
TORSDOF 3
ENDMDL
MODEL 6
REMARK VINA RESULT:      -6.2      4.437      6.015
REMARK  Name = 
REMARK  4 active torsions:
REMARK  status: ('A' for Active; 'I' for Inactive)
REMARK    1  A    between atoms: C_1  and  C_2
REMARK    2  A    between atoms: C_2  and  C_3
REMARK    3  A    between atoms: C_2  and  C_9
REMARK    4  A    between atoms: C_3  and  N_4
REMARK                            x       y       z     vdW  Elec       q    Type
REMARK                         _______ _______ _______ _____ _____    ______ ____
ROOT
ATOM      1  C   UNL     1       6.019   6.896  17.119  0.00  0.00    +0.000 C 
ATOM      2  O   UNL     1       5.586   7.714  16.307  0.00  0.00    +0.000 OA
ATOM      3  N   UNL     1       5.173   6.281  18.026  0.00  0.00    +0.000 N 
ATOM      4  C   UNL     1       3.719   6.362  17.830  0.00  0.00    +0.000 C 
ATOM      5  C   UNL     1       3.070   4.959  17.742  0.00  0.00    +0.000 C 
ATOM      6  N   UNL     1       3.520   4.086  18.837  0.00  0.00    +0.000 N 
ATOM      7  C   UNL     1       2.631   3.517  19.726  0.00  0.00    +0.000 A 
ATOM      8  C   UNL     1       1.353   3.087  19.340  0.00  0.00    +0.000 A 
ATOM      9  N   UNL     1       0.432   2.527  20.172  0.00  0.00    +0.000 NA
ATOM     10  C   UNL     1       0.837   2.394  21.447  0.00  0.00    +0.000 A 
ATOM     11  C   UNL     1       2.093   2.793  21.857  0.00  0.00    +0.000 A 
ATOM     12  N   UNL     1       3.006   3.347  21.015  0.00  0.00    +0.000 NA
ATOM     13  C   UNL     1       4.966   4.055  19.106  0.00  0.00    +0.000 C 
ATOM     14  C   UNL     1       5.550   5.476  19.198  0.00  0.00    +0.000 C 
ENDROOT
BRANCH   1  16
ATOM     15  C   UNL     1       8.100   6.881  18.482  0.00  0.00    +0.000 C 
ATOM     16  C   UNL     1       7.507   6.529  17.107  0.00  0.00    +0.000 C 
BRANCH  16  17
ATOM     17  C   UNL     1       7.698   5.043  16.791  0.00  0.00    +0.000 C 
BRANCH  17  18
ATOM     18  N   UNL     1       7.148   4.647  15.501  0.00  0.00    +0.000 N 
ATOM     19  C   UNL     1       6.104   3.794  15.273  0.00  0.00    +0.000 A 
ATOM     20  C   UNL     1       5.903   3.787  13.913  0.00  0.00    +0.000 A 
ATOM     21  C   UNL     1       6.886   4.658  13.404  0.00  0.00    +0.000 A 
ATOM     22  N   UNL     1       7.648   5.181  14.369  0.00  0.00    +0.000 NA
ENDBRANCH  17  18
ENDBRANCH  16  17
ENDBRANCH   1  16
TORSDOF 3
ENDMDL
MODEL 7
REMARK VINA RESULT:      -6.1      2.369      7.779
REMARK  Name = 
REMARK  4 active torsions:
REMARK  status: ('A' for Active; 'I' for Inactive)
REMARK    1  A    between atoms: C_1  and  C_2
REMARK    2  A    between atoms: C_2  and  C_3
REMARK    3  A    between atoms: C_2  and  C_9
REMARK    4  A    between atoms: C_3  and  N_4
REMARK                            x       y       z     vdW  Elec       q    Type
REMARK                         _______ _______ _______ _____ _____    ______ ____
ROOT
ATOM      1  C   UNL     1       0.098   9.968  19.647  0.00  0.00    +0.000 C 
ATOM      2  O   UNL     1      -0.437  10.028  20.754  0.00  0.00    +0.000 OA
ATOM      3  N   UNL     1       1.253   9.230  19.456  0.00  0.00    +0.000 N 
ATOM      4  C   UNL     1       1.676   8.270  20.486  0.00  0.00    +0.000 C 
ATOM      5  C   UNL     1       1.820   6.837  19.915  0.00  0.00    +0.000 C 
ATOM      6  N   UNL     1       2.603   6.828  18.671  0.00  0.00    +0.000 N 
ATOM      7  C   UNL     1       3.762   6.088  18.546  0.00  0.00    +0.000 A 
ATOM      8  C   UNL     1       3.924   4.836  19.158  0.00  0.00    +0.000 A 
ATOM      9  N   UNL     1       5.043   4.066  19.077  0.00  0.00    +0.000 NA
ATOM     10  C   UNL     1       6.033   4.591  18.335  0.00  0.00    +0.000 A 
ATOM     11  C   UNL     1       5.901   5.814  17.707  0.00  0.00    +0.000 A 
ATOM     12  N   UNL     1       4.776   6.572  17.792  0.00  0.00    +0.000 NA
ATOM     13  C   UNL     1       2.251   7.837  17.659  0.00  0.00    +0.000 C 
ATOM     14  C   UNL     1       2.139   9.240  18.282  0.00  0.00    +0.000 C 
ENDROOT
BRANCH   1  16
ATOM     15  C   UNL     1      -1.954  10.130  18.250  0.00  0.00    +0.000 C 
ATOM     16  C   UNL     1      -0.538  10.693  18.455  0.00  0.00    +0.000 C 
BRANCH  16  17
ATOM     17  C   UNL     1      -0.578  12.204  18.696  0.00  0.00    +0.000 C 
BRANCH  17  18
ATOM     18  N   UNL     1       0.714  12.770  19.065  0.00  0.00    +0.000 N 
ATOM     19  C   UNL     1       1.800  12.952  18.254  0.00  0.00    +0.000 A 
ATOM     20  C   UNL     1       2.752  13.580  19.022  0.00  0.00    +0.000 A 
ATOM     21  C   UNL     1       2.151  13.723  20.287  0.00  0.00    +0.000 A 
ATOM     22  N   UNL     1       0.910  13.228  20.317  0.00  0.00    +0.000 NA
ENDBRANCH  17  18
ENDBRANCH  16  17
ENDBRANCH   1  16
TORSDOF 3
ENDMDL
MODEL 8
REMARK VINA RESULT:      -6.1      2.102      3.134
REMARK  Name = 
REMARK  4 active torsions:
REMARK  status: ('A' for Active; 'I' for Inactive)
REMARK    1  A    between atoms: C_1  and  C_2
REMARK    2  A    between atoms: C_2  and  C_3
REMARK    3  A    between atoms: C_2  and  C_9
REMARK    4  A    between atoms: C_3  and  N_4
REMARK                            x       y       z     vdW  Elec       q    Type
REMARK                         _______ _______ _______ _____ _____    ______ ____
ROOT
ATOM      1  C   UNL     1       2.344   7.635  18.486  0.00  0.00    +0.000 C 
ATOM      2  O   UNL     1       2.843   7.887  17.389  0.00  0.00    +0.000 OA
ATOM      3  N   UNL     1       1.802   8.640  19.267  0.00  0.00    +0.000 N 
ATOM      4  C   UNL     1       1.539   9.957  18.670  0.00  0.00    +0.000 C 
ATOM      5  C   UNL     1       0.053  10.369  18.814  0.00  0.00    +0.000 C 
ATOM      6  N   UNL     1      -0.429  10.183  20.191  0.00  0.00    +0.000 N 
ATOM      7  C   UNL     1      -0.940  11.229  20.932  0.00  0.00    +0.000 A 
ATOM      8  C   UNL     1      -1.698  12.259  20.354  0.00  0.00    +0.000 A 
ATOM      9  N   UNL     1      -2.221  13.318  21.029  0.00  0.00    +0.000 NA
ATOM     10  C   UNL     1      -1.966  13.322  22.349  0.00  0.00    +0.000 A 
ATOM     11  C   UNL     1      -1.237  12.317  22.952  0.00  0.00    +0.000 A 
ATOM     12  N   UNL     1      -0.724  11.261  22.267  0.00  0.00    +0.000 NA
ATOM     13  C   UNL     1      -0.103   8.902  20.838  0.00  0.00    +0.000 C 
ATOM     14  C   UNL     1       1.388   8.555  20.676  0.00  0.00    +0.000 C 
ENDROOT
BRANCH   1  16
ATOM     15  C   UNL     1       1.807   5.298  17.823  0.00  0.00    +0.000 C 
ATOM     16  C   UNL     1       2.293   6.185  18.982  0.00  0.00    +0.000 C 
BRANCH  16  17
ATOM     17  C   UNL     1       3.667   5.732  19.481  0.00  0.00    +0.000 C 
BRANCH  17  18
ATOM     18  N   UNL     1       3.729   4.313  19.810  0.00  0.00    +0.000 N 
ATOM     19  C   UNL     1       4.641   3.398  19.361  0.00  0.00    +0.000 A 
ATOM     20  C   UNL     1       4.343   2.216  19.995  0.00  0.00    +0.000 A 
ATOM     21  C   UNL     1       3.227   2.515  20.799  0.00  0.00    +0.000 A 
ATOM     22  N   UNL     1       2.848   3.791  20.687  0.00  0.00    +0.000 NA
ENDBRANCH  17  18
ENDBRANCH  16  17
ENDBRANCH   1  16
TORSDOF 3
ENDMDL
MODEL 9
REMARK VINA RESULT:      -6.0      1.946      2.923
REMARK  Name = 
REMARK  4 active torsions:
REMARK  status: ('A' for Active; 'I' for Inactive)
REMARK    1  A    between atoms: C_1  and  C_2
REMARK    2  A    between atoms: C_2  and  C_3
REMARK    3  A    between atoms: C_2  and  C_9
REMARK    4  A    between atoms: C_3  and  N_4
REMARK                            x       y       z     vdW  Elec       q    Type
REMARK                         _______ _______ _______ _____ _____    ______ ____
ROOT
ATOM      1  C   UNL     1       4.784   6.261  16.456  0.00  0.00    +0.000 C 
ATOM      2  O   UNL     1       5.282   6.897  15.527  0.00  0.00    +0.000 OA
ATOM      3  N   UNL     1       4.194   6.913  17.525  0.00  0.00    +0.000 N 
ATOM      4  C   UNL     1       3.884   8.345  17.417  0.00  0.00    +0.000 C 
ATOM      5  C   UNL     1       2.381   8.630  17.661  0.00  0.00    +0.000 C 
ATOM      6  N   UNL     1       1.895   7.959  18.877  0.00  0.00    +0.000 N 
ATOM      7  C   UNL     1       1.335   8.664  19.923  0.00  0.00    +0.000 A 
ATOM      8  C   UNL     1       0.541   9.804  19.721  0.00  0.00    +0.000 A 
ATOM      9  N   UNL     1      -0.030  10.543  20.711  0.00  0.00    +0.000 NA
ATOM     10  C   UNL     1       0.213  10.097  21.955  0.00  0.00    +0.000 A 
ATOM     11  C   UNL     1       0.977   8.971  22.188  0.00  0.00    +0.000 A 
ATOM     12  N   UNL     1       1.538   8.237  21.190  0.00  0.00    +0.000 NA
ATOM     13  C   UNL     1       2.266   6.546  19.046  0.00  0.00    +0.000 C 
ATOM     14  C   UNL     1       3.772   6.329  18.807  0.00  0.00    +0.000 C 
ENDROOT
BRANCH   1  16
ATOM     15  C   UNL     1       5.467   4.283  15.111  0.00  0.00    +0.000 C 
ATOM     16  C   UNL     1       4.787   4.728  16.416  0.00  0.00    +0.000 C 
BRANCH  16  17
ATOM     17  C   UNL     1       5.511   4.154  17.637  0.00  0.00    +0.000 C 
BRANCH  17  18
ATOM     18  N   UNL     1       4.663   3.319  18.478  0.00  0.00    +0.000 N 
ATOM     19  C   UNL     1       3.504   2.690  18.119  0.00  0.00    +0.000 A 
ATOM     20  C   UNL     1       3.104   1.966  19.217  0.00  0.00    +0.000 A 
ATOM     21  C   UNL     1       4.081   2.233  20.195  0.00  0.00    +0.000 A 
ATOM     22  N   UNL     1       5.032   3.059  19.748  0.00  0.00    +0.000 NA
ENDBRANCH  17  18
ENDBRANCH  16  17
ENDBRANCH   1  16
TORSDOF 3
ENDMDL
