MODEL 1
REMARK VINA RESULT:      -7.0      0.000      0.000
REMARK  Name = 
REMARK  9 active torsions:
REMARK  status: ('A' for Active; 'I' for Inactive)
REMARK    1  A    between atoms: C_1  and  C_2
REMARK    2  A    between atoms: C_4  and  C_5
REMARK    3  A    between atoms: C_5  and  O_6
REMARK    4  A    between atoms: C_7  and  C_8
REMARK    5  A    between atoms: C_7  and  N_18
REMARK    6  A    between atoms: N_10  and  C_11
REMARK    7  A    between atoms: C_24  and  C_25
REMARK    8  A    between atoms: N_26  and  C_27
REMARK    9  A    between atoms: C_27  and  C_28
REMARK                            x       y       z     vdW  Elec       q    Type
REMARK                         _______ _______ _______ _____ _____    ______ ____
ROOT
ATOM      1  C   UNL     1       1.459   9.423  18.448  0.00  0.00    +0.000 C 
ATOM      2  C   UNL     1       1.651   8.505  19.445  0.00  0.00    +0.000 C 
ENDROOT
BRANCH   1   6
ATOM      3  C   UNL     1       1.646  14.242  19.715  0.00  0.00    +0.000 C 
ATOM      4  C   UNL     1       1.146  12.928  19.229  0.00  0.00    +0.000 A 
ATOM      5  C   UNL     1       1.890  11.884  18.720  0.00  0.00    +0.000 A 
ATOM      6  C   UNL     1       1.032  10.767  18.654  0.00  0.00    +0.000 A 
ATOM      7  C   UNL     1      -0.263  11.196  18.871  0.00  0.00    +0.000 A 
ATOM      8  C   UNL     1      -1.543  10.428  18.854  0.00  0.00    +0.000 C 
ATOM      9  N   UNL     1      -0.185  12.543  19.192  0.00  0.00    +0.000 N 
BRANCH   9  10
ATOM     10  C   UNL     1      -1.339  13.405  19.461  0.00  0.00    +0.000 C 
BRANCH  10  11
ATOM     11  C   UNL     1      -1.911  13.255  20.854  0.00  0.00    +0.000 A 
ATOM     12  C   UNL     1      -1.136  13.446  22.014  0.00  0.00    +0.000 A 
ATOM     13  C   UNL     1      -1.661  13.207  23.283  0.00  0.00    +0.000 A 
ATOM     14  C   UNL     1      -2.977  12.785  23.425  0.00  0.00    +0.000 A 
ATOM     15  C   UNL     1      -3.781  12.637  22.297  0.00  0.00    +0.000 A 
ATOM     16  C   UNL     1      -3.255  12.877  21.022  0.00  0.00    +0.000 A 
ATOM     17 CL   UNL     1      -4.318  12.687  19.671  0.00  0.00    +0.000 Cl
ENDBRANCH  10  11
ENDBRANCH   9  10
ENDBRANCH   1   6
BRANCH   2  18
ATOM     18  N   UNL     1       1.123   8.716  20.767  0.00  0.00    +0.000 N 
ATOM     19  C   UNL     1      -0.152   8.367  21.084  0.00  0.00    +0.000 A 
ATOM     20  C   UNL     1      -0.735   8.690  22.302  0.00  0.00    +0.000 A 
ATOM     21  C   UNL     1       0.042   9.274  23.281  0.00  0.00    +0.000 A 
ATOM     22  C   UNL     1       1.383   9.514  23.014  0.00  0.00    +0.000 A 
ATOM     23  C   UNL     1       1.906   9.241  21.746  0.00  0.00    +0.000 A 
ENDBRANCH   2  18
BRANCH   2  24
ATOM     24  C   UNL     1       2.539   7.272  19.156  0.00  0.00    +0.000 C 
ATOM     25  S   UNL     1       2.132   5.730  19.862  0.00  0.00    +0.000 SA
ATOM     26  N   UNL     1       3.506   7.433  18.285  0.00  0.00    +0.000 NA
BRANCH  26  27
ATOM     27  C   UNL     1       4.480   6.522  17.802  0.00  0.00    +0.000 A 
ATOM     28  C   UNL     1       5.179   5.569  18.549  0.00  0.00    +0.000 A 
ATOM     29  C   UNL     1       6.158   4.747  17.969  0.00  0.00    +0.000 A 
ATOM     30  C   UNL     1       6.385   4.818  16.603  0.00  0.00    +0.000 A 
ATOM     31  F   UNL     1       7.329   4.032  16.052  0.00  0.00    +0.000 F 
ATOM     32  C   UNL     1       5.651   5.678  15.805  0.00  0.00    +0.000 A 
ATOM     33  C   UNL     1       4.704   6.517  16.408  0.00  0.00    +0.000 A 
ENDBRANCH  26  27
ENDBRANCH   2  24
BRANCH   1  34
ATOM     34  O   UNL     1       1.708   9.215  17.106  0.00  0.00    +0.000 OA
ATOM     35  H   UNL     1       1.702   8.242  16.973  0.00  0.00    +0.000 HD
ENDBRANCH   1  34
TORSDOF 7
ENDMDL
MODEL 2
REMARK VINA RESULT:      -6.9      4.591      9.222
REMARK  Name = 
REMARK  9 active torsions:
REMARK  status: ('A' for Active; 'I' for Inactive)
REMARK    1  A    between atoms: C_1  and  C_2
REMARK    2  A    between atoms: C_4  and  C_5
REMARK    3  A    between atoms: C_5  and  O_6
REMARK    4  A    between atoms: C_7  and  C_8
REMARK    5  A    between atoms: C_7  and  N_18
REMARK    6  A    between atoms: N_10  and  C_11
REMARK    7  A    between atoms: C_24  and  C_25
REMARK    8  A    between atoms: N_26  and  C_27
REMARK    9  A    between atoms: C_27  and  C_28
REMARK                            x       y       z     vdW  Elec       q    Type
REMARK                         _______ _______ _______ _____ _____    ______ ____
ROOT
ATOM      1  C   UNL     1      -0.359  10.705  19.577  0.00  0.00    +0.000 C 
ATOM      2  C   UNL     1      -0.193  12.023  19.904  0.00  0.00    +0.000 C 
ENDROOT
BRANCH   1   6
ATOM      3  C   UNL     1       2.817   7.747  17.121  0.00  0.00    +0.000 C 
ATOM      4  C   UNL     1       2.120   8.465  18.221  0.00  0.00    +0.000 A 
ATOM      5  C   UNL     1       1.400   9.639  18.132  0.00  0.00    +0.000 A 
ATOM      6  C   UNL     1       0.706   9.784  19.350  0.00  0.00    +0.000 A 
ATOM      7  C   UNL     1       1.198   8.857  20.248  0.00  0.00    +0.000 A 
ATOM      8  C   UNL     1       0.846   8.629  21.681  0.00  0.00    +0.000 C 
ATOM      9  N   UNL     1       2.099   8.069  19.549  0.00  0.00    +0.000 N 
BRANCH   9  10
ATOM     10  C   UNL     1       2.886   6.980  20.135  0.00  0.00    +0.000 C 
BRANCH  10  11
ATOM     11  C   UNL     1       2.345   5.598  19.840  0.00  0.00    +0.000 A 
ATOM     12  C   UNL     1       1.133   5.129  20.382  0.00  0.00    +0.000 A 
ATOM     13  C   UNL     1       0.706   3.818  20.174  0.00  0.00    +0.000 A 
ATOM     14  C   UNL     1       1.471   2.949  19.407  0.00  0.00    +0.000 A 
ATOM     15  C   UNL     1       2.649   3.402  18.818  0.00  0.00    +0.000 A 
ATOM     16  C   UNL     1       3.079   4.717  19.026  0.00  0.00    +0.000 A 
ATOM     17 CL   UNL     1       4.544   5.212  18.249  0.00  0.00    +0.000 Cl
ENDBRANCH  10  11
ENDBRANCH   9  10
ENDBRANCH   1   6
BRANCH   2  18
ATOM     18  N   UNL     1       1.073  12.683  19.729  0.00  0.00    +0.000 N 
ATOM     19  C   UNL     1       1.896  12.929  20.783  0.00  0.00    +0.000 A 
ATOM     20  C   UNL     1       3.050  13.691  20.669  0.00  0.00    +0.000 A 
ATOM     21  C   UNL     1       3.453  14.111  19.419  0.00  0.00    +0.000 A 
ATOM     22  C   UNL     1       2.690  13.753  18.317  0.00  0.00    +0.000 A 
ATOM     23  C   UNL     1       1.494  13.050  18.490  0.00  0.00    +0.000 A 
ENDBRANCH   2  18
BRANCH   2  24
ATOM     24  C   UNL     1      -1.371  12.775  20.567  0.00  0.00    +0.000 C 
ATOM     25  S   UNL     1      -1.586  14.479  20.265  0.00  0.00    +0.000 SA
ATOM     26  N   UNL     1      -2.227  12.050  21.245  0.00  0.00    +0.000 NA
BRANCH  26  27
ATOM     27  C   UNL     1      -3.396  12.420  21.959  0.00  0.00    +0.000 A 
ATOM     28  C   UNL     1      -4.657  12.690  21.419  0.00  0.00    +0.000 A 
ATOM     29  C   UNL     1      -5.735  13.093  22.222  0.00  0.00    +0.000 A 
ATOM     30  C   UNL     1      -5.576  13.145  23.599  0.00  0.00    +0.000 A 
ATOM     31  F   UNL     1      -6.611  13.538  24.365  0.00  0.00    +0.000 F 
ATOM     32  C   UNL     1      -4.374  12.794  24.188  0.00  0.00    +0.000 A 
ATOM     33  C   UNL     1      -3.299  12.430  23.368  0.00  0.00    +0.000 A 
ENDBRANCH  26  27
ENDBRANCH   2  24
BRANCH   1  34
ATOM     34  O   UNL     1      -1.569  10.048  19.478  0.00  0.00    +0.000 OA
ATOM     35  H   UNL     1      -1.372   9.092  19.579  0.00  0.00    +0.000 HD
ENDBRANCH   1  34
TORSDOF 7
ENDMDL
MODEL 3
REMARK VINA RESULT:      -6.8      1.113      1.179
REMARK  Name = 
REMARK  9 active torsions:
REMARK  status: ('A' for Active; 'I' for Inactive)
REMARK    1  A    between atoms: C_1  and  C_2
REMARK    2  A    between atoms: C_4  and  C_5
REMARK    3  A    between atoms: C_5  and  O_6
REMARK    4  A    between atoms: C_7  and  C_8
REMARK    5  A    between atoms: C_7  and  N_18
REMARK    6  A    between atoms: N_10  and  C_11
REMARK    7  A    between atoms: C_24  and  C_25
REMARK    8  A    between atoms: N_26  and  C_27
REMARK    9  A    between atoms: C_27  and  C_28
REMARK                            x       y       z     vdW  Elec       q    Type
REMARK                         _______ _______ _______ _____ _____    ______ ____
ROOT
ATOM      1  C   UNL     1       1.342   9.487  18.551  0.00  0.00    +0.000 C 
ATOM      2  C   UNL     1       1.507   8.547  19.533  0.00  0.00    +0.000 C 
ENDROOT
BRANCH   1   6
ATOM      3  C   UNL     1       1.801  14.208  20.091  0.00  0.00    +0.000 C 
ATOM      4  C   UNL     1       1.246  12.968  19.486  0.00  0.00    +0.000 A 
ATOM      5  C   UNL     1       1.949  11.884  19.000  0.00  0.00    +0.000 A 
ATOM      6  C   UNL     1       1.011  10.854  18.785  0.00  0.00    +0.000 A 
ATOM      7  C   UNL     1      -0.259  11.388  18.892  0.00  0.00    +0.000 A 
ATOM      8  C   UNL     1      -1.590  10.740  18.702  0.00  0.00    +0.000 C 
ATOM      9  N   UNL     1      -0.101  12.706  19.292  0.00  0.00    +0.000 N 
BRANCH   9  10
ATOM     10  C   UNL     1      -1.200  13.655  19.488  0.00  0.00    +0.000 C 
BRANCH  10  11
ATOM     11  C   UNL     1      -1.691  13.746  20.917  0.00  0.00    +0.000 A 
ATOM     12  C   UNL     1      -1.656  12.650  21.799  0.00  0.00    +0.000 A 
ATOM     13  C   UNL     1      -2.204  12.733  23.079  0.00  0.00    +0.000 A 
ATOM     14  C   UNL     1      -2.786  13.917  23.513  0.00  0.00    +0.000 A 
ATOM     15  C   UNL     1      -2.788  15.032  22.678  0.00  0.00    +0.000 A 
ATOM     16  C   UNL     1      -2.239  14.950  21.393  0.00  0.00    +0.000 A 
ATOM     17 CL   UNL     1      -2.265  16.381  20.421  0.00  0.00    +0.000 Cl
ENDBRANCH  10  11
ENDBRANCH   9  10
ENDBRANCH   1   6
BRANCH   2  18
ATOM     18  N   UNL     1       1.039   8.775  20.873  0.00  0.00    +0.000 N 
ATOM     19  C   UNL     1      -0.266   8.590  21.210  0.00  0.00    +0.000 A 
ATOM     20  C   UNL     1      -0.775   8.941  22.452  0.00  0.00    +0.000 A 
ATOM     21  C   UNL     1       0.093   9.376  23.432  0.00  0.00    +0.000 A 
ATOM     22  C   UNL     1       1.448   9.443  23.140  0.00  0.00    +0.000 A 
ATOM     23  C   UNL     1       1.904   9.152  21.851  0.00  0.00    +0.000 A 
ENDBRANCH   2  18
BRANCH   2  24
ATOM     24  C   UNL     1       2.302   7.262  19.201  0.00  0.00    +0.000 C 
ATOM     25  S   UNL     1       2.107   5.844  20.198  0.00  0.00    +0.000 SA
ATOM     26  N   UNL     1       3.008   7.275  18.096  0.00  0.00    +0.000 NA
BRANCH  26  27
ATOM     27  C   UNL     1       3.834   6.280  17.511  0.00  0.00    +0.000 A 
ATOM     28  C   UNL     1       3.558   4.913  17.418  0.00  0.00    +0.000 A 
ATOM     29  C   UNL     1       4.475   4.010  16.855  0.00  0.00    +0.000 A 
ATOM     30  C   UNL     1       5.649   4.492  16.298  0.00  0.00    +0.000 A 
ATOM     31  F   UNL     1       6.527   3.622  15.764  0.00  0.00    +0.000 F 
ATOM     32  C   UNL     1       5.923   5.848  16.279  0.00  0.00    +0.000 A 
ATOM     33  C   UNL     1       5.014   6.729  16.879  0.00  0.00    +0.000 A 
ENDBRANCH  26  27
ENDBRANCH   2  24
BRANCH   1  34
ATOM     34  O   UNL     1       1.532   9.280  17.200  0.00  0.00    +0.000 OA
ATOM     35  H   UNL     1       2.494   9.384  17.038  0.00  0.00    +0.000 HD
ENDBRANCH   1  34
TORSDOF 7
ENDMDL
MODEL 4
REMARK VINA RESULT:      -6.8      4.726      6.824
REMARK  Name = 
REMARK  9 active torsions:
REMARK  status: ('A' for Active; 'I' for Inactive)
REMARK    1  A    between atoms: C_1  and  C_2
REMARK    2  A    between atoms: C_4  and  C_5
REMARK    3  A    between atoms: C_5  and  O_6
REMARK    4  A    between atoms: C_7  and  C_8
REMARK    5  A    between atoms: C_7  and  N_18
REMARK    6  A    between atoms: N_10  and  C_11
REMARK    7  A    between atoms: C_24  and  C_25
REMARK    8  A    between atoms: N_26  and  C_27
REMARK    9  A    between atoms: C_27  and  C_28
REMARK                            x       y       z     vdW  Elec       q    Type
REMARK                         _______ _______ _______ _____ _____    ______ ____
ROOT
ATOM      1  C   UNL     1      -0.636  12.584  18.667  0.00  0.00    +0.000 C 
ATOM      2  C   UNL     1       0.130  12.467  19.795  0.00  0.00    +0.000 C 
ENDROOT
BRANCH   1   6
ATOM      3  C   UNL     1      -3.762   9.643  16.128  0.00  0.00    +0.000 C 
ATOM      4  C   UNL     1      -3.166  10.464  17.214  0.00  0.00    +0.000 A 
ATOM      5  C   UNL     1      -1.834  10.777  17.396  0.00  0.00    +0.000 A 
ATOM      6  C   UNL     1      -1.782  11.786  18.378  0.00  0.00    +0.000 A 
ATOM      7  C   UNL     1      -3.030  11.895  18.960  0.00  0.00    +0.000 A 
ATOM      8  C   UNL     1      -3.493  12.769  20.079  0.00  0.00    +0.000 C 
ATOM      9  N   UNL     1      -3.871  11.047  18.255  0.00  0.00    +0.000 N 
BRANCH   9  10
ATOM     10  C   UNL     1      -5.285  10.826  18.568  0.00  0.00    +0.000 C 
BRANCH  10  11
ATOM     11  C   UNL     1      -6.184  11.996  18.232  0.00  0.00    +0.000 A 
ATOM     12  C   UNL     1      -6.080  12.705  17.020  0.00  0.00    +0.000 A 
ATOM     13  C   UNL     1      -6.853  13.840  16.777  0.00  0.00    +0.000 A 
ATOM     14  C   UNL     1      -7.758  14.285  17.732  0.00  0.00    +0.000 A 
ATOM     15  C   UNL     1      -7.917  13.572  18.918  0.00  0.00    +0.000 A 
ATOM     16  C   UNL     1      -7.142  12.434  19.164  0.00  0.00    +0.000 A 
ATOM     17 CL   UNL     1      -7.406  11.593  20.653  0.00  0.00    +0.000 Cl
ENDBRANCH  10  11
ENDBRANCH   9  10
ENDBRANCH   1   6
BRANCH   2  18
ATOM     18  N   UNL     1       0.043  11.308  20.641  0.00  0.00    +0.000 N 
ATOM     19  C   UNL     1       0.596  10.120  20.276  0.00  0.00    +0.000 A 
ATOM     20  C   UNL     1       0.404   8.951  20.998  0.00  0.00    +0.000 A 
ATOM     21  C   UNL     1      -0.266   9.013  22.203  0.00  0.00    +0.000 A 
ATOM     22  C   UNL     1      -0.720  10.244  22.651  0.00  0.00    +0.000 A 
ATOM     23  C   UNL     1      -0.570  11.382  21.852  0.00  0.00    +0.000 A 
ENDBRANCH   2  18
BRANCH   2  24
ATOM     24  C   UNL     1       1.026  13.658  20.207  0.00  0.00    +0.000 C 
ATOM     25  S   UNL     1       0.604  14.614  21.604  0.00  0.00    +0.000 SA
ATOM     26  N   UNL     1       2.141  13.818  19.536  0.00  0.00    +0.000 NA
BRANCH  26  27
ATOM     27  C   UNL     1       3.168  14.789  19.659  0.00  0.00    +0.000 A 
ATOM     28  C   UNL     1       4.078  14.916  20.712  0.00  0.00    +0.000 A 
ATOM     29  C   UNL     1       5.028  15.950  20.748  0.00  0.00    +0.000 A 
ATOM     30  C   UNL     1       5.127  16.821  19.674  0.00  0.00    +0.000 A 
ATOM     31  F   UNL     1       6.035  17.814  19.716  0.00  0.00    +0.000 F 
ATOM     32  C   UNL     1       4.312  16.677  18.565  0.00  0.00    +0.000 A 
ATOM     33  C   UNL     1       3.346  15.662  18.563  0.00  0.00    +0.000 A 
ENDBRANCH  26  27
ENDBRANCH   2  24
BRANCH   1  34
ATOM     34  O   UNL     1      -0.462  13.524  17.671  0.00  0.00    +0.000 OA
ATOM     35  H   UNL     1      -0.361  14.389  18.124  0.00  0.00    +0.000 HD
ENDBRANCH   1  34
TORSDOF 7
ENDMDL
MODEL 5
REMARK VINA RESULT:      -6.7      0.620      1.030
REMARK  Name = 
REMARK  9 active torsions:
REMARK  status: ('A' for Active; 'I' for Inactive)
REMARK    1  A    between atoms: C_1  and  C_2
REMARK    2  A    between atoms: C_4  and  C_5
REMARK    3  A    between atoms: C_5  and  O_6
REMARK    4  A    between atoms: C_7  and  C_8
REMARK    5  A    between atoms: C_7  and  N_18
REMARK    6  A    between atoms: N_10  and  C_11
REMARK    7  A    between atoms: C_24  and  C_25
REMARK    8  A    between atoms: N_26  and  C_27
REMARK    9  A    between atoms: C_27  and  C_28
REMARK                            x       y       z     vdW  Elec       q    Type
REMARK                         _______ _______ _______ _____ _____    ______ ____
ROOT
ATOM      1  C   UNL     1       1.345   9.517  18.505  0.00  0.00    +0.000 C 
ATOM      2  C   UNL     1       1.513   8.598  19.505  0.00  0.00    +0.000 C 
ENDROOT
BRANCH   1   6
ATOM      3  C   UNL     1       1.853  14.322  19.740  0.00  0.00    +0.000 C 
ATOM      4  C   UNL     1       1.264  13.039  19.270  0.00  0.00    +0.000 A 
ATOM      5  C   UNL     1       1.933  11.948  18.755  0.00  0.00    +0.000 A 
ATOM      6  C   UNL     1       1.006  10.887  18.710  0.00  0.00    +0.000 A 
ATOM      7  C   UNL     1      -0.256  11.396  18.947  0.00  0.00    +0.000 A 
ATOM      8  C   UNL     1      -1.581  10.709  18.957  0.00  0.00    +0.000 C 
ATOM      9  N   UNL     1      -0.088  12.737  19.259  0.00  0.00    +0.000 N 
BRANCH   9  10
ATOM     10  C   UNL     1      -1.183  13.670  19.543  0.00  0.00    +0.000 C 
BRANCH  10  11
ATOM     11  C   UNL     1      -1.726  13.575  20.952  0.00  0.00    +0.000 A 
ATOM     12  C   UNL     1      -0.926  13.809  22.087  0.00  0.00    +0.000 A 
ATOM     13  C   UNL     1      -1.425  13.620  23.376  0.00  0.00    +0.000 A 
ATOM     14  C   UNL     1      -2.739  13.208  23.561  0.00  0.00    +0.000 A 
ATOM     15  C   UNL     1      -3.566  13.019  22.456  0.00  0.00    +0.000 A 
ATOM     16  C   UNL     1      -3.066  13.208  21.163  0.00  0.00    +0.000 A 
ATOM     17 CL   UNL     1      -4.158  12.969  19.842  0.00  0.00    +0.000 Cl
ENDBRANCH  10  11
ENDBRANCH   9  10
ENDBRANCH   1   6
BRANCH   2  18
ATOM     18  N   UNL     1       1.042   8.851  20.840  0.00  0.00    +0.000 N 
ATOM     19  C   UNL     1       1.864   9.356  21.798  0.00  0.00    +0.000 A 
ATOM     20  C   UNL     1       1.481   9.473  23.127  0.00  0.00    +0.000 A 
ATOM     21  C   UNL     1       0.177   9.188  23.474  0.00  0.00    +0.000 A 
ATOM     22  C   UNL     1      -0.708   8.798  22.479  0.00  0.00    +0.000 A 
ATOM     23  C   UNL     1      -0.257   8.621  21.168  0.00  0.00    +0.000 A 
ENDBRANCH   2  18
BRANCH   2  24
ATOM     24  C   UNL     1       2.317   7.312  19.201  0.00  0.00    +0.000 C 
ATOM     25  S   UNL     1       2.128   5.913  20.226  0.00  0.00    +0.000 SA
ATOM     26  N   UNL     1       3.025   7.306  18.098  0.00  0.00    +0.000 NA
BRANCH  26  27
ATOM     27  C   UNL     1       3.857   6.304  17.535  0.00  0.00    +0.000 A 
ATOM     28  C   UNL     1       3.581   4.936  17.450  0.00  0.00    +0.000 A 
ATOM     29  C   UNL     1       4.504   4.027  16.910  0.00  0.00    +0.000 A 
ATOM     30  C   UNL     1       5.688   4.501  16.365  0.00  0.00    +0.000 A 
ATOM     31  F   UNL     1       6.572   3.625  15.853  0.00  0.00    +0.000 F 
ATOM     32  C   UNL     1       5.964   5.857  16.338  0.00  0.00    +0.000 A 
ATOM     33  C   UNL     1       5.048   6.745  16.916  0.00  0.00    +0.000 A 
ENDBRANCH  26  27
ENDBRANCH   2  24
BRANCH   1  34
ATOM     34  O   UNL     1       1.539   9.283  17.158  0.00  0.00    +0.000 OA
ATOM     35  H   UNL     1       1.431  10.150  16.710  0.00  0.00    +0.000 HD
ENDBRANCH   1  34
TORSDOF 7
ENDMDL
MODEL 6
REMARK VINA RESULT:      -6.7      2.746      5.086
REMARK  Name = 
REMARK  9 active torsions:
REMARK  status: ('A' for Active; 'I' for Inactive)
REMARK    1  A    between atoms: C_1  and  C_2
REMARK    2  A    between atoms: C_4  and  C_5
REMARK    3  A    between atoms: C_5  and  O_6
REMARK    4  A    between atoms: C_7  and  C_8
REMARK    5  A    between atoms: C_7  and  N_18
REMARK    6  A    between atoms: N_10  and  C_11
REMARK    7  A    between atoms: C_24  and  C_25
REMARK    8  A    between atoms: N_26  and  C_27
REMARK    9  A    between atoms: C_27  and  C_28
REMARK                            x       y       z     vdW  Elec       q    Type
REMARK                         _______ _______ _______ _____ _____    ______ ____
ROOT
ATOM      1  C   UNL     1      -0.840  11.642  21.608  0.00  0.00    +0.000 C 
ATOM      2  C   UNL     1      -0.076  11.702  20.474  0.00  0.00    +0.000 C 
ENDROOT
BRANCH   1   6
ATOM      3  C   UNL     1      -2.221  15.038  24.989  0.00  0.00    +0.000 C 
ATOM      4  C   UNL     1      -2.126  14.265  23.722  0.00  0.00    +0.000 A 
ATOM      5  C   UNL     1      -1.062  13.503  23.282  0.00  0.00    +0.000 A 
ATOM      6  C   UNL     1      -1.526  12.751  22.184  0.00  0.00    +0.000 A 
ATOM      7  C   UNL     1      -2.763  13.240  21.810  0.00  0.00    +0.000 A 
ATOM      8  C   UNL     1      -3.653  12.834  20.682  0.00  0.00    +0.000 C 
ATOM      9  N   UNL     1      -3.109  14.201  22.748  0.00  0.00    +0.000 N 
BRANCH   9  10
ATOM     10  C   UNL     1      -4.335  15.003  22.707  0.00  0.00    +0.000 C 
BRANCH  10  11
ATOM     11  C   UNL     1      -5.603  14.206  22.921  0.00  0.00    +0.000 A 
ATOM     12  C   UNL     1      -5.763  13.315  23.999  0.00  0.00    +0.000 A 
ATOM     13  C   UNL     1      -6.902  12.520  24.119  0.00  0.00    +0.000 A 
ATOM     14  C   UNL     1      -7.916  12.607  23.173  0.00  0.00    +0.000 A 
ATOM     15  C   UNL     1      -7.805  13.517  22.124  0.00  0.00    +0.000 A 
ATOM     16  C   UNL     1      -6.662  14.314  22.002  0.00  0.00    +0.000 A 
ATOM     17 CL   UNL     1      -6.605  15.432  20.682  0.00  0.00    +0.000 Cl
ENDBRANCH  10  11
ENDBRANCH   9  10
ENDBRANCH   1   6
BRANCH   2  18
ATOM     18  N   UNL     1       0.374  12.960  19.941  0.00  0.00    +0.000 N 
ATOM     19  C   UNL     1       1.595  13.468  20.258  0.00  0.00    +0.000 A 
ATOM     20  C   UNL     1       1.997  14.741  19.879  0.00  0.00    +0.000 A 
ATOM     21  C   UNL     1       1.183  15.478  19.043  0.00  0.00    +0.000 A 
ATOM     22  C   UNL     1      -0.007  14.915  18.606  0.00  0.00    +0.000 A 
ATOM     23  C   UNL     1      -0.405  13.660  19.075  0.00  0.00    +0.000 A 
ENDBRANCH   2  18
BRANCH   2  24
ATOM     24  C   UNL     1       0.216  10.390  19.708  0.00  0.00    +0.000 C 
ATOM     25  S   UNL     1      -0.559  10.096  18.174  0.00  0.00    +0.000 SA
ATOM     26  N   UNL     1       1.138   9.606  20.212  0.00  0.00    +0.000 NA
BRANCH  26  27
ATOM     27  C   UNL     1       1.639   8.356  19.764  0.00  0.00    +0.000 A 
ATOM     28  C   UNL     1       2.297   8.102  18.558  0.00  0.00    +0.000 A 
ATOM     29  C   UNL     1       2.711   6.809  18.199  0.00  0.00    +0.000 A 
ATOM     30  C   UNL     1       2.541   5.766  19.098  0.00  0.00    +0.000 A 
ATOM     31  F   UNL     1       2.934   4.527  18.748  0.00  0.00    +0.000 F 
ATOM     32  C   UNL     1       1.982   5.987  20.344  0.00  0.00    +0.000 A 
ATOM     33  C   UNL     1       1.542   7.277  20.669  0.00  0.00    +0.000 A 
ENDBRANCH  26  27
ENDBRANCH   2  24
BRANCH   1  34
ATOM     34  O   UNL     1      -1.119  10.499  22.329  0.00  0.00    +0.000 OA
ATOM     35  H   UNL     1      -0.548  10.531  23.127  0.00  0.00    +0.000 HD
ENDBRANCH   1  34
TORSDOF 7
ENDMDL
MODEL 7
REMARK VINA RESULT:      -6.6      4.599      9.195
REMARK  Name = 
REMARK  9 active torsions:
REMARK  status: ('A' for Active; 'I' for Inactive)
REMARK    1  A    between atoms: C_1  and  C_2
REMARK    2  A    between atoms: C_4  and  C_5
REMARK    3  A    between atoms: C_5  and  O_6
REMARK    4  A    between atoms: C_7  and  C_8
REMARK    5  A    between atoms: C_7  and  N_18
REMARK    6  A    between atoms: N_10  and  C_11
REMARK    7  A    between atoms: C_24  and  C_25
REMARK    8  A    between atoms: N_26  and  C_27
REMARK    9  A    between atoms: C_27  and  C_28
REMARK                            x       y       z     vdW  Elec       q    Type
REMARK                         _______ _______ _______ _____ _____    ______ ____
ROOT
ATOM      1  C   UNL     1      -0.424  10.727  19.735  0.00  0.00    +0.000 C 
ATOM      2  C   UNL     1      -0.271  12.055  20.031  0.00  0.00    +0.000 C 
ENDROOT
BRANCH   1   6
ATOM      3  C   UNL     1       2.722   7.895  17.100  0.00  0.00    +0.000 C 
ATOM      4  C   UNL     1       2.047   8.569  18.241  0.00  0.00    +0.000 A 
ATOM      5  C   UNL     1       1.307   9.733  18.209  0.00  0.00    +0.000 A 
ATOM      6  C   UNL     1       0.647   9.831  19.450  0.00  0.00    +0.000 A 
ATOM      7  C   UNL     1       1.180   8.885  20.305  0.00  0.00    +0.000 A 
ATOM      8  C   UNL     1       0.873   8.608  21.740  0.00  0.00    +0.000 C 
ATOM      9  N   UNL     1       2.071   8.132  19.556  0.00  0.00    +0.000 N 
BRANCH   9  10
ATOM     10  C   UNL     1       2.891   7.039  20.086  0.00  0.00    +0.000 C 
BRANCH  10  11
ATOM     11  C   UNL     1       2.338   5.659  19.803  0.00  0.00    +0.000 A 
ATOM     12  C   UNL     1       1.176   5.167  20.426  0.00  0.00    +0.000 A 
ATOM     13  C   UNL     1       0.743   3.858  20.223  0.00  0.00    +0.000 A 
ATOM     14  C   UNL     1       1.453   3.012  19.379  0.00  0.00    +0.000 A 
ATOM     15  C   UNL     1       2.578   3.489  18.710  0.00  0.00    +0.000 A 
ATOM     16  C   UNL     1       3.013   4.803  18.914  0.00  0.00    +0.000 A 
ATOM     17 CL   UNL     1       4.409   5.328  18.036  0.00  0.00    +0.000 Cl
ENDBRANCH  10  11
ENDBRANCH   9  10
ENDBRANCH   1   6
BRANCH   2  18
ATOM     18  N   UNL     1       0.961  12.744  19.759  0.00  0.00    +0.000 N 
ATOM     19  C   UNL     1       1.286  13.146  18.502  0.00  0.00    +0.000 A 
ATOM     20  C   UNL     1       2.527  13.680  18.184  0.00  0.00    +0.000 A 
ATOM     21  C   UNL     1       3.426  13.934  19.200  0.00  0.00    +0.000 A 
ATOM     22  C   UNL     1       3.053  13.650  20.506  0.00  0.00    +0.000 A 
ATOM     23  C   UNL     1       1.822  13.042  20.768  0.00  0.00    +0.000 A 
ENDBRANCH   2  18
BRANCH   2  24
ATOM     24  C   UNL     1      -1.421  12.788  20.762  0.00  0.00    +0.000 C 
ATOM     25  S   UNL     1      -1.721  14.473  20.428  0.00  0.00    +0.000 SA
ATOM     26  N   UNL     1      -2.196  12.055  21.525  0.00  0.00    +0.000 NA
BRANCH  26  27
ATOM     27  C   UNL     1      -3.319  12.408  22.317  0.00  0.00    +0.000 A 
ATOM     28  C   UNL     1      -3.331  12.643  23.695  0.00  0.00    +0.000 A 
ATOM     29  C   UNL     1      -4.517  12.943  24.384  0.00  0.00    +0.000 A 
ATOM     30  C   UNL     1      -5.697  13.096  23.673  0.00  0.00    +0.000 A 
ATOM     31  F   UNL     1      -6.833  13.378  24.338  0.00  0.00    +0.000 F 
ATOM     32  C   UNL     1      -5.717  12.969  22.295  0.00  0.00    +0.000 A 
ATOM     33  C   UNL     1      -4.532  12.632  21.629  0.00  0.00    +0.000 A 
ENDBRANCH  26  27
ENDBRANCH   2  24
BRANCH   1  34
ATOM     34  O   UNL     1      -1.620  10.038  19.730  0.00  0.00    +0.000 OA
ATOM     35  H   UNL     1      -2.299  10.663  20.065  0.00  0.00    +0.000 HD
ENDBRANCH   1  34
TORSDOF 7
ENDMDL
MODEL 8
REMARK VINA RESULT:      -6.6      1.944      1.997
REMARK  Name = 
REMARK  9 active torsions:
REMARK  status: ('A' for Active; 'I' for Inactive)
REMARK    1  A    between atoms: C_1  and  C_2
REMARK    2  A    between atoms: C_4  and  C_5
REMARK    3  A    between atoms: C_5  and  O_6
REMARK    4  A    between atoms: C_7  and  C_8
REMARK    5  A    between atoms: C_7  and  N_18
REMARK    6  A    between atoms: N_10  and  C_11
REMARK    7  A    between atoms: C_24  and  C_25
REMARK    8  A    between atoms: N_26  and  C_27
REMARK    9  A    between atoms: C_27  and  C_28
REMARK                            x       y       z     vdW  Elec       q    Type
REMARK                         _______ _______ _______ _____ _____    ______ ____
ROOT
ATOM      1  C   UNL     1       1.272   9.527  18.404  0.00  0.00    +0.000 C 
ATOM      2  C   UNL     1       1.487   8.560  19.348  0.00  0.00    +0.000 C 
ENDROOT
BRANCH   1   6
ATOM      3  C   UNL     1       1.766  14.236  19.969  0.00  0.00    +0.000 C 
ATOM      4  C   UNL     1       1.184  12.991  19.402  0.00  0.00    +0.000 A 
ATOM      5  C   UNL     1       1.861  11.933  18.830  0.00  0.00    +0.000 A 
ATOM      6  C   UNL     1       0.932  10.882  18.692  0.00  0.00    +0.000 A 
ATOM      7  C   UNL     1      -0.333  11.380  18.935  0.00  0.00    +0.000 A 
ATOM      8  C   UNL     1      -1.660  10.701  18.868  0.00  0.00    +0.000 C 
ATOM      9  N   UNL     1      -0.168  12.696  19.339  0.00  0.00    +0.000 N 
BRANCH   9  10
ATOM     10  C   UNL     1      -1.266  13.614  19.660  0.00  0.00    +0.000 C 
BRANCH  10  11
ATOM     11  C   UNL     1      -1.867  13.402  21.033  0.00  0.00    +0.000 A 
ATOM     12  C   UNL     1      -1.109  13.509  22.214  0.00  0.00    +0.000 A 
ATOM     13  C   UNL     1      -1.663  13.213  23.459  0.00  0.00    +0.000 A 
ATOM     14  C   UNL     1      -2.992  12.818  23.555  0.00  0.00    +0.000 A 
ATOM     15  C   UNL     1      -3.777  12.754  22.406  0.00  0.00    +0.000 A 
ATOM     16  C   UNL     1      -3.222  13.050  21.157  0.00  0.00    +0.000 A 
ATOM     17 CL   UNL     1      -4.265  12.963  19.778  0.00  0.00    +0.000 Cl
ENDBRANCH  10  11
ENDBRANCH   9  10
ENDBRANCH   1   6
BRANCH   2  18
ATOM     18  N   UNL     1       1.070   8.741  20.712  0.00  0.00    +0.000 N 
ATOM     19  C   UNL     1      -0.199   8.455  21.109  0.00  0.00    +0.000 A 
ATOM     20  C   UNL     1      -0.672   8.755  22.378  0.00  0.00    +0.000 A 
ATOM     21  C   UNL     1       0.208   9.246  23.321  0.00  0.00    +0.000 A 
ATOM     22  C   UNL     1       1.538   9.418  22.965  0.00  0.00    +0.000 A 
ATOM     23  C   UNL     1       1.951   9.173  21.652  0.00  0.00    +0.000 A 
ENDBRANCH   2  18
BRANCH   2  24
ATOM     24  C   UNL     1       2.285   7.298  18.945  0.00  0.00    +0.000 C 
ATOM     25  S   UNL     1       3.768   7.466  18.043  0.00  0.00    +0.000 SA
ATOM     26  N   UNL     1       1.853   6.152  19.414  0.00  0.00    +0.000 NA
BRANCH  26  27
ATOM     27  C   UNL     1       2.346   4.833  19.240  0.00  0.00    +0.000 A 
ATOM     28  C   UNL     1       3.110   4.099  20.152  0.00  0.00    +0.000 A 
ATOM     29  C   UNL     1       3.583   2.811  19.853  0.00  0.00    +0.000 A 
ATOM     30  C   UNL     1       3.217   2.212  18.657  0.00  0.00    +0.000 A 
ATOM     31  F   UNL     1       3.677   0.980  18.372  0.00  0.00    +0.000 F 
ATOM     32  C   UNL     1       2.383   2.862  17.764  0.00  0.00    +0.000 A 
ATOM     33  C   UNL     1       1.951   4.160  18.063  0.00  0.00    +0.000 A 
ENDBRANCH  26  27
ENDBRANCH   2  24
BRANCH   1  34
ATOM     34  O   UNL     1       1.410   9.364  17.040  0.00  0.00    +0.000 OA
ATOM     35  H   UNL     1       2.188   8.780  16.911  0.00  0.00    +0.000 HD
ENDBRANCH   1  34
TORSDOF 7
ENDMDL
MODEL 9
REMARK VINA RESULT:      -6.5      1.106      1.404
REMARK  Name = 
REMARK  9 active torsions:
REMARK  status: ('A' for Active; 'I' for Inactive)
REMARK    1  A    between atoms: C_1  and  C_2
REMARK    2  A    between atoms: C_4  and  C_5
REMARK    3  A    between atoms: C_5  and  O_6
REMARK    4  A    between atoms: C_7  and  C_8
REMARK    5  A    between atoms: C_7  and  N_18
REMARK    6  A    between atoms: N_10  and  C_11
REMARK    7  A    between atoms: C_24  and  C_25
REMARK    8  A    between atoms: N_26  and  C_27
REMARK    9  A    between atoms: C_27  and  C_28
REMARK                            x       y       z     vdW  Elec       q    Type
REMARK                         _______ _______ _______ _____ _____    ______ ____
ROOT
ATOM      1  C   UNL     1       1.364   9.530  18.529  0.00  0.00    +0.000 C 
ATOM      2  C   UNL     1       1.503   8.592  19.516  0.00  0.00    +0.000 C 
ENDROOT
BRANCH   1   6
ATOM      3  C   UNL     1       1.872  14.277  19.969  0.00  0.00    +0.000 C 
ATOM      4  C   UNL     1       1.297  13.026  19.407  0.00  0.00    +0.000 A 
ATOM      5  C   UNL     1       1.982  11.936  18.913  0.00  0.00    +0.000 A 
ATOM      6  C   UNL     1       1.040  10.901  18.752  0.00  0.00    +0.000 A 
ATOM      7  C   UNL     1      -0.226  11.434  18.899  0.00  0.00    +0.000 A 
ATOM      8  C   UNL     1      -1.563  10.781  18.771  0.00  0.00    +0.000 C 
ATOM      9  N   UNL     1      -0.056  12.759  19.270  0.00  0.00    +0.000 N 
BRANCH   9  10
ATOM     10  C   UNL     1      -1.149  13.710  19.492  0.00  0.00    +0.000 C 
BRANCH  10  11
ATOM     11  C   UNL     1      -2.162  13.258  20.521  0.00  0.00    +0.000 A 
ATOM     12  C   UNL     1      -3.506  12.994  20.194  0.00  0.00    +0.000 A 
ATOM     13  C   UNL     1      -4.442  12.674  21.177  0.00  0.00    +0.000 A 
ATOM     14  C   UNL     1      -4.054  12.594  22.509  0.00  0.00    +0.000 A 
ATOM     15  C   UNL     1      -2.720  12.800  22.853  0.00  0.00    +0.000 A 
ATOM     16  C   UNL     1      -1.780  13.122  21.867  0.00  0.00    +0.000 A 
ATOM     17 CL   UNL     1      -0.140  13.348  22.370  0.00  0.00    +0.000 Cl
ENDBRANCH  10  11
ENDBRANCH   9  10
ENDBRANCH   1   6
BRANCH   2  18
ATOM     18  N   UNL     1       1.011   8.828  20.847  0.00  0.00    +0.000 N 
ATOM     19  C   UNL     1      -0.291   8.607  21.171  0.00  0.00    +0.000 A 
ATOM     20  C   UNL     1      -0.827   8.963  22.401  0.00  0.00    +0.000 A 
ATOM     21  C   UNL     1       0.015   9.442  23.383  0.00  0.00    +0.000 A 
ATOM     22  C   UNL     1       1.370   9.548  23.106  0.00  0.00    +0.000 A 
ATOM     23  C   UNL     1       1.851   9.249  21.828  0.00  0.00    +0.000 A 
ENDBRANCH   2  18
BRANCH   2  24
ATOM     24  C   UNL     1       2.294   7.300  19.204  0.00  0.00    +0.000 C 
ATOM     25  S   UNL     1       2.125   5.911  20.244  0.00  0.00    +0.000 SA
ATOM     26  N   UNL     1       2.976   7.283  18.084  0.00  0.00    +0.000 NA
BRANCH  26  27
ATOM     27  C   UNL     1       3.791   6.273  17.510  0.00  0.00    +0.000 A 
ATOM     28  C   UNL     1       3.523   4.902  17.471  0.00  0.00    +0.000 A 
ATOM     29  C   UNL     1       4.429   3.986  16.913  0.00  0.00    +0.000 A 
ATOM     30  C   UNL     1       5.584   4.456  16.306  0.00  0.00    +0.000 A 
ATOM     31  F   UNL     1       6.453   3.573  15.776  0.00  0.00    +0.000 F 
ATOM     32  C   UNL     1       5.847   5.812  16.233  0.00  0.00    +0.000 A 
ATOM     33  C   UNL     1       4.949   6.708  16.829  0.00  0.00    +0.000 A 
ENDBRANCH  26  27
ENDBRANCH   2  24
BRANCH   1  34
ATOM     34  O   UNL     1       1.578   9.317  17.182  0.00  0.00    +0.000 OA
ATOM     35  H   UNL     1       0.765   9.618  16.724  0.00  0.00    +0.000 HD
ENDBRANCH   1  34
TORSDOF 7
ENDMDL
