MODEL 1
REMARK VINA RESULT:      -7.4      0.000      0.000
REMARK  Name = 
REMARK  8 active torsions:
REMARK  status: ('A' for Active; 'I' for Inactive)
REMARK    1  A    between atoms: C_1  and  O_2
REMARK    2  A    between atoms: O_2  and  C_3
REMARK    3  A    between atoms: N_7  and  C_8
REMARK    4  A    between atoms: C_8  and  C_9
REMARK    5  A    between atoms: C_11  and  C_12
REMARK    6  A    between atoms: N_14  and  C_15
REMARK    7  A    between atoms: C_16  and  C_17
REMARK    8  A    between atoms: C_17  and  C_18
REMARK                            x       y       z     vdW  Elec       q    Type
REMARK                         _______ _______ _______ _____ _____    ______ ____
ROOT
ATOM      1  C   UNL     1       7.456   5.611  18.294  0.00  0.00    +0.000 C 
ATOM      2  C   UNL     1       6.403   5.073  19.284  0.00  0.00    +0.000 C 
ATOM      3  C   UNL     1       5.056   5.206  18.569  0.00  0.00    +0.000 C 
ATOM      4  C   UNL     1       3.963   5.901  19.368  0.00  0.00    +0.000 C 
ATOM      5  N   UNL     1       2.770   6.156  18.534  0.00  0.00    +0.000 NA
ATOM      6  C   UNL     1       3.115   7.072  17.397  0.00  0.00    +0.000 C 
ATOM      7  C   UNL     1       4.467   6.744  16.694  0.00  0.00    +0.000 C 
ATOM      8  O   UNL     1       4.759   7.277  15.620  0.00  0.00    +0.000 OA
ATOM      9  N   UNL     1       5.344   5.903  17.338  0.00  0.00    +0.000 N 
ATOM     10  C   UNL     1       6.719   5.677  16.946  0.00  0.00    +0.000 C 
ENDROOT
BRANCH   1  12
ATOM     11  C   UNL     1       7.867   7.845  17.534  0.00  0.00    +0.000 C 
ATOM     12  O   UNL     1       7.881   6.935  18.624  0.00  0.00    +0.000 OA
ENDBRANCH   1  12
BRANCH   5  13
ATOM     13  C   UNL     1       2.109   4.939  18.029  0.00  0.00    +0.000 C 
BRANCH  13  14
ATOM     14  C   UNL     1       1.916   3.917  19.100  0.00  0.00    +0.000 A 
ATOM     15  C   UNL     1       1.254   3.990  20.310  0.00  0.00    +0.000 A 
ATOM     16  C   UNL     1       1.487   2.756  20.944  0.00  0.00    +0.000 A 
ATOM     17  C   UNL     1       1.071   2.345  22.305  0.00  0.00    +0.000 C 
ATOM     18  N   UNL     1       2.180   1.924  20.158  0.00  0.00    +0.000 NA
ATOM     19  N   UNL     1       2.378   2.627  19.027  0.00  0.00    +0.000 N 
ATOM     20  C   UNL     1       3.023   1.981  17.906  0.00  0.00    +0.000 C 
ENDBRANCH  13  14
ENDBRANCH   5  13
BRANCH   6  21
ATOM     21  C   UNL     1       3.118   8.556  17.838  0.00  0.00    +0.000 C 
BRANCH  21  22
ATOM     22  C   UNL     1       1.821   9.017  18.477  0.00  0.00    +0.000 A 
ATOM     23  C   UNL     1       0.813   9.611  17.707  0.00  0.00    +0.000 A 
ATOM     24  C   UNL     1      -0.378  10.040  18.296  0.00  0.00    +0.000 A 
ATOM     25  C   UNL     1      -0.577   9.880  19.667  0.00  0.00    +0.000 A 
ATOM     26  C   UNL     1       0.416   9.292  20.447  0.00  0.00    +0.000 A 
ATOM     27  C   UNL     1       1.611   8.866  19.854  0.00  0.00    +0.000 A 
ENDBRANCH  21  22
ENDBRANCH   6  21
TORSDOF 5
ENDMDL
MODEL 2
REMARK VINA RESULT:      -7.2      2.411      5.219
REMARK  Name = 
REMARK  8 active torsions:
REMARK  status: ('A' for Active; 'I' for Inactive)
REMARK    1  A    between atoms: C_1  and  O_2
REMARK    2  A    between atoms: O_2  and  C_3
REMARK    3  A    between atoms: N_7  and  C_8
REMARK    4  A    between atoms: C_8  and  C_9
REMARK    5  A    between atoms: C_11  and  C_12
REMARK    6  A    between atoms: N_14  and  C_15
REMARK    7  A    between atoms: C_16  and  C_17
REMARK    8  A    between atoms: C_17  and  C_18
REMARK                            x       y       z     vdW  Elec       q    Type
REMARK                         _______ _______ _______ _____ _____    ______ ____
ROOT
ATOM      1  C   UNL     1       2.088   3.243  20.418  0.00  0.00    +0.000 C 
ATOM      2  C   UNL     1       2.896   3.124  19.110  0.00  0.00    +0.000 C 
ATOM      3  C   UNL     1       3.495   4.512  18.866  0.00  0.00    +0.000 C 
ATOM      4  C   UNL     1       3.266   5.081  17.474  0.00  0.00    +0.000 C 
ATOM      5  N   UNL     1       3.704   6.490  17.392  0.00  0.00    +0.000 NA
ATOM      6  C   UNL     1       2.905   7.340  18.337  0.00  0.00    +0.000 C 
ATOM      7  C   UNL     1       2.680   6.703  19.741  0.00  0.00    +0.000 C 
ATOM      8  O   UNL     1       2.233   7.380  20.671  0.00  0.00    +0.000 OA
ATOM      9  N   UNL     1       2.928   5.358  19.890  0.00  0.00    +0.000 N 
ATOM     10  C   UNL     1       2.559   4.566  21.043  0.00  0.00    +0.000 C 
ENDROOT
BRANCH   1  12
ATOM     11  C   UNL     1       0.263   2.848  18.917  0.00  0.00    +0.000 C 
ATOM     12  O   UNL     1       0.683   3.350  20.176  0.00  0.00    +0.000 OA
ENDBRANCH   1  12
BRANCH   5  13
ATOM     13  C   UNL     1       5.147   6.694  17.616  0.00  0.00    +0.000 C 
BRANCH  13  14
ATOM     14  C   UNL     1       5.980   5.949  16.626  0.00  0.00    +0.000 A 
ATOM     15  C   UNL     1       5.871   5.841  15.252  0.00  0.00    +0.000 A 
ATOM     16  C   UNL     1       6.871   4.932  14.864  0.00  0.00    +0.000 A 
ATOM     17  C   UNL     1       7.132   4.398  13.507  0.00  0.00    +0.000 C 
ATOM     18  N   UNL     1       7.619   4.549  15.906  0.00  0.00    +0.000 NA
ATOM     19  N   UNL     1       7.097   5.222  16.950  0.00  0.00    +0.000 N 
ATOM     20  C   UNL     1       7.738   5.116  18.241  0.00  0.00    +0.000 C 
ENDBRANCH  13  14
ENDBRANCH   5  13
BRANCH   6  21
ATOM     21  C   UNL     1       1.535   7.736  17.733  0.00  0.00    +0.000 C 
BRANCH  21  22
ATOM     22  C   UNL     1       1.114   9.163  18.032  0.00  0.00    +0.000 A 
ATOM     23  C   UNL     1      -0.240   9.505  18.136  0.00  0.00    +0.000 A 
ATOM     24  C   UNL     1      -0.627  10.819  18.405  0.00  0.00    +0.000 A 
ATOM     25  C   UNL     1       0.338  11.811  18.576  0.00  0.00    +0.000 A 
ATOM     26  C   UNL     1       1.689  11.488  18.474  0.00  0.00    +0.000 A 
ATOM     27  C   UNL     1       2.074  10.170  18.199  0.00  0.00    +0.000 A 
ENDBRANCH  21  22
ENDBRANCH   6  21
TORSDOF 5
ENDMDL
MODEL 3
REMARK VINA RESULT:      -6.9      2.460      5.269
REMARK  Name = 
REMARK  8 active torsions:
REMARK  status: ('A' for Active; 'I' for Inactive)
REMARK    1  A    between atoms: C_1  and  O_2
REMARK    2  A    between atoms: O_2  and  C_3
REMARK    3  A    between atoms: N_7  and  C_8
REMARK    4  A    between atoms: C_8  and  C_9
REMARK    5  A    between atoms: C_11  and  C_12
REMARK    6  A    between atoms: N_14  and  C_15
REMARK    7  A    between atoms: C_16  and  C_17
REMARK    8  A    between atoms: C_17  and  C_18
REMARK                            x       y       z     vdW  Elec       q    Type
REMARK                         _______ _______ _______ _____ _____    ______ ____
ROOT
ATOM      1  C   UNL     1       2.416   1.947  19.089  0.00  0.00    +0.000 C 
ATOM      2  C   UNL     1       3.167   2.383  17.815  0.00  0.00    +0.000 C 
ATOM      3  C   UNL     1       3.741   3.768  18.128  0.00  0.00    +0.000 C 
ATOM      4  C   UNL     1       3.446   4.842  17.091  0.00  0.00    +0.000 C 
ATOM      5  N   UNL     1       3.866   6.176  17.567  0.00  0.00    +0.000 NA
ATOM      6  C   UNL     1       3.102   6.554  18.801  0.00  0.00    +0.000 C 
ATOM      7  C   UNL     1       2.945   5.402  19.838  0.00  0.00    +0.000 C 
ATOM      8  O   UNL     1       2.533   5.637  20.977  0.00  0.00    +0.000 OA
ATOM      9  N   UNL     1       3.211   4.117  19.425  0.00  0.00    +0.000 N 
ATOM     10  C   UNL     1       2.901   2.920  20.176  0.00  0.00    +0.000 C 
ENDROOT
BRANCH   1  12
ATOM     11  C   UNL     1       0.406   2.905  19.973  0.00  0.00    +0.000 C 
ATOM     12  O   UNL     1       1.000   2.105  18.962  0.00  0.00    +0.000 OA
ENDBRANCH   1  12
BRANCH   5  13
ATOM     13  C   UNL     1       5.316   6.311  17.801  0.00  0.00    +0.000 C 
BRANCH  13  14
ATOM     14  C   UNL     1       6.122   5.722  16.691  0.00  0.00    +0.000 A 
ATOM     15  C   UNL     1       5.980   5.822  15.319  0.00  0.00    +0.000 A 
ATOM     16  C   UNL     1       6.967   4.980  14.775  0.00  0.00    +0.000 A 
ATOM     17  C   UNL     1       7.193   4.655  13.348  0.00  0.00    +0.000 C 
ATOM     18  N   UNL     1       7.737   4.444  15.730  0.00  0.00    +0.000 NA
ATOM     19  N   UNL     1       7.243   4.953  16.875  0.00  0.00    +0.000 N 
ATOM     20  C   UNL     1       7.914   4.654  18.119  0.00  0.00    +0.000 C 
ENDBRANCH  13  14
ENDBRANCH   5  13
BRANCH   6  21
ATOM     21  C   UNL     1       1.703   7.122  18.457  0.00  0.00    +0.000 C 
BRANCH  21  22
ATOM     22  C   UNL     1       1.480   8.549  18.927  0.00  0.00    +0.000 A 
ATOM     23  C   UNL     1       1.709   9.631  18.068  0.00  0.00    +0.000 A 
ATOM     24  C   UNL     1       1.509  10.943  18.502  0.00  0.00    +0.000 A 
ATOM     25  C   UNL     1       1.075  11.190  19.804  0.00  0.00    +0.000 A 
ATOM     26  C   UNL     1       0.844  10.125  20.671  0.00  0.00    +0.000 A 
ATOM     27  C   UNL     1       1.049   8.810  20.235  0.00  0.00    +0.000 A 
ENDBRANCH  21  22
ENDBRANCH   6  21
TORSDOF 5
ENDMDL
MODEL 4
REMARK VINA RESULT:      -6.6      2.525      6.558
REMARK  Name = 
REMARK  8 active torsions:
REMARK  status: ('A' for Active; 'I' for Inactive)
REMARK    1  A    between atoms: C_1  and  O_2
REMARK    2  A    between atoms: O_2  and  C_3
REMARK    3  A    between atoms: N_7  and  C_8
REMARK    4  A    between atoms: C_8  and  C_9
REMARK    5  A    between atoms: C_11  and  C_12
REMARK    6  A    between atoms: N_14  and  C_15
REMARK    7  A    between atoms: C_16  and  C_17
REMARK    8  A    between atoms: C_17  and  C_18
REMARK                            x       y       z     vdW  Elec       q    Type
REMARK                         _______ _______ _______ _____ _____    ______ ____
ROOT
ATOM      1  C   UNL     1       2.115   2.807  20.774  0.00  0.00    +0.000 C 
ATOM      2  C   UNL     1       1.876   4.216  21.351  0.00  0.00    +0.000 C 
ATOM      3  C   UNL     1       1.849   5.158  20.144  0.00  0.00    +0.000 C 
ATOM      4  C   UNL     1       2.751   6.379  20.255  0.00  0.00    +0.000 C 
ATOM      5  N   UNL     1       2.808   7.119  18.977  0.00  0.00    +0.000 NA
ATOM      6  C   UNL     1       3.391   6.255  17.899  0.00  0.00    +0.000 C 
ATOM      7  C   UNL     1       2.862   4.788  17.894  0.00  0.00    +0.000 C 
ATOM      8  O   UNL     1       3.092   4.043  16.938  0.00  0.00    +0.000 OA
ATOM      9  N   UNL     1       2.198   4.336  19.010  0.00  0.00    +0.000 N 
ATOM     10  C   UNL     1       1.846   2.956  19.267  0.00  0.00    +0.000 C 
ENDROOT
BRANCH   1  12
ATOM     11  C   UNL     1       4.079   1.897  19.747  0.00  0.00    +0.000 C 
ATOM     12  O   UNL     1       3.471   2.380  20.935  0.00  0.00    +0.000 OA
ENDBRANCH   1  12
BRANCH   5  13
ATOM     13  C   UNL     1       1.517   7.682  18.541  0.00  0.00    +0.000 C 
BRANCH  13  14
ATOM     14  C   UNL     1       1.445   9.158  18.753  0.00  0.00    +0.000 A 
ATOM     15  C   UNL     1       1.867  10.206  17.957  0.00  0.00    +0.000 A 
ATOM     16  C   UNL     1       1.630  11.371  18.711  0.00  0.00    +0.000 A 
ATOM     17  C   UNL     1       1.982  12.765  18.356  0.00  0.00    +0.000 C 
ATOM     18  N   UNL     1       1.024  11.091  19.871  0.00  0.00    +0.000 NA
ATOM     19  N   UNL     1       0.871   9.753  19.848  0.00  0.00    +0.000 N 
ATOM     20  C   UNL     1       0.151   9.113  20.925  0.00  0.00    +0.000 C 
ENDBRANCH  13  14
ENDBRANCH   5  13
BRANCH   6  21
ATOM     21  C   UNL     1       4.938   6.236  17.952  0.00  0.00    +0.000 C 
BRANCH  21  22
ATOM     22  C   UNL     1       5.594   5.601  16.739  0.00  0.00    +0.000 A 
ATOM     23  C   UNL     1       5.260   6.016  15.444  0.00  0.00    +0.000 A 
ATOM     24  C   UNL     1       5.860   5.427  14.328  0.00  0.00    +0.000 A 
ATOM     25  C   UNL     1       6.804   4.414  14.494  0.00  0.00    +0.000 A 
ATOM     26  C   UNL     1       7.145   3.989  15.776  0.00  0.00    +0.000 A 
ATOM     27  C   UNL     1       6.540   4.578  16.893  0.00  0.00    +0.000 A 
ENDBRANCH  21  22
ENDBRANCH   6  21
TORSDOF 5
ENDMDL
MODEL 5
REMARK VINA RESULT:      -6.6      2.824      6.154
REMARK  Name = 
REMARK  8 active torsions:
REMARK  status: ('A' for Active; 'I' for Inactive)
REMARK    1  A    between atoms: C_1  and  O_2
REMARK    2  A    between atoms: O_2  and  C_3
REMARK    3  A    between atoms: N_7  and  C_8
REMARK    4  A    between atoms: C_8  and  C_9
REMARK    5  A    between atoms: C_11  and  C_12
REMARK    6  A    between atoms: N_14  and  C_15
REMARK    7  A    between atoms: C_16  and  C_17
REMARK    8  A    between atoms: C_17  and  C_18
REMARK                            x       y       z     vdW  Elec       q    Type
REMARK                         _______ _______ _______ _____ _____    ______ ____
ROOT
ATOM      1  C   UNL     1       0.973   2.381  19.136  0.00  0.00    +0.000 C 
ATOM      2  C   UNL     1       1.193   3.000  17.742  0.00  0.00    +0.000 C 
ATOM      3  C   UNL     1       2.709   2.998  17.522  0.00  0.00    +0.000 C 
ATOM      4  C   UNL     1       3.302   4.328  17.083  0.00  0.00    +0.000 C 
ATOM      5  N   UNL     1       4.779   4.283  17.085  0.00  0.00    +0.000 NA
ATOM      6  C   UNL     1       5.290   4.025  18.472  0.00  0.00    +0.000 C 
ATOM      7  C   UNL     1       4.503   2.931  19.255  0.00  0.00    +0.000 C 
ATOM      8  O   UNL     1       4.949   2.474  20.311  0.00  0.00    +0.000 OA
ATOM      9  N   UNL     1       3.275   2.546  18.771  0.00  0.00    +0.000 N 
ATOM     10  C   UNL     1       2.320   1.725  19.483  0.00  0.00    +0.000 C 
ENDROOT
BRANCH   1  12
ATOM     11  C   UNL     1       1.309   3.123  21.389  0.00  0.00    +0.000 C 
ATOM     12  O   UNL     1       0.701   3.371  20.131  0.00  0.00    +0.000 OA
ENDBRANCH   1  12
BRANCH   5  13
ATOM     13  C   UNL     1       5.361   3.315  16.138  0.00  0.00    +0.000 C 
BRANCH  13  14
ATOM     14  C   UNL     1       6.099   3.987  15.028  0.00  0.00    +0.000 A 
ATOM     15  C   UNL     1       6.041   3.800  13.660  0.00  0.00    +0.000 A 
ATOM     16  C   UNL     1       7.030   4.643  13.121  0.00  0.00    +0.000 A 
ATOM     17  C   UNL     1       7.444   4.761  11.704  0.00  0.00    +0.000 C 
ATOM     18  N   UNL     1       7.622   5.376  14.071  0.00  0.00    +0.000 NA
ATOM     19  N   UNL     1       7.002   5.004  15.208  0.00  0.00    +0.000 N 
ATOM     20  C   UNL     1       7.334   5.684  16.440  0.00  0.00    +0.000 C 
ENDBRANCH  13  14
ENDBRANCH   5  13
BRANCH   6  21
ATOM     21  C   UNL     1       5.333   5.322  19.317  0.00  0.00    +0.000 C 
BRANCH  21  22
ATOM     22  C   UNL     1       4.150   6.248  19.096  0.00  0.00    +0.000 A 
ATOM     23  C   UNL     1       4.145   7.164  18.038  0.00  0.00    +0.000 A 
ATOM     24  C   UNL     1       3.058   8.019  17.837  0.00  0.00    +0.000 A 
ATOM     25  C   UNL     1       1.960   7.967  18.695  0.00  0.00    +0.000 A 
ATOM     26  C   UNL     1       1.951   7.061  19.754  0.00  0.00    +0.000 A 
ATOM     27  C   UNL     1       3.043   6.208  19.955  0.00  0.00    +0.000 A 
ENDBRANCH  21  22
ENDBRANCH   6  21
TORSDOF 5
ENDMDL
MODEL 6
REMARK VINA RESULT:      -6.5      4.414      8.232
REMARK  Name = 
REMARK  8 active torsions:
REMARK  status: ('A' for Active; 'I' for Inactive)
REMARK    1  A    between atoms: C_1  and  O_2
REMARK    2  A    between atoms: O_2  and  C_3
REMARK    3  A    between atoms: N_7  and  C_8
REMARK    4  A    between atoms: C_8  and  C_9
REMARK    5  A    between atoms: C_11  and  C_12
REMARK    6  A    between atoms: N_14  and  C_15
REMARK    7  A    between atoms: C_16  and  C_17
REMARK    8  A    between atoms: C_17  and  C_18
REMARK                            x       y       z     vdW  Elec       q    Type
REMARK                         _______ _______ _______ _____ _____    ______ ____
ROOT
ATOM      1  C   UNL     1       0.295  13.151  21.649  0.00  0.00    +0.000 C 
ATOM      2  C   UNL     1      -0.505  13.351  20.347  0.00  0.00    +0.000 C 
ATOM      3  C   UNL     1      -0.775  11.943  19.806  0.00  0.00    +0.000 C 
ATOM      4  C   UNL     1      -0.409  11.729  18.345  0.00  0.00    +0.000 C 
ATOM      5  N   UNL     1      -0.519  10.305  17.968  0.00  0.00    +0.000 NA
ATOM      6  C   UNL     1       0.440   9.478  18.773  0.00  0.00    +0.000 C 
ATOM      7  C   UNL     1       0.502   9.853  20.284  0.00  0.00    +0.000 C 
ATOM      8  O   UNL     1       1.080   9.117  21.089  0.00  0.00    +0.000 OA
ATOM      9  N   UNL     1      -0.042  11.054  20.677  0.00  0.00    +0.000 N 
ATOM     10  C   UNL     1       0.127  11.658  21.980  0.00  0.00    +0.000 C 
ENDROOT
BRANCH   1  12
ATOM     11  C   UNL     1       1.993  14.685  20.938  0.00  0.00    +0.000 C 
ATOM     12  O   UNL     1       1.691  13.403  21.469  0.00  0.00    +0.000 OA
ENDBRANCH   1  12
BRANCH   5  13
ATOM     13  C   UNL     1      -1.882   9.751  18.069  0.00  0.00    +0.000 C 
BRANCH  13  14
ATOM     14  C   UNL     1      -2.688  10.013  16.840  0.00  0.00    +0.000 A 
ATOM     15  C   UNL     1      -2.605   9.469  15.572  0.00  0.00    +0.000 A 
ATOM     16  C   UNL     1      -3.553  10.165  14.800  0.00  0.00    +0.000 A 
ATOM     17  C   UNL     1      -3.810  10.032  13.347  0.00  0.00    +0.000 C 
ATOM     18  N   UNL     1      -4.247  11.036  15.542  0.00  0.00    +0.000 NA
ATOM     19  N   UNL     1      -3.746  10.884  16.783  0.00  0.00    +0.000 N 
ATOM     20  C   UNL     1      -4.347  11.617  17.874  0.00  0.00    +0.000 C 
ENDBRANCH  13  14
ENDBRANCH   5  13
BRANCH   6  21
ATOM     21  C   UNL     1       1.870   9.519  18.180  0.00  0.00    +0.000 C 
BRANCH  21  22
ATOM     22  C   UNL     1       2.499   8.152  17.979  0.00  0.00    +0.000 A 
ATOM     23  C   UNL     1       1.814   6.987  18.346  0.00  0.00    +0.000 A 
ATOM     24  C   UNL     1       2.395   5.730  18.165  0.00  0.00    +0.000 A 
ATOM     25  C   UNL     1       3.671   5.622  17.613  0.00  0.00    +0.000 A 
ATOM     26  C   UNL     1       4.366   6.772  17.245  0.00  0.00    +0.000 A 
ATOM     27  C   UNL     1       3.783   8.032  17.431  0.00  0.00    +0.000 A 
ENDBRANCH  21  22
ENDBRANCH   6  21
TORSDOF 5
ENDMDL
MODEL 7
REMARK VINA RESULT:      -6.5      2.072      5.436
REMARK  Name = 
REMARK  8 active torsions:
REMARK  status: ('A' for Active; 'I' for Inactive)
REMARK    1  A    between atoms: C_1  and  O_2
REMARK    2  A    between atoms: O_2  and  C_3
REMARK    3  A    between atoms: N_7  and  C_8
REMARK    4  A    between atoms: C_8  and  C_9
REMARK    5  A    between atoms: C_11  and  C_12
REMARK    6  A    between atoms: N_14  and  C_15
REMARK    7  A    between atoms: C_16  and  C_17
REMARK    8  A    between atoms: C_17  and  C_18
REMARK                            x       y       z     vdW  Elec       q    Type
REMARK                         _______ _______ _______ _____ _____    ______ ____
ROOT
ATOM      1  C   UNL     1       6.648   4.975  14.315  0.00  0.00    +0.000 C 
ATOM      2  C   UNL     1       5.310   5.702  14.553  0.00  0.00    +0.000 C 
ATOM      3  C   UNL     1       5.228   5.936  16.064  0.00  0.00    +0.000 C 
ATOM      4  C   UNL     1       3.930   5.488  16.720  0.00  0.00    +0.000 C 
ATOM      5  N   UNL     1       4.017   5.571  18.192  0.00  0.00    +0.000 NA
ATOM      6  C   UNL     1       5.090   4.655  18.703  0.00  0.00    +0.000 C 
ATOM      7  C   UNL     1       6.407   4.680  17.870  0.00  0.00    +0.000 C 
ATOM      8  O   UNL     1       7.431   4.145  18.302  0.00  0.00    +0.000 OA
ATOM      9  N   UNL     1       6.372   5.250  16.619  0.00  0.00    +0.000 N 
ATOM     10  C   UNL     1       7.424   5.156  15.631  0.00  0.00    +0.000 C 
ENDROOT
BRANCH   1  12
ATOM     11  C   UNL     1       6.155   3.217  12.765  0.00  0.00    +0.000 C 
ATOM     12  O   UNL     1       6.471   3.572  14.103  0.00  0.00    +0.000 OA
ENDBRANCH   1  12
BRANCH   5  13
ATOM     13  C   UNL     1       4.217   6.935  18.715  0.00  0.00    +0.000 C 
BRANCH  13  14
ATOM     14  C   UNL     1       2.939   7.705  18.781  0.00  0.00    +0.000 A 
ATOM     15  C   UNL     1       2.429   8.682  17.948  0.00  0.00    +0.000 A 
ATOM     16  C   UNL     1       1.237   9.114  18.559  0.00  0.00    +0.000 A 
ATOM     17  C   UNL     1       0.342  10.211  18.121  0.00  0.00    +0.000 C 
ATOM     18  N   UNL     1       0.965   8.406  19.661  0.00  0.00    +0.000 NA
ATOM     19  N   UNL     1       1.978   7.522  19.743  0.00  0.00    +0.000 N 
ATOM     20  C   UNL     1       1.947   6.518  20.782  0.00  0.00    +0.000 C 
ENDBRANCH  13  14
ENDBRANCH   5  13
BRANCH   6  21
ATOM     21  C   UNL     1       4.590   3.195  18.820  0.00  0.00    +0.000 C 
BRANCH  21  22
ATOM     22  C   UNL     1       3.268   3.048  19.551  0.00  0.00    +0.000 A 
ATOM     23  C   UNL     1       3.228   2.943  20.947  0.00  0.00    +0.000 A 
ATOM     24  C   UNL     1       2.012   2.803  21.620  0.00  0.00    +0.000 A 
ATOM     25  C   UNL     1       0.817   2.765  20.902  0.00  0.00    +0.000 A 
ATOM     26  C   UNL     1       0.840   2.866  19.513  0.00  0.00    +0.000 A 
ATOM     27  C   UNL     1       2.060   3.003  18.841  0.00  0.00    +0.000 A 
ENDBRANCH  21  22
ENDBRANCH   6  21
TORSDOF 5
ENDMDL
MODEL 8
REMARK VINA RESULT:      -6.3      6.264     10.210
REMARK  Name = 
REMARK  8 active torsions:
REMARK  status: ('A' for Active; 'I' for Inactive)
REMARK    1  A    between atoms: C_1  and  O_2
REMARK    2  A    between atoms: O_2  and  C_3
REMARK    3  A    between atoms: N_7  and  C_8
REMARK    4  A    between atoms: C_8  and  C_9
REMARK    5  A    between atoms: C_11  and  C_12
REMARK    6  A    between atoms: N_14  and  C_15
REMARK    7  A    between atoms: C_16  and  C_17
REMARK    8  A    between atoms: C_17  and  C_18
REMARK                            x       y       z     vdW  Elec       q    Type
REMARK                         _______ _______ _______ _____ _____    ______ ____
ROOT
ATOM      1  C   UNL     1      -3.930  15.267  24.364  0.00  0.00    +0.000 C 
ATOM      2  C   UNL     1      -3.265  13.912  24.673  0.00  0.00    +0.000 C 
ATOM      3  C   UNL     1      -2.418  13.576  23.441  0.00  0.00    +0.000 C 
ATOM      4  C   UNL     1      -2.633  12.184  22.867  0.00  0.00    +0.000 C 
ATOM      5  N   UNL     1      -1.927  12.021  21.579  0.00  0.00    +0.000 NA
ATOM      6  C   UNL     1      -2.463  12.988  20.565  0.00  0.00    +0.000 C 
ATOM      7  C   UNL     1      -2.705  14.427  21.113  0.00  0.00    +0.000 C 
ATOM      8  O   UNL     1      -2.934  15.361  20.340  0.00  0.00    +0.000 OA
ATOM      9  N   UNL     1      -2.724  14.606  22.476  0.00  0.00    +0.000 N 
ATOM     10  C   UNL     1      -3.156  15.811  23.152  0.00  0.00    +0.000 C 
ENDROOT
BRANCH   1  12
ATOM     11  C   UNL     1      -5.933  16.333  23.593  0.00  0.00    +0.000 C 
ATOM     12  O   UNL     1      -5.299  15.122  23.977  0.00  0.00    +0.000 OA
ENDBRANCH   1  12
BRANCH   5  13
ATOM     13  C   UNL     1      -0.460  12.136  21.670  0.00  0.00    +0.000 C 
BRANCH  13  14
ATOM     14  C   UNL     1       0.237  11.126  20.819  0.00  0.00    +0.000 A 
ATOM     15  C   UNL     1       0.751  11.224  19.539  0.00  0.00    +0.000 A 
ATOM     16  C   UNL     1       1.203   9.931  19.215  0.00  0.00    +0.000 A 
ATOM     17  C   UNL     1       1.764   9.466  17.925  0.00  0.00    +0.000 C 
ATOM     18  N   UNL     1       1.062   9.089  20.245  0.00  0.00    +0.000 NA
ATOM     19  N   UNL     1       0.529   9.848  21.221  0.00  0.00    +0.000 N 
ATOM     20  C   UNL     1       0.333   9.267  22.530  0.00  0.00    +0.000 C 
ENDBRANCH  13  14
ENDBRANCH   5  13
BRANCH   6  21
ATOM     21  C   UNL     1      -3.767  12.468  19.910  0.00  0.00    +0.000 C 
BRANCH  21  22
ATOM     22  C   UNL     1      -3.549  11.692  18.624  0.00  0.00    +0.000 A 
ATOM     23  C   UNL     1      -4.479  11.761  17.579  0.00  0.00    +0.000 A 
ATOM     24  C   UNL     1      -4.281  11.042  16.398  0.00  0.00    +0.000 A 
ATOM     25  C   UNL     1      -3.148  10.243  16.247  0.00  0.00    +0.000 A 
ATOM     26  C   UNL     1      -2.215  10.163  17.278  0.00  0.00    +0.000 A 
ATOM     27  C   UNL     1      -2.417  10.881  18.463  0.00  0.00    +0.000 A 
ENDBRANCH  21  22
ENDBRANCH   6  21
TORSDOF 5
ENDMDL
MODEL 9
REMARK VINA RESULT:      -6.3      8.414     11.640
REMARK  Name = 
REMARK  8 active torsions:
REMARK  status: ('A' for Active; 'I' for Inactive)
REMARK    1  A    between atoms: C_1  and  O_2
REMARK    2  A    between atoms: O_2  and  C_3
REMARK    3  A    between atoms: N_7  and  C_8
REMARK    4  A    between atoms: C_8  and  C_9
REMARK    5  A    between atoms: C_11  and  C_12
REMARK    6  A    between atoms: N_14  and  C_15
REMARK    7  A    between atoms: C_16  and  C_17
REMARK    8  A    between atoms: C_17  and  C_18
REMARK                            x       y       z     vdW  Elec       q    Type
REMARK                         _______ _______ _______ _____ _____    ______ ____
ROOT
ATOM      1  C   UNL     1      -3.116  15.432  25.113  0.00  0.00    +0.000 C 
ATOM      2  C   UNL     1      -3.991  16.206  24.108  0.00  0.00    +0.000 C 
ATOM      3  C   UNL     1      -4.574  15.149  23.165  0.00  0.00    +0.000 C 
ATOM      4  C   UNL     1      -4.403  15.439  21.681  0.00  0.00    +0.000 C 
ATOM      5  N   UNL     1      -4.816  14.282  20.859  0.00  0.00    +0.000 NA
ATOM      6  C   UNL     1      -3.954  13.093  21.162  0.00  0.00    +0.000 C 
ATOM      7  C   UNL     1      -3.671  12.873  22.679  0.00  0.00    +0.000 C 
ATOM      8  O   UNL     1      -3.164  11.821  23.075  0.00  0.00    +0.000 OA
ATOM      9  N   UNL     1      -3.938  13.909  23.544  0.00  0.00    +0.000 N 
ATOM     10  C   UNL     1      -3.528  13.962  24.931  0.00  0.00    +0.000 C 
ENDROOT
BRANCH   1  12
ATOM     11  C   UNL     1      -1.349  16.753  24.180  0.00  0.00    +0.000 C 
ATOM     12  O   UNL     1      -1.723  15.536  24.808  0.00  0.00    +0.000 OA
ENDBRANCH   1  12
BRANCH   5  13
ATOM     13  C   UNL     1      -6.242  13.926  20.981  0.00  0.00    +0.000 C 
BRANCH  13  14
ATOM     14  C   UNL     1      -6.570  12.662  20.257  0.00  0.00    +0.000 A 
ATOM     15  C   UNL     1      -6.805  11.385  20.730  0.00  0.00    +0.000 A 
ATOM     16  C   UNL     1      -6.966  10.583  19.585  0.00  0.00    +0.000 A 
ATOM     17  C   UNL     1      -7.154   9.114  19.529  0.00  0.00    +0.000 C 
ATOM     18  N   UNL     1      -6.917  11.311  18.464  0.00  0.00    +0.000 NA
ATOM     19  N   UNL     1      -6.735  12.572  18.898  0.00  0.00    +0.000 N 
ATOM     20  C   UNL     1      -6.735  13.650  17.935  0.00  0.00    +0.000 C 
ENDBRANCH  13  14
ENDBRANCH   5  13
BRANCH   6  21
ATOM     21  C   UNL     1      -2.608  13.150  20.398  0.00  0.00    +0.000 C 
BRANCH  21  22
ATOM     22  C   UNL     1      -2.429  12.046  19.372  0.00  0.00    +0.000 A 
ATOM     23  C   UNL     1      -3.471  11.700  18.502  0.00  0.00    +0.000 A 
ATOM     24  C   UNL     1      -3.308  10.680  17.561  0.00  0.00    +0.000 A 
ATOM     25  C   UNL     1      -2.097   9.992  17.479  0.00  0.00    +0.000 A 
ATOM     26  C   UNL     1      -1.052  10.324  18.338  0.00  0.00    +0.000 A 
ATOM     27  C   UNL     1      -1.220  11.344  19.283  0.00  0.00    +0.000 A 
ENDBRANCH  21  22
ENDBRANCH   6  21
TORSDOF 5
ENDMDL
