MODEL 1
REMARK VINA RESULT:      -6.5      0.000      0.000
REMARK  Name = 
REMARK  1 active torsions:
REMARK  status: ('A' for Active; 'I' for Inactive)
REMARK    1  A    between atoms: C_3  and  C_4
REMARK                            x       y       z     vdW  Elec       q    Type
REMARK                         _______ _______ _______ _____ _____    ______ ____
ROOT
ATOM      1  C   UNL     1       3.360   4.742  17.703  0.00  0.00    +0.000 C 
ATOM      2  C   UNL     1       2.522   5.015  18.973  0.00  0.00    +0.000 C 
ATOM      3  C   UNL     1       1.564   3.820  19.009  0.00  0.00    +0.000 C 
ATOM      4  C   UNL     1       2.320   2.527  19.335  0.00  0.00    +0.000 C 
ATOM      5  C   UNL     1       3.029   2.210  18.016  0.00  0.00    +0.000 C 
ATOM      6  C   UNL     1       2.706   3.441  17.164  0.00  0.00    +0.000 C 
ATOM      7  N   UNL     1       1.299   3.669  17.566  0.00  0.00    +0.000 NA
ATOM      8  H   UNL     1       0.744   2.829  17.397  0.00  0.00    +0.000 HD
ENDROOT
BRANCH   1  11
ATOM      9  C   UNL     1       7.100   4.500  17.019  0.00  0.00    +0.000 A 
ATOM     10  C   UNL     1       5.738   4.477  16.776  0.00  0.00    +0.000 A 
ATOM     11  C   UNL     1       4.861   4.657  17.844  0.00  0.00    +0.000 A 
ATOM     12  C   UNL     1       5.440   4.823  19.095  0.00  0.00    +0.000 A 
ATOM     13  N   UNL     1       6.777   4.832  19.303  0.00  0.00    +0.000 NA
ATOM     14  N   UNL     1       7.616   4.673  18.250  0.00  0.00    +0.000 NA
ENDBRANCH   1  11
TORSDOF 1
ENDMDL
MODEL 2
REMARK VINA RESULT:      -6.3      1.814      2.590
REMARK  Name = 
REMARK  1 active torsions:
REMARK  status: ('A' for Active; 'I' for Inactive)
REMARK    1  A    between atoms: C_3  and  C_4
REMARK                            x       y       z     vdW  Elec       q    Type
REMARK                         _______ _______ _______ _____ _____    ______ ____
ROOT
ATOM      1  C   UNL     1       5.069   4.325  18.602  0.00  0.00    +0.000 C 
ATOM      2  C   UNL     1       4.071   3.145  18.577  0.00  0.00    +0.000 C 
ATOM      3  C   UNL     1       2.749   3.814  18.971  0.00  0.00    +0.000 C 
ATOM      4  C   UNL     1       2.255   4.741  17.854  0.00  0.00    +0.000 C 
ATOM      5  C   UNL     1       3.175   5.956  17.994  0.00  0.00    +0.000 C 
ATOM      6  C   UNL     1       4.166   5.498  19.069  0.00  0.00    +0.000 C 
ATOM      7  N   UNL     1       3.244   4.775  19.975  0.00  0.00    +0.000 NA
ATOM      8  H   UNL     1       2.487   5.391  20.274  0.00  0.00    +0.000 HD
ENDROOT
BRANCH   1  11
ATOM      9  C   UNL     1       6.402   4.366  15.033  0.00  0.00    +0.000 A 
ATOM     10  C   UNL     1       5.684   3.948  16.139  0.00  0.00    +0.000 A 
ATOM     11  C   UNL     1       5.853   4.622  17.346  0.00  0.00    +0.000 A 
ATOM     12  C   UNL     1       6.770   5.666  17.345  0.00  0.00    +0.000 A 
ATOM     13  N   UNL     1       7.464   6.046  16.248  0.00  0.00    +0.000 NA
ATOM     14  N   UNL     1       7.273   5.390  15.077  0.00  0.00    +0.000 NA
ENDBRANCH   1  11
TORSDOF 1
ENDMDL
MODEL 3
REMARK VINA RESULT:      -6.2      1.260      1.436
REMARK  Name = 
REMARK  1 active torsions:
REMARK  status: ('A' for Active; 'I' for Inactive)
REMARK    1  A    between atoms: C_3  and  C_4
REMARK                            x       y       z     vdW  Elec       q    Type
REMARK                         _______ _______ _______ _____ _____    ______ ____
ROOT
ATOM      1  C   UNL     1       3.826   4.795  17.666  0.00  0.00    +0.000 C 
ATOM      2  C   UNL     1       3.791   4.945  19.204  0.00  0.00    +0.000 C 
ATOM      3  C   UNL     1       2.905   3.772  19.638  0.00  0.00    +0.000 C 
ATOM      4  C   UNL     1       3.624   2.436  19.411  0.00  0.00    +0.000 C 
ATOM      5  C   UNL     1       3.519   2.252  17.895  0.00  0.00    +0.000 C 
ATOM      6  C   UNL     1       2.893   3.574  17.444  0.00  0.00    +0.000 C 
ATOM      7  N   UNL     1       1.920   3.784  18.540  0.00  0.00    +0.000 NA
ATOM      8  H   UNL     1       1.298   2.979  18.618  0.00  0.00    +0.000 HD
ENDROOT
BRANCH   1  11
ATOM      9  C   UNL     1       6.638   4.553  15.107  0.00  0.00    +0.000 A 
ATOM     10  C   UNL     1       5.350   4.584  15.612  0.00  0.00    +0.000 A 
ATOM     11  C   UNL     1       5.170   4.666  16.991  0.00  0.00    +0.000 A 
ATOM     12  C   UNL     1       6.325   4.686  17.763  0.00  0.00    +0.000 A 
ATOM     13  N   UNL     1       7.572   4.646  17.239  0.00  0.00    +0.000 NA
ATOM     14  N   UNL     1       7.729   4.584  15.894  0.00  0.00    +0.000 NA
ENDBRANCH   1  11
TORSDOF 1
ENDMDL
MODEL 4
REMARK VINA RESULT:      -6.2      1.617      2.493
REMARK  Name = 
REMARK  1 active torsions:
REMARK  status: ('A' for Active; 'I' for Inactive)
REMARK    1  A    between atoms: C_3  and  C_4
REMARK                            x       y       z     vdW  Elec       q    Type
REMARK                         _______ _______ _______ _____ _____    ______ ____
ROOT
ATOM      1  C   UNL     1       4.287   3.591  17.694  0.00  0.00    +0.000 C 
ATOM      2  C   UNL     1       2.841   3.509  17.156  0.00  0.00    +0.000 C 
ATOM      3  C   UNL     1       2.054   4.343  18.173  0.00  0.00    +0.000 C 
ATOM      4  C   UNL     1       2.412   5.829  18.050  0.00  0.00    +0.000 C 
ATOM      5  C   UNL     1       3.789   5.898  18.716  0.00  0.00    +0.000 C 
ATOM      6  C   UNL     1       4.098   4.423  18.990  0.00  0.00    +0.000 C 
ATOM      7  N   UNL     1       2.758   3.955  19.410  0.00  0.00    +0.000 NA
ATOM      8  H   UNL     1       2.419   4.513  20.196  0.00  0.00    +0.000 HD
ENDROOT
BRANCH   1  11
ATOM      9  C   UNL     1       6.199   5.002  14.716  0.00  0.00    +0.000 A 
ATOM     10  C   UNL     1       5.159   4.439  15.435  0.00  0.00    +0.000 A 
ATOM     11  C   UNL     1       5.361   4.125  16.777  0.00  0.00    +0.000 A 
ATOM     12  C   UNL     1       6.627   4.385  17.287  0.00  0.00    +0.000 A 
ATOM     13  N   UNL     1       7.627   4.927  16.556  0.00  0.00    +0.000 NA
ATOM     14  N   UNL     1       7.408   5.244  15.256  0.00  0.00    +0.000 NA
ENDBRANCH   1  11
TORSDOF 1
ENDMDL
MODEL 5
REMARK VINA RESULT:      -6.1      1.071      1.547
REMARK  Name = 
REMARK  1 active torsions:
REMARK  status: ('A' for Active; 'I' for Inactive)
REMARK    1  A    between atoms: C_3  and  C_4
REMARK                            x       y       z     vdW  Elec       q    Type
REMARK                         _______ _______ _______ _____ _____    ______ ____
ROOT
ATOM      1  C   UNL     1       3.480   4.646  17.424  0.00  0.00    +0.000 C 
ATOM      2  C   UNL     1       2.947   4.969  18.839  0.00  0.00    +0.000 C 
ATOM      3  C   UNL     1       2.101   3.734  19.170  0.00  0.00    +0.000 C 
ATOM      4  C   UNL     1       2.994   2.505  19.381  0.00  0.00    +0.000 C 
ATOM      5  C   UNL     1       3.394   2.131  17.952  0.00  0.00    +0.000 C 
ATOM      6  C   UNL     1       2.804   3.281  17.132  0.00  0.00    +0.000 C 
ATOM      7  N   UNL     1       1.518   3.467  17.841  0.00  0.00    +0.000 NA
ATOM      8  H   UNL     1       0.993   2.592  17.858  0.00  0.00    +0.000 HD
ENDROOT
BRANCH   1  11
ATOM      9  C   UNL     1       7.258   4.727  17.917  0.00  0.00    +0.000 A 
ATOM     10  C   UNL     1       5.912   4.834  18.223  0.00  0.00    +0.000 A 
ATOM     11  C   UNL     1       4.975   4.645  17.209  0.00  0.00    +0.000 A 
ATOM     12  C   UNL     1       5.482   4.384  15.943  0.00  0.00    +0.000 A 
ATOM     13  N   UNL     1       6.804   4.295  15.673  0.00  0.00    +0.000 NA
ATOM     14  N   UNL     1       7.702   4.464  16.675  0.00  0.00    +0.000 NA
ENDBRANCH   1  11
TORSDOF 1
ENDMDL
MODEL 6
REMARK VINA RESULT:      -6.1      1.822      1.969
REMARK  Name = 
REMARK  1 active torsions:
REMARK  status: ('A' for Active; 'I' for Inactive)
REMARK    1  A    between atoms: C_3  and  C_4
REMARK                            x       y       z     vdW  Elec       q    Type
REMARK                         _______ _______ _______ _____ _____    ______ ____
ROOT
ATOM      1  C   UNL     1       2.967   3.412  17.179  0.00  0.00    +0.000 C 
ATOM      2  C   UNL     1       1.736   3.886  17.984  0.00  0.00    +0.000 C 
ATOM      3  C   UNL     1       1.705   2.906  19.162  0.00  0.00    +0.000 C 
ATOM      4  C   UNL     1       2.886   3.156  20.108  0.00  0.00    +0.000 C 
ATOM      5  C   UNL     1       4.065   2.552  19.340  0.00  0.00    +0.000 C 
ATOM      6  C   UNL     1       3.428   2.177  17.999  0.00  0.00    +0.000 C 
ATOM      7  N   UNL     1       2.119   1.670  18.469  0.00  0.00    +0.000 NA
ATOM      8  H   UNL     1       2.254   0.918  19.145  0.00  0.00    +0.000 HD
ENDROOT
BRANCH   1  11
ATOM      9  C   UNL     1       6.081   5.170  15.863  0.00  0.00    +0.000 A 
ATOM     10  C   UNL     1       5.180   4.148  16.108  0.00  0.00    +0.000 A 
ATOM     11  C   UNL     1       4.068   4.409  16.906  0.00  0.00    +0.000 A 
ATOM     12  C   UNL     1       3.968   5.695  17.421  0.00  0.00    +0.000 A 
ATOM     13  N   UNL     1       4.870   6.671  17.170  0.00  0.00    +0.000 NA
ATOM     14  N   UNL     1       5.937   6.405  16.377  0.00  0.00    +0.000 NA
ENDBRANCH   1  11
TORSDOF 1
ENDMDL
MODEL 7
REMARK VINA RESULT:      -6.0      1.602      2.038
REMARK  Name = 
REMARK  1 active torsions:
REMARK  status: ('A' for Active; 'I' for Inactive)
REMARK    1  A    between atoms: C_3  and  C_4
REMARK                            x       y       z     vdW  Elec       q    Type
REMARK                         _______ _______ _______ _____ _____    ______ ____
ROOT
ATOM      1  C   UNL     1       3.723   3.834  17.037  0.00  0.00    +0.000 C 
ATOM      2  C   UNL     1       2.444   4.500  17.595  0.00  0.00    +0.000 C 
ATOM      3  C   UNL     1       2.164   3.683  18.862  0.00  0.00    +0.000 C 
ATOM      4  C   UNL     1       3.224   3.960  19.933  0.00  0.00    +0.000 C 
ATOM      5  C   UNL     1       4.434   3.176  19.420  0.00  0.00    +0.000 C 
ATOM      6  C   UNL     1       3.952   2.683  18.052  0.00  0.00    +0.000 C 
ATOM      7  N   UNL     1       2.549   2.341  18.384  0.00  0.00    +0.000 NA
ATOM      8  H   UNL     1       2.521   1.673  19.155  0.00  0.00    +0.000 HD
ENDROOT
BRANCH   1  11
ATOM      9  C   UNL     1       6.235   6.699  17.030  0.00  0.00    +0.000 A 
ATOM     10  C   UNL     1       5.037   6.031  17.215  0.00  0.00    +0.000 A 
ATOM     11  C   UNL     1       4.939   4.701  16.814  0.00  0.00    +0.000 A 
ATOM     12  C   UNL     1       6.070   4.151  16.224  0.00  0.00    +0.000 A 
ATOM     13  N   UNL     1       7.225   4.832  16.048  0.00  0.00    +0.000 NA
ATOM     14  N   UNL     1       7.308   6.121  16.461  0.00  0.00    +0.000 NA
ENDBRANCH   1  11
TORSDOF 1
ENDMDL
MODEL 8
REMARK VINA RESULT:      -6.0      1.351      1.766
REMARK  Name = 
REMARK  1 active torsions:
REMARK  status: ('A' for Active; 'I' for Inactive)
REMARK    1  A    between atoms: C_3  and  C_4
REMARK                            x       y       z     vdW  Elec       q    Type
REMARK                         _______ _______ _______ _____ _____    ______ ____
ROOT
ATOM      1  C   UNL     1       2.394   4.638  19.069  0.00  0.00    +0.000 C 
ATOM      2  C   UNL     1       2.327   5.013  20.567  0.00  0.00    +0.000 C 
ATOM      3  C   UNL     1       1.503   3.867  21.165  0.00  0.00    +0.000 C 
ATOM      4  C   UNL     1       2.300   2.557  21.146  0.00  0.00    +0.000 C 
ATOM      5  C   UNL     1       2.230   2.143  19.673  0.00  0.00    +0.000 C 
ATOM      6  C   UNL     1       1.537   3.345  19.025  0.00  0.00    +0.000 C 
ATOM      7  N   UNL     1       0.536   3.657  20.071  0.00  0.00    +0.000 NA
ATOM      8  H   UNL     1      -0.040   2.837  20.265  0.00  0.00    +0.000 HD
ENDROOT
BRANCH   1  11
ATOM      9  C   UNL     1       5.259   4.244  16.588  0.00  0.00    +0.000 A 
ATOM     10  C   UNL     1       3.962   4.279  17.070  0.00  0.00    +0.000 A 
ATOM     11  C   UNL     1       3.754   4.490  18.431  0.00  0.00    +0.000 A 
ATOM     12  C   UNL     1       4.894   4.625  19.214  0.00  0.00    +0.000 A 
ATOM     13  N   UNL     1       6.150   4.577  18.715  0.00  0.00    +0.000 NA
ATOM     14  N   UNL     1       6.333   4.389  17.385  0.00  0.00    +0.000 NA
ENDBRANCH   1  11
TORSDOF 1
ENDMDL
MODEL 9
REMARK VINA RESULT:      -6.0      1.258      4.781
REMARK  Name = 
REMARK  1 active torsions:
REMARK  status: ('A' for Active; 'I' for Inactive)
REMARK    1  A    between atoms: C_3  and  C_4
REMARK                            x       y       z     vdW  Elec       q    Type
REMARK                         _______ _______ _______ _____ _____    ______ ____
ROOT
ATOM      1  C   UNL     1       5.629   4.246  18.234  0.00  0.00    +0.000 C 
ATOM      2  C   UNL     1       6.254   5.320  19.153  0.00  0.00    +0.000 C 
ATOM      3  C   UNL     1       7.262   6.010  18.228  0.00  0.00    +0.000 C 
ATOM      4  C   UNL     1       6.539   6.822  17.147  0.00  0.00    +0.000 C 
ATOM      5  C   UNL     1       6.050   5.738  16.182  0.00  0.00    +0.000 C 
ATOM      6  C   UNL     1       6.426   4.449  16.918  0.00  0.00    +0.000 C 
ATOM      7  N   UNL     1       7.744   4.842  17.467  0.00  0.00    +0.000 NA
ATOM      8  H   UNL     1       8.364   5.144  16.715  0.00  0.00    +0.000 HD
ENDROOT
BRANCH   1  11
ATOM      9  C   UNL     1       1.947   5.222  18.143  0.00  0.00    +0.000 A 
ATOM     10  C   UNL     1       3.296   5.293  18.445  0.00  0.00    +0.000 A 
ATOM     11  C   UNL     1       4.131   4.251  18.047  0.00  0.00    +0.000 A 
ATOM     12  C   UNL     1       3.521   3.191  17.388  0.00  0.00    +0.000 A 
ATOM     13  N   UNL     1       2.197   3.146  17.116  0.00  0.00    +0.000 NA
ATOM     14  N   UNL     1       1.402   4.177  17.494  0.00  0.00    +0.000 NA
ENDBRANCH   1  11
TORSDOF 1
ENDMDL
