MODEL 1
REMARK VINA RESULT:      -7.4      0.000      0.000
REMARK  Name = 
REMARK  8 active torsions:
REMARK  status: ('A' for Active; 'I' for Inactive)
REMARK    1  A    between atoms: C_1  and  C_2
REMARK    2  A    between atoms: C_2  and  C_3
REMARK    3  A    between atoms: C_3  and  S_4
REMARK    4  A    between atoms: S_4  and  N_7
REMARK    5  A    between atoms: N_7  and  C_8
REMARK    6  A    between atoms: C_8  and  C_9
REMARK    7  A    between atoms: C_12  and  C_13
REMARK    8  A    between atoms: N_21  and  C_22
REMARK                            x       y       z     vdW  Elec       q    Type
REMARK                         _______ _______ _______ _____ _____    ______ ____
ROOT
ATOM      1  C   UNL     1       5.945   5.276  14.706  0.00  0.00    +0.000 C 
ATOM      2  C   UNL     1       7.338   4.806  15.186  0.00  0.00    +0.000 C 
ATOM      3  C   UNL     1       7.354   4.274  16.632  0.00  0.00    +0.000 C 
ATOM      4  C   UNL     1       6.640   5.210  17.635  0.00  0.00    +0.000 C 
ATOM      5  N   UNL     1       5.280   5.419  17.090  0.00  0.00    +0.000 N 
ATOM      6  C   UNL     1       5.201   6.075  15.786  0.00  0.00    +0.000 C 
ENDROOT
BRANCH   4   7
ATOM      7  C   UNL     1       7.343   6.552  17.924  0.00  0.00    +0.000 A 
ATOM      8  C   UNL     1       7.181   7.665  17.070  0.00  0.00    +0.000 A 
ATOM      9  C   UNL     1       7.723   8.917  17.378  0.00  0.00    +0.000 A 
ATOM     10  C   UNL     1       8.478   9.077  18.527  0.00  0.00    +0.000 A 
ATOM     11 CL   UNL     1       9.117  10.624  18.921  0.00  0.00    +0.000 Cl
ATOM     12  C   UNL     1       8.736   7.987  19.346  0.00  0.00    +0.000 A 
ATOM     13  C   UNL     1       8.193   6.730  19.038  0.00  0.00    +0.000 A 
ATOM     14 CL   UNL     1       8.680   5.433  20.073  0.00  0.00    +0.000 Cl
ENDBRANCH   4   7
BRANCH   5  15
ATOM     15  C   UNL     1       4.158   4.828  17.660  0.00  0.00    +0.000 A 
ATOM     16  C   UNL     1       4.043   3.426  17.753  0.00  0.00    +0.000 A 
ATOM     17  C   UNL     1       2.897   2.802  18.260  0.00  0.00    +0.000 A 
ATOM     18  C   UNL     1       1.827   3.572  18.696  0.00  0.00    +0.000 A 
ATOM     19 CL   UNL     1       0.403   2.812  19.293  0.00  0.00    +0.000 Cl
ATOM     20  C   UNL     1       1.902   4.957  18.630  0.00  0.00    +0.000 A 
ATOM     21  C   UNL     1       3.054   5.569  18.118  0.00  0.00    +0.000 A 
ENDBRANCH   5  15
BRANCH   1  22
ATOM     22  C   UNL     1       5.192   4.048  14.184  0.00  0.00    +0.000 C 
BRANCH  22  23
ATOM     23  N   UNL     1       6.061   3.057  13.517  0.00  0.00    +0.000 NA
ATOM     24  H   UNL     1       7.059   3.210  13.690  0.00  0.00    +0.000 HD
BRANCH  23  25
ATOM     25  S   UNL     1       5.897   3.002  11.824  0.00  0.00    +0.000 S 
ATOM     26  O   UNL     1       5.734   1.607  11.487  0.00  0.00    +0.000 OA
ATOM     27  O   UNL     1       6.975   3.792  11.274  0.00  0.00    +0.000 OA
BRANCH  25  28
ATOM     28  C   UNL     1       4.343   3.861  11.557  0.00  0.00    +0.000 C 
BRANCH  28  30
ATOM     29  C   UNL     1       2.860   4.192   9.559  0.00  0.00    +0.000 C 
ATOM     30  C   UNL     1       3.532   3.176  10.466  0.00  0.00    +0.000 C 
ENDBRANCH  28  30
ENDBRANCH  25  28
ENDBRANCH  23  25
ENDBRANCH  22  23
ENDBRANCH   1  22
TORSDOF 7
ENDMDL
MODEL 2
REMARK VINA RESULT:      -6.5      9.013     11.232
REMARK  Name = 
REMARK  8 active torsions:
REMARK  status: ('A' for Active; 'I' for Inactive)
REMARK    1  A    between atoms: C_1  and  C_2
REMARK    2  A    between atoms: C_2  and  C_3
REMARK    3  A    between atoms: C_3  and  S_4
REMARK    4  A    between atoms: S_4  and  N_7
REMARK    5  A    between atoms: N_7  and  C_8
REMARK    6  A    between atoms: C_8  and  C_9
REMARK    7  A    between atoms: C_12  and  C_13
REMARK    8  A    between atoms: N_21  and  C_22
REMARK                            x       y       z     vdW  Elec       q    Type
REMARK                         _______ _______ _______ _____ _____    ______ ____
ROOT
ATOM      1  C   UNL     1       1.752  13.300  19.810  0.00  0.00    +0.000 C 
ATOM      2  C   UNL     1       1.498  12.789  18.373  0.00  0.00    +0.000 C 
ATOM      3  C   UNL     1       0.133  12.098  18.189  0.00  0.00    +0.000 C 
ATOM      4  C   UNL     1      -0.171  11.045  19.280  0.00  0.00    +0.000 C 
ATOM      5  N   UNL     1      -0.031  11.754  20.571  0.00  0.00    +0.000 N 
ATOM      6  C   UNL     1       1.297  12.288  20.872  0.00  0.00    +0.000 C 
ENDROOT
BRANCH   4   7
ATOM      7  C   UNL     1       0.690   9.766  19.242  0.00  0.00    +0.000 A 
ATOM      8  C   UNL     1       1.474   9.442  18.114  0.00  0.00    +0.000 A 
ATOM      9  C   UNL     1       2.343   8.345  18.108  0.00  0.00    +0.000 A 
ATOM     10  C   UNL     1       2.416   7.520  19.216  0.00  0.00    +0.000 A 
ATOM     11 CL   UNL     1       3.507   6.191  19.221  0.00  0.00    +0.000 Cl
ATOM     12  C   UNL     1       1.596   7.752  20.312  0.00  0.00    +0.000 A 
ATOM     13  C   UNL     1       0.723   8.851  20.318  0.00  0.00    +0.000 A 
ATOM     14 CL   UNL     1      -0.323   8.966  21.689  0.00  0.00    +0.000 Cl
ENDBRANCH   4   7
BRANCH   5  15
ATOM     15  C   UNL     1      -1.131  12.098  21.348  0.00  0.00    +0.000 A 
ATOM     16  C   UNL     1      -1.077  12.025  22.755  0.00  0.00    +0.000 A 
ATOM     17  C   UNL     1      -2.189  12.300  23.560  0.00  0.00    +0.000 A 
ATOM     18  C   UNL     1      -3.395  12.662  22.973  0.00  0.00    +0.000 A 
ATOM     19 CL   UNL     1      -4.773  12.973  23.954  0.00  0.00    +0.000 Cl
ATOM     20  C   UNL     1      -3.488  12.755  21.591  0.00  0.00    +0.000 A 
ATOM     21  C   UNL     1      -2.368  12.474  20.795  0.00  0.00    +0.000 A 
ENDBRANCH   5  15
BRANCH   1  22
ATOM     22  C   UNL     1       1.117  14.688  19.933  0.00  0.00    +0.000 C 
BRANCH  22  23
ATOM     23  N   UNL     1       1.304  15.535  18.737  0.00  0.00    +0.000 NA
ATOM     24  H   UNL     1       1.766  15.049  17.963  0.00  0.00    +0.000 HD
BRANCH  23  25
ATOM     25  S   UNL     1       2.225  16.940  19.005  0.00  0.00    +0.000 S 
ATOM     26  O   UNL     1       1.906  17.373  20.346  0.00  0.00    +0.000 OA
ATOM     27  O   UNL     1       2.017  17.801  17.863  0.00  0.00    +0.000 OA
BRANCH  25  28
ATOM     28  C   UNL     1       3.907  16.313  18.971  0.00  0.00    +0.000 C 
BRANCH  28  30
ATOM     29  C   UNL     1       5.461  14.696  17.843  0.00  0.00    +0.000 C 
ATOM     30  C   UNL     1       4.115  15.397  17.774  0.00  0.00    +0.000 C 
ENDBRANCH  28  30
ENDBRANCH  25  28
ENDBRANCH  23  25
ENDBRANCH  22  23
ENDBRANCH   1  22
TORSDOF 7
ENDMDL
MODEL 3
REMARK VINA RESULT:      -6.5      9.728     11.772
REMARK  Name = 
REMARK  8 active torsions:
REMARK  status: ('A' for Active; 'I' for Inactive)
REMARK    1  A    between atoms: C_1  and  C_2
REMARK    2  A    between atoms: C_2  and  C_3
REMARK    3  A    between atoms: C_3  and  S_4
REMARK    4  A    between atoms: S_4  and  N_7
REMARK    5  A    between atoms: N_7  and  C_8
REMARK    6  A    between atoms: C_8  and  C_9
REMARK    7  A    between atoms: C_12  and  C_13
REMARK    8  A    between atoms: N_21  and  C_22
REMARK                            x       y       z     vdW  Elec       q    Type
REMARK                         _______ _______ _______ _____ _____    ______ ____
ROOT
ATOM      1  C   UNL     1       1.818  13.383  19.583  0.00  0.00    +0.000 C 
ATOM      2  C   UNL     1       1.188  12.720  18.337  0.00  0.00    +0.000 C 
ATOM      3  C   UNL     1      -0.199  12.099  18.593  0.00  0.00    +0.000 C 
ATOM      4  C   UNL     1      -0.246  11.208  19.856  0.00  0.00    +0.000 C 
ATOM      5  N   UNL     1       0.243  12.057  20.964  0.00  0.00    +0.000 N 
ATOM      6  C   UNL     1       1.619  12.538  20.850  0.00  0.00    +0.000 C 
ENDROOT
BRANCH   4   7
ATOM      7  C   UNL     1       0.537   9.882  19.774  0.00  0.00    +0.000 A 
ATOM      8  C   UNL     1       1.255   9.522  18.613  0.00  0.00    +0.000 A 
ATOM      9  C   UNL     1       2.057   8.378  18.564  0.00  0.00    +0.000 A 
ATOM     10  C   UNL     1       2.127   7.539  19.663  0.00  0.00    +0.000 A 
ATOM     11 CL   UNL     1       3.138   6.150  19.614  0.00  0.00    +0.000 Cl
ATOM     12  C   UNL     1       1.368   7.809  20.793  0.00  0.00    +0.000 A 
ATOM     13  C   UNL     1       0.561   8.957  20.842  0.00  0.00    +0.000 A 
ATOM     14 CL   UNL     1      -0.420   9.119  22.256  0.00  0.00    +0.000 Cl
ENDBRANCH   4   7
BRANCH   5  15
ATOM     15  C   UNL     1      -0.611  12.562  21.939  0.00  0.00    +0.000 A 
ATOM     16  C   UNL     1      -1.837  11.929  22.228  0.00  0.00    +0.000 A 
ATOM     17  C   UNL     1      -2.746  12.451  23.156  0.00  0.00    +0.000 A 
ATOM     18  C   UNL     1      -2.448  13.629  23.828  0.00  0.00    +0.000 A 
ATOM     19 CL   UNL     1      -3.573  14.292  24.948  0.00  0.00    +0.000 Cl
ATOM     20  C   UNL     1      -1.247  14.280  23.579  0.00  0.00    +0.000 A 
ATOM     21  C   UNL     1      -0.346  13.748  22.646  0.00  0.00    +0.000 A 
ENDBRANCH   5  15
BRANCH   1  22
ATOM     22  C   UNL     1       1.278  14.813  19.675  0.00  0.00    +0.000 C 
BRANCH  22  23
ATOM     23  N   UNL     1       1.528  15.622  18.465  0.00  0.00    +0.000 NA
ATOM     24  H   UNL     1       2.276  15.248  17.873  0.00  0.00    +0.000 HD
BRANCH  23  25
ATOM     25  S   UNL     1       1.959  17.239  18.773  0.00  0.00    +0.000 S 
ATOM     26  O   UNL     1       3.282  17.409  18.218  0.00  0.00    +0.000 OA
ATOM     27  O   UNL     1       1.689  17.484  20.172  0.00  0.00    +0.000 OA
BRANCH  25  28
ATOM     28  C   UNL     1       0.778  18.152  17.777  0.00  0.00    +0.000 C 
BRANCH  28  30
ATOM     29  C   UNL     1      -1.551  17.927  18.687  0.00  0.00    +0.000 C 
ATOM     30  C   UNL     1      -0.541  17.399  17.683  0.00  0.00    +0.000 C 
ENDBRANCH  28  30
ENDBRANCH  25  28
ENDBRANCH  23  25
ENDBRANCH  22  23
ENDBRANCH   1  22
TORSDOF 7
ENDMDL
MODEL 4
REMARK VINA RESULT:      -6.5      9.450     11.694
REMARK  Name = 
REMARK  8 active torsions:
REMARK  status: ('A' for Active; 'I' for Inactive)
REMARK    1  A    between atoms: C_1  and  C_2
REMARK    2  A    between atoms: C_2  and  C_3
REMARK    3  A    between atoms: C_3  and  S_4
REMARK    4  A    between atoms: S_4  and  N_7
REMARK    5  A    between atoms: N_7  and  C_8
REMARK    6  A    between atoms: C_8  and  C_9
REMARK    7  A    between atoms: C_12  and  C_13
REMARK    8  A    between atoms: N_21  and  C_22
REMARK                            x       y       z     vdW  Elec       q    Type
REMARK                         _______ _______ _______ _____ _____    ______ ____
ROOT
ATOM      1  C   UNL     1       1.421  13.629  19.331  0.00  0.00    +0.000 C 
ATOM      2  C   UNL     1       0.733  12.871  18.172  0.00  0.00    +0.000 C 
ATOM      3  C   UNL     1      -0.610  12.222  18.561  0.00  0.00    +0.000 C 
ATOM      4  C   UNL     1      -0.537  11.407  19.873  0.00  0.00    +0.000 C 
ATOM      5  N   UNL     1      -0.006  12.337  20.893  0.00  0.00    +0.000 N 
ATOM      6  C   UNL     1       1.340  12.856  20.655  0.00  0.00    +0.000 C 
ENDROOT
BRANCH   4   7
ATOM      7  C   UNL     1       0.287  10.105  19.814  0.00  0.00    +0.000 A 
ATOM      8  C   UNL     1       0.955   9.711  18.634  0.00  0.00    +0.000 A 
ATOM      9  C   UNL     1       1.794   8.592  18.597  0.00  0.00    +0.000 A 
ATOM     10  C   UNL     1       1.952   7.814  19.731  0.00  0.00    +0.000 A 
ATOM     11 CL   UNL     1       3.008   6.458  19.694  0.00  0.00    +0.000 Cl
ATOM     12  C   UNL     1       1.244   8.115  20.886  0.00  0.00    +0.000 A 
ATOM     13  C   UNL     1       0.401   9.237  20.923  0.00  0.00    +0.000 A 
ATOM     14 CL   UNL     1      -0.510   9.438  22.379  0.00  0.00    +0.000 Cl
ENDBRANCH   4   7
BRANCH   5  15
ATOM     15  C   UNL     1      -0.809  12.872  21.895  0.00  0.00    +0.000 A 
ATOM     16  C   UNL     1      -0.384  13.985  22.649  0.00  0.00    +0.000 A 
ATOM     17  C   UNL     1      -1.141  14.502  23.707  0.00  0.00    +0.000 A 
ATOM     18  C   UNL     1      -2.356  13.916  24.040  0.00  0.00    +0.000 A 
ATOM     19 CL   UNL     1      -3.277  14.528  25.358  0.00  0.00    +0.000 Cl
ATOM     20  C   UNL     1      -2.814  12.823  23.317  0.00  0.00    +0.000 A 
ATOM     21  C   UNL     1      -2.046  12.313  22.260  0.00  0.00    +0.000 A 
ENDBRANCH   5  15
BRANCH   1  22
ATOM     22  C   UNL     1       0.835  15.043  19.376  0.00  0.00    +0.000 C 
BRANCH  22  23
ATOM     23  N   UNL     1       1.675  16.010  20.112  0.00  0.00    +0.000 NA
ATOM     24  H   UNL     1       1.148  16.578  20.783  0.00  0.00    +0.000 HD
BRANCH  23  25
ATOM     25  S   UNL     1       2.497  17.125  19.124  0.00  0.00    +0.000 S 
ATOM     26  O   UNL     1       2.570  18.351  19.884  0.00  0.00    +0.000 OA
ATOM     27  O   UNL     1       1.866  17.078  17.824  0.00  0.00    +0.000 OA
BRANCH  25  28
ATOM     28  C   UNL     1       4.137  16.404  19.007  0.00  0.00    +0.000 C 
BRANCH  28  30
ATOM     29  C   UNL     1       5.516  14.659  17.842  0.00  0.00    +0.000 C 
ATOM     30  C   UNL     1       4.227  15.463  17.815  0.00  0.00    +0.000 C 
ENDBRANCH  28  30
ENDBRANCH  25  28
ENDBRANCH  23  25
ENDBRANCH  22  23
ENDBRANCH   1  22
TORSDOF 7
ENDMDL
MODEL 5
REMARK VINA RESULT:      -6.4      8.816     11.451
REMARK  Name = 
REMARK  8 active torsions:
REMARK  status: ('A' for Active; 'I' for Inactive)
REMARK    1  A    between atoms: C_1  and  C_2
REMARK    2  A    between atoms: C_2  and  C_3
REMARK    3  A    between atoms: C_3  and  S_4
REMARK    4  A    between atoms: S_4  and  N_7
REMARK    5  A    between atoms: N_7  and  C_8
REMARK    6  A    between atoms: C_8  and  C_9
REMARK    7  A    between atoms: C_12  and  C_13
REMARK    8  A    between atoms: N_21  and  C_22
REMARK                            x       y       z     vdW  Elec       q    Type
REMARK                         _______ _______ _______ _____ _____    ______ ____
ROOT
ATOM      1  C   UNL     1       0.969  13.378  18.727  0.00  0.00    +0.000 C 
ATOM      2  C   UNL     1       0.395  13.902  20.064  0.00  0.00    +0.000 C 
ATOM      3  C   UNL     1       0.055  12.789  21.076  0.00  0.00    +0.000 C 
ATOM      4  C   UNL     1      -0.769  11.635  20.460  0.00  0.00    +0.000 C 
ATOM      5  N   UNL     1       0.009  11.164  19.294  0.00  0.00    +0.000 N 
ATOM      6  C   UNL     1       0.219  12.136  18.223  0.00  0.00    +0.000 C 
ENDROOT
BRANCH   4   7
ATOM      7  C   UNL     1      -2.221  11.977  20.068  0.00  0.00    +0.000 A 
ATOM      8  C   UNL     1      -2.746  11.618  18.807  0.00  0.00    +0.000 A 
ATOM      9  C   UNL     1      -4.090  11.824  18.480  0.00  0.00    +0.000 A 
ATOM     10  C   UNL     1      -4.934  12.435  19.391  0.00  0.00    +0.000 A 
ATOM     11 CL   UNL     1      -6.593  12.659  19.001  0.00  0.00    +0.000 Cl
ATOM     12  C   UNL     1      -4.437  12.884  20.606  0.00  0.00    +0.000 A 
ATOM     13  C   UNL     1      -3.088  12.679  20.935  0.00  0.00    +0.000 A 
ATOM     14 CL   UNL     1      -2.567  13.384  22.426  0.00  0.00    +0.000 Cl
ENDBRANCH   4   7
BRANCH   5  15
ATOM     15  C   UNL     1       0.698   9.955  19.305  0.00  0.00    +0.000 A 
ATOM     16  C   UNL     1       0.845   9.215  20.496  0.00  0.00    +0.000 A 
ATOM     17  C   UNL     1       1.588   8.030  20.551  0.00  0.00    +0.000 A 
ATOM     18  C   UNL     1       2.208   7.549  19.406  0.00  0.00    +0.000 A 
ATOM     19 CL   UNL     1       3.148   6.109  19.472  0.00  0.00    +0.000 Cl
ATOM     20  C   UNL     1       2.081   8.243  18.210  0.00  0.00    +0.000 A 
ATOM     21  C   UNL     1       1.335   9.430  18.168  0.00  0.00    +0.000 A 
ENDBRANCH   5  15
BRANCH   1  22
ATOM     22  C   UNL     1       2.478  13.186  18.910  0.00  0.00    +0.000 C 
BRANCH  22  23
ATOM     23  N   UNL     1       3.289  13.808  17.844  0.00  0.00    +0.000 NA
ATOM     24  H   UNL     1       3.855  13.135  17.319  0.00  0.00    +0.000 HD
BRANCH  23  25
ATOM     25  S   UNL     1       4.384  14.991  18.391  0.00  0.00    +0.000 S 
ATOM     26  O   UNL     1       5.584  14.813  17.607  0.00  0.00    +0.000 OA
ATOM     27  O   UNL     1       4.404  14.907  19.834  0.00  0.00    +0.000 OA
BRANCH  25  28
ATOM     28  C   UNL     1       3.580  16.519  17.903  0.00  0.00    +0.000 C 
BRANCH  28  30
ATOM     29  C   UNL     1       1.198  17.139  18.399  0.00  0.00    +0.000 C 
ATOM     30  C   UNL     1       2.596  16.974  18.971  0.00  0.00    +0.000 C 
ENDBRANCH  28  30
ENDBRANCH  25  28
ENDBRANCH  23  25
ENDBRANCH  22  23
ENDBRANCH   1  22
TORSDOF 7
ENDMDL
MODEL 6
REMARK VINA RESULT:      -6.4      9.083     10.809
REMARK  Name = 
REMARK  8 active torsions:
REMARK  status: ('A' for Active; 'I' for Inactive)
REMARK    1  A    between atoms: C_1  and  C_2
REMARK    2  A    between atoms: C_2  and  C_3
REMARK    3  A    between atoms: C_3  and  S_4
REMARK    4  A    between atoms: S_4  and  N_7
REMARK    5  A    between atoms: N_7  and  C_8
REMARK    6  A    between atoms: C_8  and  C_9
REMARK    7  A    between atoms: C_12  and  C_13
REMARK    8  A    between atoms: N_21  and  C_22
REMARK                            x       y       z     vdW  Elec       q    Type
REMARK                         _______ _______ _______ _____ _____    ______ ____
ROOT
ATOM      1  C   UNL     1      -1.675  12.222  18.466  0.00  0.00    +0.000 C 
ATOM      2  C   UNL     1      -0.810  13.502  18.499  0.00  0.00    +0.000 C 
ATOM      3  C   UNL     1       0.591  13.293  19.107  0.00  0.00    +0.000 C 
ATOM      4  C   UNL     1       0.565  12.531  20.453  0.00  0.00    +0.000 C 
ATOM      5  N   UNL     1      -0.164  11.272  20.186  0.00  0.00    +0.000 N 
ATOM      6  C   UNL     1      -1.557  11.410  19.764  0.00  0.00    +0.000 C 
ENDROOT
BRANCH   4   7
ATOM      7  C   UNL     1      -0.043  13.293  21.647  0.00  0.00    +0.000 A 
ATOM      8  C   UNL     1      -1.035  12.707  22.464  0.00  0.00    +0.000 A 
ATOM      9  C   UNL     1      -1.516  13.342  23.614  0.00  0.00    +0.000 A 
ATOM     10  C   UNL     1      -1.047  14.599  23.952  0.00  0.00    +0.000 A 
ATOM     11 CL   UNL     1      -1.615  15.366  25.383  0.00  0.00    +0.000 Cl
ATOM     12  C   UNL     1      -0.138  15.248  23.128  0.00  0.00    +0.000 A 
ATOM     13  C   UNL     1       0.344  14.612  21.973  0.00  0.00    +0.000 A 
ATOM     14 CL   UNL     1       1.382  15.567  20.974  0.00  0.00    +0.000 Cl
ENDBRANCH   4   7
BRANCH   5  15
ATOM     15  C   UNL     1       0.484  10.044  20.113  0.00  0.00    +0.000 A 
ATOM     16  C   UNL     1       0.520   9.175  21.223  0.00  0.00    +0.000 A 
ATOM     17  C   UNL     1       1.221   7.964  21.200  0.00  0.00    +0.000 A 
ATOM     18  C   UNL     1       1.910   7.585  20.056  0.00  0.00    +0.000 A 
ATOM     19 CL   UNL     1       2.799   6.112  20.030  0.00  0.00    +0.000 Cl
ATOM     20  C   UNL     1       1.894   8.408  18.937  0.00  0.00    +0.000 A 
ATOM     21  C   UNL     1       1.189   9.620  18.973  0.00  0.00    +0.000 A 
ENDBRANCH   5  15
BRANCH   1  22
ATOM     22  C   UNL     1      -1.319  11.450  17.192  0.00  0.00    +0.000 C 
BRANCH  22  23
ATOM     23  N   UNL     1      -2.296  11.625  16.098  0.00  0.00    +0.000 NA
ATOM     24  H   UNL     1      -2.709  12.561  16.068  0.00  0.00    +0.000 HD
BRANCH  23  25
ATOM     25  S   UNL     1      -3.613  10.549  16.150  0.00  0.00    +0.000 S 
ATOM     26  O   UNL     1      -3.244   9.515  17.088  0.00  0.00    +0.000 OA
ATOM     27  O   UNL     1      -3.955  10.240  14.780  0.00  0.00    +0.000 OA
BRANCH  25  28
ATOM     28  C   UNL     1      -4.912  11.561  16.865  0.00  0.00    +0.000 C 
BRANCH  28  30
ATOM     29  C   UNL     1      -6.892  11.223  18.371  0.00  0.00    +0.000 C 
ATOM     30  C   UNL     1      -5.412  10.952  18.167  0.00  0.00    +0.000 C 
ENDBRANCH  28  30
ENDBRANCH  25  28
ENDBRANCH  23  25
ENDBRANCH  22  23
ENDBRANCH   1  22
TORSDOF 7
ENDMDL
MODEL 7
REMARK VINA RESULT:      -6.4      9.274     11.489
REMARK  Name = 
REMARK  8 active torsions:
REMARK  status: ('A' for Active; 'I' for Inactive)
REMARK    1  A    between atoms: C_1  and  C_2
REMARK    2  A    between atoms: C_2  and  C_3
REMARK    3  A    between atoms: C_3  and  S_4
REMARK    4  A    between atoms: S_4  and  N_7
REMARK    5  A    between atoms: N_7  and  C_8
REMARK    6  A    between atoms: C_8  and  C_9
REMARK    7  A    between atoms: C_12  and  C_13
REMARK    8  A    between atoms: N_21  and  C_22
REMARK                            x       y       z     vdW  Elec       q    Type
REMARK                         _______ _______ _______ _____ _____    ______ ____
ROOT
ATOM      1  C   UNL     1       1.584  13.515  19.887  0.00  0.00    +0.000 C 
ATOM      2  C   UNL     1       1.295  13.002  18.458  0.00  0.00    +0.000 C 
ATOM      3  C   UNL     1      -0.075  12.312  18.308  0.00  0.00    +0.000 C 
ATOM      4  C   UNL     1      -0.353  11.261  19.407  0.00  0.00    +0.000 C 
ATOM      5  N   UNL     1      -0.181  11.971  20.693  0.00  0.00    +0.000 N 
ATOM      6  C   UNL     1       1.154  12.505  20.961  0.00  0.00    +0.000 C 
ENDROOT
BRANCH   4   7
ATOM      7  C   UNL     1       0.506   9.981  19.350  0.00  0.00    +0.000 A 
ATOM      8  C   UNL     1       1.234   9.636  18.190  0.00  0.00    +0.000 A 
ATOM      9  C   UNL     1       2.101   8.540  18.161  0.00  0.00    +0.000 A 
ATOM     10  C   UNL     1       2.231   7.735  19.280  0.00  0.00    +0.000 A 
ATOM     11 CL   UNL     1       3.322   6.406  19.255  0.00  0.00    +0.000 Cl
ATOM     12  C   UNL     1       1.466   7.987  20.410  0.00  0.00    +0.000 A 
ATOM     13  C   UNL     1       0.593   9.086  20.440  0.00  0.00    +0.000 A 
ATOM     14 CL   UNL     1      -0.384   9.226  21.859  0.00  0.00    +0.000 Cl
ENDBRANCH   4   7
BRANCH   5  15
ATOM     15  C   UNL     1      -1.262  12.317  21.497  0.00  0.00    +0.000 A 
ATOM     16  C   UNL     1      -2.565  12.399  20.964  0.00  0.00    +0.000 A 
ATOM     17  C   UNL     1      -3.661  12.809  21.732  0.00  0.00    +0.000 A 
ATOM     18  C   UNL     1      -3.482  13.149  23.067  0.00  0.00    +0.000 A 
ATOM     19 CL   UNL     1      -4.818  13.682  24.009  0.00  0.00    +0.000 Cl
ATOM     20  C   UNL     1      -2.216  13.074  23.633  0.00  0.00    +0.000 A 
ATOM     21  C   UNL     1      -1.125  12.663  22.852  0.00  0.00    +0.000 A 
ENDBRANCH   5  15
BRANCH   1  22
ATOM     22  C   UNL     1       0.952  14.904  20.023  0.00  0.00    +0.000 C 
BRANCH  22  23
ATOM     23  N   UNL     1       1.917  15.963  20.380  0.00  0.00    +0.000 NA
ATOM     24  H   UNL     1       1.641  16.505  21.204  0.00  0.00    +0.000 HD
BRANCH  23  25
ATOM     25  S   UNL     1       2.189  17.111  19.154  0.00  0.00    +0.000 S 
ATOM     26  O   UNL     1       2.218  18.397  19.813  0.00  0.00    +0.000 OA
ATOM     27  O   UNL     1       1.247  16.825  18.096  0.00  0.00    +0.000 OA
BRANCH  25  28
ATOM     28  C   UNL     1       3.844  16.697  18.594  0.00  0.00    +0.000 C 
BRANCH  28  30
ATOM     29  C   UNL     1       4.752  14.443  17.965  0.00  0.00    +0.000 C 
ATOM     30  C   UNL     1       3.800  15.563  17.581  0.00  0.00    +0.000 C 
ENDBRANCH  28  30
ENDBRANCH  25  28
ENDBRANCH  23  25
ENDBRANCH  22  23
ENDBRANCH   1  22
TORSDOF 7
ENDMDL
MODEL 8
REMARK VINA RESULT:      -6.4      8.744     11.373
REMARK  Name = 
REMARK  8 active torsions:
REMARK  status: ('A' for Active; 'I' for Inactive)
REMARK    1  A    between atoms: C_1  and  C_2
REMARK    2  A    between atoms: C_2  and  C_3
REMARK    3  A    between atoms: C_3  and  S_4
REMARK    4  A    between atoms: S_4  and  N_7
REMARK    5  A    between atoms: N_7  and  C_8
REMARK    6  A    between atoms: C_8  and  C_9
REMARK    7  A    between atoms: C_12  and  C_13
REMARK    8  A    between atoms: N_21  and  C_22
REMARK                            x       y       z     vdW  Elec       q    Type
REMARK                         _______ _______ _______ _____ _____    ______ ____
ROOT
ATOM      1  C   UNL     1       1.016  13.612  18.635  0.00  0.00    +0.000 C 
ATOM      2  C   UNL     1       0.789  14.185  20.053  0.00  0.00    +0.000 C 
ATOM      3  C   UNL     1       0.724  13.110  21.156  0.00  0.00    +0.000 C 
ATOM      4  C   UNL     1      -0.217  11.934  20.809  0.00  0.00    +0.000 C 
ATOM      5  N   UNL     1       0.250  11.420  19.502  0.00  0.00    +0.000 N 
ATOM      6  C   UNL     1       0.176  12.352  18.379  0.00  0.00    +0.000 C 
ENDROOT
BRANCH   4   7
ATOM      7  C   UNL     1      -1.724  12.261  20.780  0.00  0.00    +0.000 A 
ATOM      8  C   UNL     1      -2.475  12.161  19.588  0.00  0.00    +0.000 A 
ATOM      9  C   UNL     1      -3.861  12.348  19.570  0.00  0.00    +0.000 A 
ATOM     10  C   UNL     1      -4.525  12.682  20.737  0.00  0.00    +0.000 A 
ATOM     11 CL   UNL     1      -6.233  12.880  20.721  0.00  0.00    +0.000 Cl
ATOM     12  C   UNL     1      -3.813  12.877  21.912  0.00  0.00    +0.000 A 
ATOM     13  C   UNL     1      -2.421  12.691  21.931  0.00  0.00    +0.000 A 
ATOM     14 CL   UNL     1      -1.637  13.075  23.423  0.00  0.00    +0.000 Cl
ENDBRANCH   4   7
BRANCH   5  15
ATOM     15  C   UNL     1       0.931  10.213  19.384  0.00  0.00    +0.000 A 
ATOM     16  C   UNL     1       1.518   9.828  18.161  0.00  0.00    +0.000 A 
ATOM     17  C   UNL     1       2.151   8.591  17.994  0.00  0.00    +0.000 A 
ATOM     18  C   UNL     1       2.216   7.698  19.056  0.00  0.00    +0.000 A 
ATOM     19 CL   UNL     1       2.967   6.164  18.850  0.00  0.00    +0.000 Cl
ATOM     20  C   UNL     1       1.658   8.042  20.280  0.00  0.00    +0.000 A 
ATOM     21  C   UNL     1       1.025   9.284  20.434  0.00  0.00    +0.000 A 
ENDBRANCH   5  15
BRANCH   1  22
ATOM     22  C   UNL     1       2.524  13.428  18.441  0.00  0.00    +0.000 C 
BRANCH  22  23
ATOM     23  N   UNL     1       3.162  14.514  17.669  0.00  0.00    +0.000 NA
ATOM     24  H   UNL     1       3.631  14.187  16.819  0.00  0.00    +0.000 HD
BRANCH  23  25
ATOM     25  S   UNL     1       4.339  15.392  18.528  0.00  0.00    +0.000 S 
ATOM     26  O   UNL     1       4.238  14.954  19.901  0.00  0.00    +0.000 OA
ATOM     27  O   UNL     1       4.173  16.781  18.164  0.00  0.00    +0.000 OA
BRANCH  25  28
ATOM     28  C   UNL     1       5.871  14.779  17.823  0.00  0.00    +0.000 C 
BRANCH  28  30
ATOM     29  C   UNL     1       8.150  15.829  17.912  0.00  0.00    +0.000 C 
ATOM     30  C   UNL     1       7.054  15.142  18.709  0.00  0.00    +0.000 C 
ENDBRANCH  28  30
ENDBRANCH  25  28
ENDBRANCH  23  25
ENDBRANCH  22  23
ENDBRANCH   1  22
TORSDOF 7
ENDMDL
MODEL 9
REMARK VINA RESULT:      -6.4      8.900     11.358
REMARK  Name = 
REMARK  8 active torsions:
REMARK  status: ('A' for Active; 'I' for Inactive)
REMARK    1  A    between atoms: C_1  and  C_2
REMARK    2  A    between atoms: C_2  and  C_3
REMARK    3  A    between atoms: C_3  and  S_4
REMARK    4  A    between atoms: S_4  and  N_7
REMARK    5  A    between atoms: N_7  and  C_8
REMARK    6  A    between atoms: C_8  and  C_9
REMARK    7  A    between atoms: C_12  and  C_13
REMARK    8  A    between atoms: N_21  and  C_22
REMARK                            x       y       z     vdW  Elec       q    Type
REMARK                         _______ _______ _______ _____ _____    ______ ____
ROOT
ATOM      1  C   UNL     1       0.948  13.506  18.570  0.00  0.00    +0.000 C 
ATOM      2  C   UNL     1       0.741  14.131  19.969  0.00  0.00    +0.000 C 
ATOM      3  C   UNL     1       0.694  13.098  21.113  0.00  0.00    +0.000 C 
ATOM      4  C   UNL     1      -0.249  11.908  20.823  0.00  0.00    +0.000 C 
ATOM      5  N   UNL     1       0.199  11.347  19.530  0.00  0.00    +0.000 N 
ATOM      6  C   UNL     1       0.106  12.236  18.374  0.00  0.00    +0.000 C 
ENDROOT
BRANCH   4   7
ATOM      7  C   UNL     1      -1.757  12.232  20.805  0.00  0.00    +0.000 A 
ATOM      8  C   UNL     1      -2.501  12.201  19.605  0.00  0.00    +0.000 A 
ATOM      9  C   UNL     1      -3.887  12.384  19.590  0.00  0.00    +0.000 A 
ATOM     10  C   UNL     1      -4.560  12.646  20.771  0.00  0.00    +0.000 A 
ATOM     11 CL   UNL     1      -6.268  12.840  20.756  0.00  0.00    +0.000 Cl
ATOM     12  C   UNL     1      -3.854  12.773  21.959  0.00  0.00    +0.000 A 
ATOM     13  C   UNL     1      -2.462  12.591  21.976  0.00  0.00    +0.000 A 
ATOM     14 CL   UNL     1      -1.688  12.887  23.493  0.00  0.00    +0.000 Cl
ENDBRANCH   4   7
BRANCH   5  15
ATOM     15  C   UNL     1       0.880  10.137  19.447  0.00  0.00    +0.000 A 
ATOM     16  C   UNL     1       1.456   9.711  18.232  0.00  0.00    +0.000 A 
ATOM     17  C   UNL     1       2.089   8.469  18.101  0.00  0.00    +0.000 A 
ATOM     18  C   UNL     1       2.166   7.614  19.193  0.00  0.00    +0.000 A 
ATOM     19 CL   UNL     1       2.917   6.074  19.033  0.00  0.00    +0.000 Cl
ATOM     20  C   UNL     1       1.619   7.999  20.410  0.00  0.00    +0.000 A 
ATOM     21  C   UNL     1       0.986   9.245  20.528  0.00  0.00    +0.000 A 
ENDBRANCH   5  15
BRANCH   1  22
ATOM     22  C   UNL     1       2.453  13.317  18.361  0.00  0.00    +0.000 C 
BRANCH  22  23
ATOM     23  N   UNL     1       3.287  14.183  19.218  0.00  0.00    +0.000 NA
ATOM     24  H   UNL     1       2.740  14.793  19.833  0.00  0.00    +0.000 HD
BRANCH  23  25
ATOM     25  S   UNL     1       4.335  15.219  18.368  0.00  0.00    +0.000 S 
ATOM     26  O   UNL     1       5.380  14.375  17.835  0.00  0.00    +0.000 OA
ATOM     27  O   UNL     1       4.632  16.327  19.247  0.00  0.00    +0.000 OA
BRANCH  25  28
ATOM     28  C   UNL     1       3.300  15.798  17.021  0.00  0.00    +0.000 C 
BRANCH  28  30
ATOM     29  C   UNL     1       1.447  17.189  17.989  0.00  0.00    +0.000 C 
ATOM     30  C   UNL     1       2.799  17.209  17.296  0.00  0.00    +0.000 C 
ENDBRANCH  28  30
ENDBRANCH  25  28
ENDBRANCH  23  25
ENDBRANCH  22  23
ENDBRANCH   1  22
TORSDOF 7
ENDMDL
