MODEL 1
REMARK VINA RESULT:      -9.0      0.000      0.000
REMARK  Name = 
REMARK  7 active torsions:
REMARK  status: ('A' for Active; 'I' for Inactive)
REMARK    1  A    between atoms: C_1  and  C_2
REMARK    2  A    between atoms: C_2  and  C_3
REMARK    3  A    between atoms: C_3  and  C_4
REMARK    4  A    between atoms: C_4  and  C_5
REMARK    5  A    between atoms: N_8  and  C_9
REMARK    6  A    between atoms: N_14  and  N_15
REMARK    7  A    between atoms: N_15  and  C_16
REMARK                            x       y       z     vdW  Elec       q    Type
REMARK                         _______ _______ _______ _____ _____    ______ ____
ROOT
ATOM      1  C   UNL     1       5.522   5.439  16.695  0.00  0.00    +0.000 C 
ATOM      2  C   UNL     1       6.923   6.031  16.855  0.00  0.00    +0.000 C 
ATOM      3  O   UNL     1       7.599   6.417  15.903  0.00  0.00    +0.000 OA
ATOM      4  N   UNL     1       7.286   6.233  18.182  0.00  0.00    +0.000 N 
ATOM      5  C   UNL     1       8.234   7.282  18.495  0.00  0.00    +0.000 C 
ATOM      6  C   UNL     1       6.925   5.363  19.194  0.00  0.00    +0.000 C 
ATOM      7  O   UNL     1       7.384   5.409  20.334  0.00  0.00    +0.000 OA
ATOM      8  N   UNL     1       6.019   4.393  18.862  0.00  0.00    +0.000 N 
ATOM      9  C   UNL     1       5.316   4.315  17.695  0.00  0.00    +0.000 C 
ATOM     10  N   UNL     1       4.453   3.378  17.471  0.00  0.00    +0.000 NA
ATOM     11  H   UNL     1       5.777   3.725  19.581  0.00  0.00    +0.000 HD
ENDROOT
BRANCH   1  13
ATOM     12  C   UNL     1       3.342   6.327  17.871  0.00  0.00    +0.000 C 
ATOM     13  C   UNL     1       4.590   6.642  17.062  0.00  0.00    +0.000 C 
ENDBRANCH   1  13
BRANCH   1  14
ATOM     14  C   UNL     1       5.250   4.976  15.240  0.00  0.00    +0.000 C 
ATOM     15  C   UNL     1       6.197   3.906  14.699  0.00  0.00    +0.000 C 
ENDBRANCH   1  14
BRANCH  10  16
ATOM     16  N   UNL     1       4.328   2.383  18.401  0.00  0.00    +0.000 N 
ATOM     17  H   UNL     1       4.275   1.443  17.999  0.00  0.00    +0.000 HD
BRANCH  16  18
ATOM     18  C   UNL     1       3.222   2.554  19.286  0.00  0.00    +0.000 A 
ATOM     19  C   UNL     1       3.428   2.595  20.672  0.00  0.00    +0.000 A 
ATOM     20  C   UNL     1       2.354   2.797  21.546  0.00  0.00    +0.000 A 
ATOM     21  C   UNL     1       1.068   2.995  21.044  0.00  0.00    +0.000 A 
ATOM     22  C   UNL     1       0.857   3.005  19.670  0.00  0.00    +0.000 A 
ATOM     23  C   UNL     1       1.929   2.800  18.800  0.00  0.00    +0.000 A 
ENDBRANCH  16  18
ENDBRANCH  10  16
TORSDOF 4
ENDMDL
MODEL 2
REMARK VINA RESULT:      -9.0      0.107      1.056
REMARK  Name = 
REMARK  7 active torsions:
REMARK  status: ('A' for Active; 'I' for Inactive)
REMARK    1  A    between atoms: C_1  and  C_2
REMARK    2  A    between atoms: C_2  and  C_3
REMARK    3  A    between atoms: C_3  and  C_4
REMARK    4  A    between atoms: C_4  and  C_5
REMARK    5  A    between atoms: N_8  and  C_9
REMARK    6  A    between atoms: N_14  and  N_15
REMARK    7  A    between atoms: N_15  and  C_16
REMARK                            x       y       z     vdW  Elec       q    Type
REMARK                         _______ _______ _______ _____ _____    ______ ____
ROOT
ATOM      1  C   UNL     1       5.534   5.385  16.606  0.00  0.00    +0.000 C 
ATOM      2  C   UNL     1       6.941   5.951  16.801  0.00  0.00    +0.000 C 
ATOM      3  O   UNL     1       7.645   6.330  15.866  0.00  0.00    +0.000 OA
ATOM      4  N   UNL     1       7.278   6.139  18.137  0.00  0.00    +0.000 N 
ATOM      5  C   UNL     1       8.237   7.169  18.478  0.00  0.00    +0.000 C 
ATOM      6  C   UNL     1       6.878   5.271  19.136  0.00  0.00    +0.000 C 
ATOM      7  O   UNL     1       7.311   5.302  20.285  0.00  0.00    +0.000 OA
ATOM      8  N   UNL     1       5.961   4.319  18.777  0.00  0.00    +0.000 N 
ATOM      9  C   UNL     1       5.284   4.260  17.594  0.00  0.00    +0.000 C 
ATOM     10  N   UNL     1       4.410   3.340  17.346  0.00  0.00    +0.000 NA
ATOM     11  H   UNL     1       5.692   3.652  19.487  0.00  0.00    +0.000 HD
ENDROOT
BRANCH   1  13
ATOM     12  C   UNL     1       3.396   6.322  17.821  0.00  0.00    +0.000 C 
ATOM     13  C   UNL     1       4.615   6.603  16.959  0.00  0.00    +0.000 C 
ENDBRANCH   1  13
BRANCH   1  14
ATOM     14  C   UNL     1       5.286   4.935  15.143  0.00  0.00    +0.000 C 
ATOM     15  C   UNL     1       6.236   3.864  14.611  0.00  0.00    +0.000 C 
ENDBRANCH   1  14
BRANCH  10  16
ATOM     16  N   UNL     1       4.245   2.343  18.267  0.00  0.00    +0.000 N 
ATOM     17  H   UNL     1       4.096   1.418  17.855  0.00  0.00    +0.000 HD
BRANCH  16  18
ATOM     18  C   UNL     1       3.200   2.589  19.206  0.00  0.00    +0.000 A 
ATOM     19  C   UNL     1       1.885   2.781  18.761  0.00  0.00    +0.000 A 
ATOM     20  C   UNL     1       0.846   2.989  19.676  0.00  0.00    +0.000 A 
ATOM     21  C   UNL     1       1.104   2.972  21.046  0.00  0.00    +0.000 A 
ATOM     22  C   UNL     1       2.396   2.734  21.503  0.00  0.00    +0.000 A 
ATOM     23  C   UNL     1       3.431   2.531  20.589  0.00  0.00    +0.000 A 
ENDBRANCH  16  18
ENDBRANCH  10  16
TORSDOF 4
ENDMDL
MODEL 3
REMARK VINA RESULT:      -8.0      2.434      5.671
REMARK  Name = 
REMARK  7 active torsions:
REMARK  status: ('A' for Active; 'I' for Inactive)
REMARK    1  A    between atoms: C_1  and  C_2
REMARK    2  A    between atoms: C_2  and  C_3
REMARK    3  A    between atoms: C_3  and  C_4
REMARK    4  A    between atoms: C_4  and  C_5
REMARK    5  A    between atoms: N_8  and  C_9
REMARK    6  A    between atoms: N_14  and  N_15
REMARK    7  A    between atoms: N_15  and  C_16
REMARK                            x       y       z     vdW  Elec       q    Type
REMARK                         _______ _______ _______ _____ _____    ______ ____
ROOT
ATOM      1  C   UNL     1       2.683   3.828  18.516  0.00  0.00    +0.000 C 
ATOM      2  C   UNL     1       2.363   3.792  20.010  0.00  0.00    +0.000 C 
ATOM      3  O   UNL     1       1.476   4.473  20.522  0.00  0.00    +0.000 OA
ATOM      4  N   UNL     1       3.063   2.807  20.699  0.00  0.00    +0.000 N 
ATOM      5  C   UNL     1       2.479   2.243  21.897  0.00  0.00    +0.000 C 
ATOM      6  C   UNL     1       4.369   2.470  20.395  0.00  0.00    +0.000 C 
ATOM      7  O   UNL     1       5.072   1.747  21.097  0.00  0.00    +0.000 OA
ATOM      8  N   UNL     1       4.882   3.014  19.248  0.00  0.00    +0.000 N 
ATOM      9  C   UNL     1       4.180   3.701  18.300  0.00  0.00    +0.000 C 
ATOM     10  N   UNL     1       4.737   4.158  17.227  0.00  0.00    +0.000 NA
ATOM     11  H   UNL     1       5.849   2.809  19.036  0.00  0.00    +0.000 HD
ENDROOT
BRANCH   1  13
ATOM     12  C   UNL     1       0.624   2.190  18.591  0.00  0.00    +0.000 C 
ATOM     13  C   UNL     1       1.967   2.545  17.974  0.00  0.00    +0.000 C 
ENDBRANCH   1  13
BRANCH   1  14
ATOM     14  C   UNL     1       2.105   5.092  17.828  0.00  0.00    +0.000 C 
ATOM     15  C   UNL     1       2.717   6.421  18.267  0.00  0.00    +0.000 C 
ENDBRANCH   1  14
BRANCH  10  16
ATOM     16  N   UNL     1       6.094   4.031  17.102  0.00  0.00    +0.000 N 
ATOM     17  H   UNL     1       6.478   3.211  17.579  0.00  0.00    +0.000 HD
BRANCH  16  18
ATOM     18  C   UNL     1       6.825   5.180  17.525  0.00  0.00    +0.000 A 
ATOM     19  C   UNL     1       6.732   6.379  16.806  0.00  0.00    +0.000 A 
ATOM     20  C   UNL     1       7.418   7.522  17.234  0.00  0.00    +0.000 A 
ATOM     21  C   UNL     1       8.176   7.488  18.403  0.00  0.00    +0.000 A 
ATOM     22  C   UNL     1       8.238   6.318  19.153  0.00  0.00    +0.000 A 
ATOM     23  C   UNL     1       7.556   5.180  18.723  0.00  0.00    +0.000 A 
ENDBRANCH  16  18
ENDBRANCH  10  16
TORSDOF 4
ENDMDL
MODEL 4
REMARK VINA RESULT:      -7.8      2.433      5.614
REMARK  Name = 
REMARK  7 active torsions:
REMARK  status: ('A' for Active; 'I' for Inactive)
REMARK    1  A    between atoms: C_1  and  C_2
REMARK    2  A    between atoms: C_2  and  C_3
REMARK    3  A    between atoms: C_3  and  C_4
REMARK    4  A    between atoms: C_4  and  C_5
REMARK    5  A    between atoms: N_8  and  C_9
REMARK    6  A    between atoms: N_14  and  N_15
REMARK    7  A    between atoms: N_15  and  C_16
REMARK                            x       y       z     vdW  Elec       q    Type
REMARK                         _______ _______ _______ _____ _____    ______ ____
ROOT
ATOM      1  C   UNL     1       2.622   3.826  18.516  0.00  0.00    +0.000 C 
ATOM      2  C   UNL     1       2.307   3.769  20.011  0.00  0.00    +0.000 C 
ATOM      3  O   UNL     1       1.405   4.425  20.531  0.00  0.00    +0.000 OA
ATOM      4  N   UNL     1       3.030   2.794  20.689  0.00  0.00    +0.000 N 
ATOM      5  C   UNL     1       2.462   2.205  21.883  0.00  0.00    +0.000 C 
ATOM      6  C   UNL     1       4.344   2.491  20.380  0.00  0.00    +0.000 C 
ATOM      7  O   UNL     1       5.065   1.777  21.074  0.00  0.00    +0.000 OA
ATOM      8  N   UNL     1       4.841   3.057  19.237  0.00  0.00    +0.000 N 
ATOM      9  C   UNL     1       4.122   3.737  18.297  0.00  0.00    +0.000 C 
ATOM     10  N   UNL     1       4.666   4.217  17.227  0.00  0.00    +0.000 NA
ATOM     11  H   UNL     1       5.812   2.877  19.021  0.00  0.00    +0.000 HD
ENDROOT
BRANCH   1  13
ATOM     12  C   UNL     1       0.599   2.144  18.575  0.00  0.00    +0.000 C 
ATOM     13  C   UNL     1       1.936   2.532  17.964  0.00  0.00    +0.000 C 
ENDBRANCH   1  13
BRANCH   1  14
ATOM     14  C   UNL     1       2.014   5.083  17.842  0.00  0.00    +0.000 C 
ATOM     15  C   UNL     1       2.610   6.421  18.277  0.00  0.00    +0.000 C 
ENDBRANCH   1  14
BRANCH  10  16
ATOM     16  N   UNL     1       6.025   4.122  17.098  0.00  0.00    +0.000 N 
ATOM     17  H   UNL     1       6.426   3.293  17.546  0.00  0.00    +0.000 HD
BRANCH  16  18
ATOM     18  C   UNL     1       6.732   5.270  17.565  0.00  0.00    +0.000 A 
ATOM     19  C   UNL     1       7.540   5.184  18.706  0.00  0.00    +0.000 A 
ATOM     20  C   UNL     1       8.265   6.295  19.151  0.00  0.00    +0.000 A 
ATOM     21  C   UNL     1       8.217   7.495  18.441  0.00  0.00    +0.000 A 
ATOM     22  C   UNL     1       7.457   7.580  17.279  0.00  0.00    +0.000 A 
ATOM     23  C   UNL     1       6.732   6.472  16.840  0.00  0.00    +0.000 A 
ENDBRANCH  16  18
ENDBRANCH  10  16
TORSDOF 4
ENDMDL
MODEL 5
REMARK VINA RESULT:      -7.5      2.590      5.956
REMARK  Name = 
REMARK  7 active torsions:
REMARK  status: ('A' for Active; 'I' for Inactive)
REMARK    1  A    between atoms: C_1  and  C_2
REMARK    2  A    between atoms: C_2  and  C_3
REMARK    3  A    between atoms: C_3  and  C_4
REMARK    4  A    between atoms: C_4  and  C_5
REMARK    5  A    between atoms: N_8  and  C_9
REMARK    6  A    between atoms: N_14  and  N_15
REMARK    7  A    between atoms: N_15  and  C_16
REMARK                            x       y       z     vdW  Elec       q    Type
REMARK                         _______ _______ _______ _____ _____    ______ ____
ROOT
ATOM      1  C   UNL     1       2.795   4.253  18.425  0.00  0.00    +0.000 C 
ATOM      2  C   UNL     1       2.626   4.147  19.941  0.00  0.00    +0.000 C 
ATOM      3  O   UNL     1       1.896   4.898  20.587  0.00  0.00    +0.000 OA
ATOM      4  N   UNL     1       3.248   3.030  20.487  0.00  0.00    +0.000 N 
ATOM      5  C   UNL     1       2.715   2.459  21.706  0.00  0.00    +0.000 C 
ATOM      6  C   UNL     1       4.458   2.549  20.022  0.00  0.00    +0.000 C 
ATOM      7  O   UNL     1       5.121   1.689  20.598  0.00  0.00    +0.000 OA
ATOM      8  N   UNL     1       4.923   3.106  18.861  0.00  0.00    +0.000 N 
ATOM      9  C   UNL     1       4.231   3.948  18.040  0.00  0.00    +0.000 C 
ATOM     10  N   UNL     1       4.736   4.408  16.941  0.00  0.00    +0.000 NA
ATOM     11  H   UNL     1       5.826   2.793  18.532  0.00  0.00    +0.000 HD
ENDROOT
BRANCH   1  13
ATOM     12  C   UNL     1       0.622   2.796  18.711  0.00  0.00    +0.000 C 
ATOM     13  C   UNL     1       1.858   3.119  17.888  0.00  0.00    +0.000 C 
ENDBRANCH   1  13
BRANCH   1  14
ATOM     14  C   UNL     1       2.331   5.630  17.883  0.00  0.00    +0.000 C 
ATOM     15  C   UNL     1       3.072   6.844  18.442  0.00  0.00    +0.000 C 
ENDBRANCH   1  14
BRANCH  10  16
ATOM     16  N   UNL     1       6.042   4.114  16.661  0.00  0.00    +0.000 N 
ATOM     17  H   UNL     1       6.716   4.681  17.182  0.00  0.00    +0.000 HD
BRANCH  16  18
ATOM     18  C   UNL     1       6.368   4.192  15.274  0.00  0.00    +0.000 A 
ATOM     19  C   UNL     1       5.573   3.536  14.325  0.00  0.00    +0.000 A 
ATOM     20  C   UNL     1       5.864   3.636  12.960  0.00  0.00    +0.000 A 
ATOM     21  C   UNL     1       6.932   4.421  12.525  0.00  0.00    +0.000 A 
ATOM     22  C   UNL     1       7.699   5.117  13.453  0.00  0.00    +0.000 A 
ATOM     23  C   UNL     1       7.409   5.013  14.814  0.00  0.00    +0.000 A 
ENDBRANCH  16  18
ENDBRANCH  10  16
TORSDOF 4
ENDMDL
MODEL 6
REMARK VINA RESULT:      -7.5      2.605      5.930
REMARK  Name = 
REMARK  7 active torsions:
REMARK  status: ('A' for Active; 'I' for Inactive)
REMARK    1  A    between atoms: C_1  and  C_2
REMARK    2  A    between atoms: C_2  and  C_3
REMARK    3  A    between atoms: C_3  and  C_4
REMARK    4  A    between atoms: C_4  and  C_5
REMARK    5  A    between atoms: N_8  and  C_9
REMARK    6  A    between atoms: N_14  and  N_15
REMARK    7  A    between atoms: N_15  and  C_16
REMARK                            x       y       z     vdW  Elec       q    Type
REMARK                         _______ _______ _______ _____ _____    ______ ____
ROOT
ATOM      1  C   UNL     1       2.760   4.176  18.410  0.00  0.00    +0.000 C 
ATOM      2  C   UNL     1       2.622   4.064  19.928  0.00  0.00    +0.000 C 
ATOM      3  O   UNL     1       1.901   4.808  20.592  0.00  0.00    +0.000 OA
ATOM      4  N   UNL     1       3.262   2.949  20.458  0.00  0.00    +0.000 N 
ATOM      5  C   UNL     1       2.757   2.370  21.685  0.00  0.00    +0.000 C 
ATOM      6  C   UNL     1       4.466   2.477  19.967  0.00  0.00    +0.000 C 
ATOM      7  O   UNL     1       5.146   1.620  20.526  0.00  0.00    +0.000 OA
ATOM      8  N   UNL     1       4.903   3.041  18.799  0.00  0.00    +0.000 N 
ATOM      9  C   UNL     1       4.190   3.882  17.994  0.00  0.00    +0.000 C 
ATOM     10  N   UNL     1       4.670   4.348  16.888  0.00  0.00    +0.000 NA
ATOM     11  H   UNL     1       5.802   2.735  18.450  0.00  0.00    +0.000 HD
ENDROOT
BRANCH   1  13
ATOM     12  C   UNL     1       0.586   2.725  18.718  0.00  0.00    +0.000 C 
ATOM     13  C   UNL     1       1.820   3.038  17.888  0.00  0.00    +0.000 C 
ENDBRANCH   1  13
BRANCH   1  14
ATOM     14  C   UNL     1       2.277   5.552  17.882  0.00  0.00    +0.000 C 
ATOM     15  C   UNL     1       3.081   6.761  18.357  0.00  0.00    +0.000 C 
ENDBRANCH   1  14
BRANCH  10  16
ATOM     16  N   UNL     1       5.972   4.064  16.580  0.00  0.00    +0.000 N 
ATOM     17  H   UNL     1       6.653   4.611  17.114  0.00  0.00    +0.000 HD
BRANCH  16  18
ATOM     18  C   UNL     1       6.280   4.194  15.193  0.00  0.00    +0.000 A 
ATOM     19  C   UNL     1       7.355   4.994  14.783  0.00  0.00    +0.000 A 
ATOM     20  C   UNL     1       7.686   5.101  13.427  0.00  0.00    +0.000 A 
ATOM     21  C   UNL     1       6.970   4.383  12.471  0.00  0.00    +0.000 A 
ATOM     22  C   UNL     1       5.932   3.547  12.869  0.00  0.00    +0.000 A 
ATOM     23  C   UNL     1       5.600   3.445  14.220  0.00  0.00    +0.000 A 
ENDBRANCH  16  18
ENDBRANCH  10  16
TORSDOF 4
ENDMDL
MODEL 7
REMARK VINA RESULT:      -7.4      4.708      6.298
REMARK  Name = 
REMARK  7 active torsions:
REMARK  status: ('A' for Active; 'I' for Inactive)
REMARK    1  A    between atoms: C_1  and  C_2
REMARK    2  A    between atoms: C_2  and  C_3
REMARK    3  A    between atoms: C_3  and  C_4
REMARK    4  A    between atoms: C_4  and  C_5
REMARK    5  A    between atoms: N_8  and  C_9
REMARK    6  A    between atoms: N_14  and  N_15
REMARK    7  A    between atoms: N_15  and  C_16
REMARK                            x       y       z     vdW  Elec       q    Type
REMARK                         _______ _______ _______ _____ _____    ______ ____
ROOT
ATOM      1  C   UNL     1       2.498   5.915  18.759  0.00  0.00    +0.000 C 
ATOM      2  C   UNL     1       1.983   4.491  18.544  0.00  0.00    +0.000 C 
ATOM      3  O   UNL     1       1.519   4.102  17.474  0.00  0.00    +0.000 OA
ATOM      4  N   UNL     1       2.234   3.647  19.621  0.00  0.00    +0.000 N 
ATOM      5  C   UNL     1       2.380   2.228  19.376  0.00  0.00    +0.000 C 
ATOM      6  C   UNL     1       2.171   4.075  20.934  0.00  0.00    +0.000 C 
ATOM      7  O   UNL     1       2.200   3.320  21.903  0.00  0.00    +0.000 OA
ATOM      8  N   UNL     1       2.046   5.425  21.124  0.00  0.00    +0.000 N 
ATOM      9  C   UNL     1       2.154   6.386  20.161  0.00  0.00    +0.000 C 
ATOM     10  N   UNL     1       2.051   7.647  20.431  0.00  0.00    +0.000 NA
ATOM     11  H   UNL     1       1.957   5.748  22.078  0.00  0.00    +0.000 HD
ENDROOT
BRANCH   1  13
ATOM     12  C   UNL     1       4.586   5.298  17.281  0.00  0.00    +0.000 C 
ATOM     13  C   UNL     1       4.049   5.749  18.630  0.00  0.00    +0.000 C 
ENDBRANCH   1  13
BRANCH   1  14
ATOM     14  C   UNL     1       1.973   6.893  17.676  0.00  0.00    +0.000 C 
ATOM     15  C   UNL     1       2.645   8.264  17.642  0.00  0.00    +0.000 C 
ENDBRANCH   1  14
BRANCH  10  16
ATOM     16  N   UNL     1       1.720   8.006  21.709  0.00  0.00    +0.000 N 
ATOM     17  H   UNL     1       1.336   7.239  22.268  0.00  0.00    +0.000 HD
BRANCH  16  18
ATOM     18  C   UNL     1       0.820   9.110  21.784  0.00  0.00    +0.000 A 
ATOM     19  C   UNL     1       0.484   9.826  20.627  0.00  0.00    +0.000 A 
ATOM     20  C   UNL     1      -0.424  10.889  20.686  0.00  0.00    +0.000 A 
ATOM     21  C   UNL     1      -1.033  11.226  21.894  0.00  0.00    +0.000 A 
ATOM     22  C   UNL     1      -0.746  10.493  23.040  0.00  0.00    +0.000 A 
ATOM     23  C   UNL     1       0.162   9.436  22.981  0.00  0.00    +0.000 A 
ENDBRANCH  16  18
ENDBRANCH  10  16
TORSDOF 4
ENDMDL
MODEL 8
REMARK VINA RESULT:      -7.3      4.734      6.267
REMARK  Name = 
REMARK  7 active torsions:
REMARK  status: ('A' for Active; 'I' for Inactive)
REMARK    1  A    between atoms: C_1  and  C_2
REMARK    2  A    between atoms: C_2  and  C_3
REMARK    3  A    between atoms: C_3  and  C_4
REMARK    4  A    between atoms: C_4  and  C_5
REMARK    5  A    between atoms: N_8  and  C_9
REMARK    6  A    between atoms: N_14  and  N_15
REMARK    7  A    between atoms: N_15  and  C_16
REMARK                            x       y       z     vdW  Elec       q    Type
REMARK                         _______ _______ _______ _____ _____    ______ ____
ROOT
ATOM      1  C   UNL     1       2.471   5.928  18.753  0.00  0.00    +0.000 C 
ATOM      2  C   UNL     1       1.945   4.508  18.543  0.00  0.00    +0.000 C 
ATOM      3  O   UNL     1       1.481   4.117  17.472  0.00  0.00    +0.000 OA
ATOM      4  N   UNL     1       2.188   3.666  19.622  0.00  0.00    +0.000 N 
ATOM      5  C   UNL     1       2.323   2.244  19.384  0.00  0.00    +0.000 C 
ATOM      6  C   UNL     1       2.126   4.099  20.934  0.00  0.00    +0.000 C 
ATOM      7  O   UNL     1       2.147   3.348  21.906  0.00  0.00    +0.000 OA
ATOM      8  N   UNL     1       2.010   5.451  21.118  0.00  0.00    +0.000 N 
ATOM      9  C   UNL     1       2.128   6.407  20.152  0.00  0.00    +0.000 C 
ATOM     10  N   UNL     1       2.034   7.670  20.417  0.00  0.00    +0.000 NA
ATOM     11  H   UNL     1       1.922   5.778  22.071  0.00  0.00    +0.000 HD
ENDROOT
BRANCH   1  13
ATOM     12  C   UNL     1       4.564   5.363  17.261  0.00  0.00    +0.000 C 
ATOM     13  C   UNL     1       4.021   5.750  18.627  0.00  0.00    +0.000 C 
ENDBRANCH   1  13
BRANCH   1  14
ATOM     14  C   UNL     1       1.955   6.906  17.665  0.00  0.00    +0.000 C 
ATOM     15  C   UNL     1       2.611   8.285  17.651  0.00  0.00    +0.000 C 
ENDBRANCH   1  14
BRANCH  10  16
ATOM     16  N   UNL     1       1.703   8.036  21.693  0.00  0.00    +0.000 N 
ATOM     17  H   UNL     1       1.361   7.263  22.270  0.00  0.00    +0.000 HD
BRANCH  16  18
ATOM     18  C   UNL     1       0.755   9.100  21.761  0.00  0.00    +0.000 A 
ATOM     19  C   UNL     1       0.143   9.421  22.980  0.00  0.00    +0.000 A 
ATOM     20  C   UNL     1      -0.762  10.486  23.065  0.00  0.00    +0.000 A 
ATOM     21  C   UNL     1      -1.039  11.262  21.940  0.00  0.00    +0.000 A 
ATOM     22  C   UNL     1      -0.402  10.985  20.735  0.00  0.00    +0.000 A 
ATOM     23  C   UNL     1       0.497   9.922  20.652  0.00  0.00    +0.000 A 
ENDBRANCH  16  18
ENDBRANCH  10  16
TORSDOF 4
ENDMDL
MODEL 9
REMARK VINA RESULT:      -7.3      3.753      5.472
REMARK  Name = 
REMARK  7 active torsions:
REMARK  status: ('A' for Active; 'I' for Inactive)
REMARK    1  A    between atoms: C_1  and  C_2
REMARK    2  A    between atoms: C_2  and  C_3
REMARK    3  A    between atoms: C_3  and  C_4
REMARK    4  A    between atoms: C_4  and  C_5
REMARK    5  A    between atoms: N_8  and  C_9
REMARK    6  A    between atoms: N_14  and  N_15
REMARK    7  A    between atoms: N_15  and  C_16
REMARK                            x       y       z     vdW  Elec       q    Type
REMARK                         _______ _______ _______ _____ _____    ______ ____
ROOT
ATOM      1  C   UNL     1       3.139   4.846  18.893  0.00  0.00    +0.000 C 
ATOM      2  C   UNL     1       4.563   4.428  18.527  0.00  0.00    +0.000 C 
ATOM      3  O   UNL     1       5.185   3.561  19.140  0.00  0.00    +0.000 OA
ATOM      4  N   UNL     1       5.020   5.005  17.347  0.00  0.00    +0.000 N 
ATOM      5  C   UNL     1       6.016   4.303  16.565  0.00  0.00    +0.000 C 
ATOM      6  C   UNL     1       4.703   6.300  16.980  0.00  0.00    +0.000 C 
ATOM      7  O   UNL     1       5.238   6.900  16.050  0.00  0.00    +0.000 OA
ATOM      8  N   UNL     1       3.749   6.926  17.737  0.00  0.00    +0.000 N 
ATOM      9  C   UNL     1       2.968   6.341  18.691  0.00  0.00    +0.000 C 
ATOM     10  N   UNL     1       2.066   7.000  19.342  0.00  0.00    +0.000 NA
ATOM     11  H   UNL     1       3.538   7.887  17.505  0.00  0.00    +0.000 HD
ENDROOT
BRANCH   1  13
ATOM     12  C   UNL     1       2.570   2.598  17.649  0.00  0.00    +0.000 C 
ATOM     13  C   UNL     1       2.267   4.075  17.846  0.00  0.00    +0.000 C 
ENDBRANCH   1  13
BRANCH   1  14
ATOM     14  C   UNL     1       2.757   4.410  20.332  0.00  0.00    +0.000 C 
ATOM     15  C   UNL     1       1.295   4.017  20.537  0.00  0.00    +0.000 C 
ENDBRANCH   1  14
BRANCH  10  16
ATOM     16  N   UNL     1       1.976   8.349  19.129  0.00  0.00    +0.000 N 
ATOM     17  H   UNL     1       2.883   8.818  19.054  0.00  0.00    +0.000 HD
BRANCH  16  18
ATOM     18  C   UNL     1       1.195   9.037  20.105  0.00  0.00    +0.000 A 
ATOM     19  C   UNL     1       1.065   8.516  21.399  0.00  0.00    +0.000 A 
ATOM     20  C   UNL     1       0.330   9.202  22.373  0.00  0.00    +0.000 A 
ATOM     21  C   UNL     1      -0.254  10.432  22.074  0.00  0.00    +0.000 A 
ATOM     22  C   UNL     1      -0.092  10.984  20.808  0.00  0.00    +0.000 A 
ATOM     23  C   UNL     1       0.638  10.297  19.838  0.00  0.00    +0.000 A 
ENDBRANCH  16  18
ENDBRANCH  10  16
TORSDOF 4
ENDMDL
