MODEL 1
REMARK VINA RESULT:      -6.7      0.000      0.000
REMARK  Name = 
REMARK  2 active torsions:
REMARK  status: ('A' for Active; 'I' for Inactive)
REMARK    1  A    between atoms: C_5  and  C_6
REMARK    2  A    between atoms: C_6  and  N_7
REMARK                            x       y       z     vdW  Elec       q    Type
REMARK                         _______ _______ _______ _____ _____    ______ ____
ROOT
ATOM      1  C   UNL     1       1.421   3.158  20.954  0.00  0.00    +0.000 A 
ATOM      2  C   UNL     1       2.092   2.324  20.052  0.00  0.00    +0.000 A 
ATOM      3  C   UNL     1       2.858   2.855  18.982  0.00  0.00    +0.000 A 
ATOM      4  C   UNL     1       2.946   4.254  18.843  0.00  0.00    +0.000 A 
ATOM      5  C   UNL     1       3.603   5.033  17.833  0.00  0.00    +0.000 A 
ATOM      6  C   UNL     1       3.403   6.404  18.041  0.00  0.00    +0.000 A 
ATOM      7  S   UNL     1       2.478   6.673  19.415  0.00  0.00    +0.000 S 
ATOM      8  C   UNL     1       2.272   5.057  19.769  0.00  0.00    +0.000 A 
ATOM      9  C   UNL     1       1.512   4.543  20.816  0.00  0.00    +0.000 A 
ENDROOT
BRANCH   5  10
ATOM     10  C   UNL     1       4.332   4.592  16.560  0.00  0.00    +0.000 C 
BRANCH  10  11
ATOM     11  N   UNL     1       5.674   3.959  16.678  0.00  0.00    +0.000 NA
ATOM     12  C   UNL     1       6.672   4.731  17.455  0.00  0.00    +0.000 C 
ATOM     13  C   UNL     1       7.110   6.009  16.714  0.00  0.00    +0.000 C 
ATOM     14  O   UNL     1       7.677   5.698  15.455  0.00  0.00    +0.000 OA
ATOM     15  C   UNL     1       6.728   5.021  14.651  0.00  0.00    +0.000 C 
ATOM     16  C   UNL     1       6.257   3.708  15.333  0.00  0.00    +0.000 C 
ENDBRANCH  10  11
ENDBRANCH   5  10
TORSDOF 2
ENDMDL
MODEL 2
REMARK VINA RESULT:      -6.5      2.862      5.701
REMARK  Name = 
REMARK  2 active torsions:
REMARK  status: ('A' for Active; 'I' for Inactive)
REMARK    1  A    between atoms: C_5  and  C_6
REMARK    2  A    between atoms: C_6  and  N_7
REMARK                            x       y       z     vdW  Elec       q    Type
REMARK                         _______ _______ _______ _____ _____    ______ ____
ROOT
ATOM      1  C   UNL     1       6.699   4.460  14.714  0.00  0.00    +0.000 A 
ATOM      2  C   UNL     1       5.334   4.192  14.872  0.00  0.00    +0.000 A 
ATOM      3  C   UNL     1       4.692   4.333  16.130  0.00  0.00    +0.000 A 
ATOM      4  C   UNL     1       5.454   4.764  17.233  0.00  0.00    +0.000 A 
ATOM      5  C   UNL     1       5.065   4.936  18.603  0.00  0.00    +0.000 A 
ATOM      6  C   UNL     1       6.151   5.336  19.392  0.00  0.00    +0.000 A 
ATOM      7  S   UNL     1       7.538   5.501  18.463  0.00  0.00    +0.000 S 
ATOM      8  C   UNL     1       6.813   5.033  17.036  0.00  0.00    +0.000 A 
ATOM      9  C   UNL     1       7.451   4.890  15.808  0.00  0.00    +0.000 A 
ENDROOT
BRANCH   5  10
ATOM     10  C   UNL     1       3.737   4.624  19.301  0.00  0.00    +0.000 C 
BRANCH  10  11
ATOM     11  N   UNL     1       3.528   3.272  19.886  0.00  0.00    +0.000 NA
ATOM     12  C   UNL     1       3.461   2.161  18.907  0.00  0.00    +0.000 C 
ATOM     13  C   UNL     1       2.177   2.222  18.058  0.00  0.00    +0.000 C 
ATOM     14  O   UNL     1       1.023   2.157  18.877  0.00  0.00    +0.000 OA
ATOM     15  C   UNL     1       1.011   3.245  19.784  0.00  0.00    +0.000 C 
ATOM     16  C   UNL     1       2.274   3.232  20.685  0.00  0.00    +0.000 C 
ENDBRANCH  10  11
ENDBRANCH   5  10
TORSDOF 2
ENDMDL
MODEL 3
REMARK VINA RESULT:      -6.5      2.968      5.795
REMARK  Name = 
REMARK  2 active torsions:
REMARK  status: ('A' for Active; 'I' for Inactive)
REMARK    1  A    between atoms: C_5  and  C_6
REMARK    2  A    between atoms: C_6  and  N_7
REMARK                            x       y       z     vdW  Elec       q    Type
REMARK                         _______ _______ _______ _____ _____    ______ ____
ROOT
ATOM      1  C   UNL     1       6.737   4.673  14.572  0.00  0.00    +0.000 A 
ATOM      2  C   UNL     1       5.461   4.130  14.760  0.00  0.00    +0.000 A 
ATOM      3  C   UNL     1       4.848   4.104  16.040  0.00  0.00    +0.000 A 
ATOM      4  C   UNL     1       5.545   4.652  17.134  0.00  0.00    +0.000 A 
ATOM      5  C   UNL     1       5.176   4.704  18.519  0.00  0.00    +0.000 A 
ATOM      6  C   UNL     1       6.186   5.295  19.290  0.00  0.00    +0.000 A 
ATOM      7  S   UNL     1       7.478   5.762  18.328  0.00  0.00    +0.000 S 
ATOM      8  C   UNL     1       6.813   5.196  16.907  0.00  0.00    +0.000 A 
ATOM      9  C   UNL     1       7.424   5.217  15.657  0.00  0.00    +0.000 A 
ENDROOT
BRANCH   5  10
ATOM     10  C   UNL     1       3.963   4.112  19.244  0.00  0.00    +0.000 C 
BRANCH  10  11
ATOM     11  N   UNL     1       2.651   4.806  19.143  0.00  0.00    +0.000 NA
ATOM     12  C   UNL     1       1.864   4.861  20.398  0.00  0.00    +0.000 C 
ATOM     13  C   UNL     1       1.335   3.471  20.803  0.00  0.00    +0.000 C 
ATOM     14  O   UNL     1       0.509   2.928  19.789  0.00  0.00    +0.000 OA
ATOM     15  C   UNL     1       1.245   2.790  18.587  0.00  0.00    +0.000 C 
ATOM     16  C   UNL     1       1.794   4.163  18.112  0.00  0.00    +0.000 C 
ENDBRANCH  10  11
ENDBRANCH   5  10
TORSDOF 2
ENDMDL
MODEL 4
REMARK VINA RESULT:      -6.5      3.017      5.892
REMARK  Name = 
REMARK  2 active torsions:
REMARK  status: ('A' for Active; 'I' for Inactive)
REMARK    1  A    between atoms: C_5  and  C_6
REMARK    2  A    between atoms: C_6  and  N_7
REMARK                            x       y       z     vdW  Elec       q    Type
REMARK                         _______ _______ _______ _____ _____    ______ ____
ROOT
ATOM      1  C   UNL     1       6.639   4.543  14.711  0.00  0.00    +0.000 A 
ATOM      2  C   UNL     1       5.269   4.314  14.881  0.00  0.00    +0.000 A 
ATOM      3  C   UNL     1       4.646   4.455  16.149  0.00  0.00    +0.000 A 
ATOM      4  C   UNL     1       5.433   4.848  17.249  0.00  0.00    +0.000 A 
ATOM      5  C   UNL     1       5.064   5.012  18.625  0.00  0.00    +0.000 A 
ATOM      6  C   UNL     1       6.171   5.369  19.407  0.00  0.00    +0.000 A 
ATOM      7  S   UNL     1       7.551   5.506  18.464  0.00  0.00    +0.000 S 
ATOM      8  C   UNL     1       6.796   5.080  17.039  0.00  0.00    +0.000 A 
ATOM      9  C   UNL     1       7.416   4.935  15.802  0.00  0.00    +0.000 A 
ENDROOT
BRANCH   5  10
ATOM     10  C   UNL     1       3.736   4.730  19.335  0.00  0.00    +0.000 C 
BRANCH  10  11
ATOM     11  N   UNL     1       3.067   3.418  19.122  0.00  0.00    +0.000 NA
ATOM     12  C   UNL     1       1.599   3.480  18.923  0.00  0.00    +0.000 C 
ATOM     13  C   UNL     1       0.863   3.881  20.215  0.00  0.00    +0.000 C 
ATOM     14  O   UNL     1       1.128   2.960  21.258  0.00  0.00    +0.000 OA
ATOM     15  C   UNL     1       2.517   2.923  21.530  0.00  0.00    +0.000 C 
ATOM     16  C   UNL     1       3.319   2.506  20.268  0.00  0.00    +0.000 C 
ENDBRANCH  10  11
ENDBRANCH   5  10
TORSDOF 2
ENDMDL
MODEL 5
REMARK VINA RESULT:      -6.4      1.590      2.547
REMARK  Name = 
REMARK  2 active torsions:
REMARK  status: ('A' for Active; 'I' for Inactive)
REMARK    1  A    between atoms: C_5  and  C_6
REMARK    2  A    between atoms: C_6  and  N_7
REMARK                            x       y       z     vdW  Elec       q    Type
REMARK                         _______ _______ _______ _____ _____    ______ ____
ROOT
ATOM      1  C   UNL     1       1.364   5.607  20.911  0.00  0.00    +0.000 A 
ATOM      2  C   UNL     1       2.166   6.375  20.059  0.00  0.00    +0.000 A 
ATOM      3  C   UNL     1       2.822   5.798  18.940  0.00  0.00    +0.000 A 
ATOM      4  C   UNL     1       2.644   4.425  18.685  0.00  0.00    +0.000 A 
ATOM      5  C   UNL     1       3.226   3.600  17.666  0.00  0.00    +0.000 A 
ATOM      6  C   UNL     1       2.818   2.266  17.800  0.00  0.00    +0.000 A 
ATOM      7  S   UNL     1       1.768   2.088  19.096  0.00  0.00    +0.000 S 
ATOM      8  C   UNL     1       1.826   3.691  19.551  0.00  0.00    +0.000 A 
ATOM      9  C   UNL     1       1.187   4.247  20.655  0.00  0.00    +0.000 A 
ENDROOT
BRANCH   5  10
ATOM     10  C   UNL     1       4.277   3.934  16.603  0.00  0.00    +0.000 C 
BRANCH  10  11
ATOM     11  N   UNL     1       4.933   5.270  16.629  0.00  0.00    +0.000 NA
ATOM     12  C   UNL     1       5.411   5.768  15.317  0.00  0.00    +0.000 C 
ATOM     13  C   UNL     1       6.614   4.955  14.801  0.00  0.00    +0.000 C 
ATOM     14  O   UNL     1       7.695   5.013  15.714  0.00  0.00    +0.000 OA
ATOM     15  C   UNL     1       7.301   4.479  16.966  0.00  0.00    +0.000 C 
ATOM     16  C   UNL     1       6.099   5.266  17.552  0.00  0.00    +0.000 C 
ENDBRANCH  10  11
ENDBRANCH   5  10
TORSDOF 2
ENDMDL
MODEL 6
REMARK VINA RESULT:      -6.4      1.341      2.219
REMARK  Name = 
REMARK  2 active torsions:
REMARK  status: ('A' for Active; 'I' for Inactive)
REMARK    1  A    between atoms: C_5  and  C_6
REMARK    2  A    between atoms: C_6  and  N_7
REMARK                            x       y       z     vdW  Elec       q    Type
REMARK                         _______ _______ _______ _____ _____    ______ ____
ROOT
ATOM      1  C   UNL     1       1.702   6.308  20.583  0.00  0.00    +0.000 A 
ATOM      2  C   UNL     1       2.321   6.987  19.528  0.00  0.00    +0.000 A 
ATOM      3  C   UNL     1       2.951   6.288  18.466  0.00  0.00    +0.000 A 
ATOM      4  C   UNL     1       2.935   4.880  18.479  0.00  0.00    +0.000 A 
ATOM      5  C   UNL     1       3.533   3.949  17.567  0.00  0.00    +0.000 A 
ATOM      6  C   UNL     1       3.317   2.627  17.977  0.00  0.00    +0.000 A 
ATOM      7  S   UNL     1       2.412   2.579  19.389  0.00  0.00    +0.000 S 
ATOM      8  C   UNL     1       2.297   4.235  19.544  0.00  0.00    +0.000 A 
ATOM      9  C   UNL     1       1.684   4.913  20.593  0.00  0.00    +0.000 A 
ENDROOT
BRANCH   5  10
ATOM     10  C   UNL     1       4.439   4.194  16.355  0.00  0.00    +0.000 C 
BRANCH  10  11
ATOM     11  N   UNL     1       5.859   3.753  16.413  0.00  0.00    +0.000 NA
ATOM     12  C   UNL     1       6.723   4.520  17.342  0.00  0.00    +0.000 C 
ATOM     13  C   UNL     1       6.970   5.955  16.840  0.00  0.00    +0.000 C 
ATOM     14  O   UNL     1       7.590   5.948  15.567  0.00  0.00    +0.000 OA
ATOM     15  C   UNL     1       6.762   5.285  14.629  0.00  0.00    +0.000 C 
ATOM     16  C   UNL     1       6.487   3.822  15.067  0.00  0.00    +0.000 C 
ENDBRANCH  10  11
ENDBRANCH   5  10
TORSDOF 2
ENDMDL
MODEL 7
REMARK VINA RESULT:      -6.3      1.962      2.615
REMARK  Name = 
REMARK  2 active torsions:
REMARK  status: ('A' for Active; 'I' for Inactive)
REMARK    1  A    between atoms: C_5  and  C_6
REMARK    2  A    between atoms: C_6  and  N_7
REMARK                            x       y       z     vdW  Elec       q    Type
REMARK                         _______ _______ _______ _____ _____    ______ ____
ROOT
ATOM      1  C   UNL     1       1.420   3.388  21.135  0.00  0.00    +0.000 A 
ATOM      2  C   UNL     1       1.974   4.674  21.154  0.00  0.00    +0.000 A 
ATOM      3  C   UNL     1       2.858   5.113  20.134  0.00  0.00    +0.000 A 
ATOM      4  C   UNL     1       3.166   4.232  19.079  0.00  0.00    +0.000 A 
ATOM      5  C   UNL     1       4.057   4.409  17.970  0.00  0.00    +0.000 A 
ATOM      6  C   UNL     1       4.110   3.257  17.174  0.00  0.00    +0.000 A 
ATOM      7  S   UNL     1       3.096   2.065  17.777  0.00  0.00    +0.000 S 
ATOM      8  C   UNL     1       2.585   2.959  19.088  0.00  0.00    +0.000 A 
ATOM      9  C   UNL     1       1.724   2.518  20.089  0.00  0.00    +0.000 A 
ENDROOT
BRANCH   5  10
ATOM     10  C   UNL     1       5.005   5.566  17.636  0.00  0.00    +0.000 C 
BRANCH  10  11
ATOM     11  N   UNL     1       6.393   5.259  17.198  0.00  0.00    +0.000 NA
ATOM     12  C   UNL     1       7.303   4.778  18.266  0.00  0.00    +0.000 C 
ATOM     13  C   UNL     1       7.644   5.894  19.272  0.00  0.00    +0.000 C 
ATOM     14  O   UNL     1       8.265   6.989  18.625  0.00  0.00    +0.000 OA
ATOM     15  C   UNL     1       7.398   7.526  17.642  0.00  0.00    +0.000 C 
ATOM     16  C   UNL     1       7.028   6.454  16.583  0.00  0.00    +0.000 C 
ENDBRANCH  10  11
ENDBRANCH   5  10
TORSDOF 2
ENDMDL
MODEL 8
REMARK VINA RESULT:      -6.3      2.828      5.777
REMARK  Name = 
REMARK  2 active torsions:
REMARK  status: ('A' for Active; 'I' for Inactive)
REMARK    1  A    between atoms: C_5  and  C_6
REMARK    2  A    between atoms: C_6  and  N_7
REMARK                            x       y       z     vdW  Elec       q    Type
REMARK                         _______ _______ _______ _____ _____    ______ ____
ROOT
ATOM      1  C   UNL     1       6.952   4.891  14.618  0.00  0.00    +0.000 A 
ATOM      2  C   UNL     1       5.862   4.015  14.584  0.00  0.00    +0.000 A 
ATOM      3  C   UNL     1       5.136   3.691  15.760  0.00  0.00    +0.000 A 
ATOM      4  C   UNL     1       5.524   4.281  16.979  0.00  0.00    +0.000 A 
ATOM      5  C   UNL     1       4.998   4.085  18.298  0.00  0.00    +0.000 A 
ATOM      6  C   UNL     1       5.710   4.834  19.244  0.00  0.00    +0.000 A 
ATOM      7  S   UNL     1       6.926   5.725  18.509  0.00  0.00    +0.000 S 
ATOM      8  C   UNL     1       6.611   5.161  16.972  0.00  0.00    +0.000 A 
ATOM      9  C   UNL     1       7.333   5.477  15.825  0.00  0.00    +0.000 A 
ENDROOT
BRANCH   5  10
ATOM     10  C   UNL     1       3.919   3.119  18.800  0.00  0.00    +0.000 C 
BRANCH  10  11
ATOM     11  N   UNL     1       2.508   3.327  18.374  0.00  0.00    +0.000 NA
ATOM     12  C   UNL     1       1.975   4.693  18.593  0.00  0.00    +0.000 C 
ATOM     13  C   UNL     1       1.787   5.000  20.092  0.00  0.00    +0.000 C 
ATOM     14  O   UNL     1       0.896   4.078  20.692  0.00  0.00    +0.000 OA
ATOM     15  C   UNL     1       1.406   2.762  20.568  0.00  0.00    +0.000 C 
ATOM     16  C   UNL     1       1.601   2.380  19.076  0.00  0.00    +0.000 C 
ENDBRANCH  10  11
ENDBRANCH   5  10
TORSDOF 2
ENDMDL
MODEL 9
REMARK VINA RESULT:      -6.2      2.928      5.503
REMARK  Name = 
REMARK  2 active torsions:
REMARK  status: ('A' for Active; 'I' for Inactive)
REMARK    1  A    between atoms: C_5  and  C_6
REMARK    2  A    between atoms: C_6  and  N_7
REMARK                            x       y       z     vdW  Elec       q    Type
REMARK                         _______ _______ _______ _____ _____    ______ ____
ROOT
ATOM      1  C   UNL     1       7.805   6.571  18.509  0.00  0.00    +0.000 A 
ATOM      2  C   UNL     1       7.213   5.748  19.474  0.00  0.00    +0.000 A 
ATOM      3  C   UNL     1       6.189   4.826  19.133  0.00  0.00    +0.000 A 
ATOM      4  C   UNL     1       5.778   4.737  17.789  0.00  0.00    +0.000 A 
ATOM      5  C   UNL     1       4.745   3.936  17.199  0.00  0.00    +0.000 A 
ATOM      6  C   UNL     1       4.630   4.189  15.826  0.00  0.00    +0.000 A 
ATOM      7  S   UNL     1       5.755   5.330  15.331  0.00  0.00    +0.000 S 
ATOM      8  C   UNL     1       6.400   5.567  16.850  0.00  0.00    +0.000 A 
ATOM      9  C   UNL     1       7.398   6.480  17.177  0.00  0.00    +0.000 A 
ENDROOT
BRANCH   5  10
ATOM     10  C   UNL     1       3.722   3.002  17.853  0.00  0.00    +0.000 C 
BRANCH  10  11
ATOM     11  N   UNL     1       2.273   3.324  17.740  0.00  0.00    +0.000 NA
ATOM     12  C   UNL     1       1.894   4.693  18.164  0.00  0.00    +0.000 C 
ATOM     13  C   UNL     1       2.030   4.878  19.688  0.00  0.00    +0.000 C 
ATOM     14  O   UNL     1       1.211   3.957  20.386  0.00  0.00    +0.000 OA
ATOM     15  C   UNL     1       1.590   2.631  20.064  0.00  0.00    +0.000 C 
ATOM     16  C   UNL     1       1.458   2.372  18.539  0.00  0.00    +0.000 C 
ENDBRANCH  10  11
ENDBRANCH   5  10
TORSDOF 2
ENDMDL
