MODEL 1
REMARK VINA RESULT:      -6.4      0.000      0.000
REMARK  Name = 
REMARK  5 active torsions:
REMARK  status: ('A' for Active; 'I' for Inactive)
REMARK    1  A    between atoms: N_1  and  C_2
REMARK    2  A    between atoms: C_2  and  C_3
REMARK    3  A    between atoms: C_3  and  N_4
REMARK    4  A    between atoms: N_4  and  C_14
REMARK    5  A    between atoms: C_5  and  C_7
REMARK                            x       y       z     vdW  Elec       q    Type
REMARK                         _______ _______ _______ _____ _____    ______ ____
ROOT
ATOM      1  N   UNL     1       2.554   6.180  19.653  0.00  0.00    +0.000 N 
ATOM      2  C   UNL     1       2.272   7.521  19.446  0.00  0.00    +0.000 C 
ATOM      3  O   UNL     1       2.816   8.061  18.489  0.00  0.00    +0.000 OA
ENDROOT
BRANCH   2   4
ATOM      4  C   UNL     1       1.311   8.412  20.234  0.00  0.00    +0.000 A 
ATOM      5  C   UNL     1       0.432   9.384  19.694  0.00  0.00    +0.000 A 
ATOM      6  C   UNL     1      -0.299  10.244  20.513  0.00  0.00    +0.000 A 
ATOM      7  C   UNL     1      -0.209  10.149  21.895  0.00  0.00    +0.000 A 
ATOM      8 CL   UNL     1      -1.095  11.271  22.909  0.00  0.00    +0.000 Cl
ATOM      9  C   UNL     1       0.597   9.166  22.465  0.00  0.00    +0.000 A 
ATOM     10  C   UNL     1       1.344   8.312  21.650  0.00  0.00    +0.000 A 
ENDBRANCH   2   4
BRANCH   1  11
ATOM     11  C   UNL     1       3.361   5.501  18.688  0.00  0.00    +0.000 A 
ATOM     12  C   UNL     1       2.785   4.721  17.674  0.00  0.00    +0.000 A 
ATOM     13  C   UNL     1       3.598   4.085  16.732  0.00  0.00    +0.000 A 
ATOM     14  C   UNL     1       4.993   4.231  16.788  0.00  0.00    +0.000 A 
ATOM     15 CL   UNL     1       6.013   3.445  15.597  0.00  0.00    +0.000 Cl
ATOM     16  C   UNL     1       5.569   5.009  17.796  0.00  0.00    +0.000 A 
ATOM     17  C   UNL     1       4.759   5.639  18.743  0.00  0.00    +0.000 A 
ENDBRANCH   1  11
BRANCH   1  18
ATOM     18  C   UNL     1       2.094   5.361  20.770  0.00  0.00    +0.000 C 
BRANCH  18  19
ATOM     19  C   UNL     1       0.917   4.418  20.410  0.00  0.00    +0.000 C 
BRANCH  19  20
ATOM     20  N   UNL     1       1.009   3.096  21.019  0.00  0.00    +0.000 NA
ATOM     21  H   UNL     1       1.635   3.140  21.855  0.00  0.00    +0.000 HD
ATOM     22  H   UNL     1       1.413   2.416  20.334  0.00  0.00    +0.000 HD
ENDBRANCH  19  20
ENDBRANCH  18  19
ENDBRANCH   1  18
TORSDOF 5
ENDMDL
MODEL 2
REMARK VINA RESULT:      -6.2      0.295      1.099
REMARK  Name = 
REMARK  5 active torsions:
REMARK  status: ('A' for Active; 'I' for Inactive)
REMARK    1  A    between atoms: N_1  and  C_2
REMARK    2  A    between atoms: C_2  and  C_3
REMARK    3  A    between atoms: C_3  and  N_4
REMARK    4  A    between atoms: N_4  and  C_14
REMARK    5  A    between atoms: C_5  and  C_7
REMARK                            x       y       z     vdW  Elec       q    Type
REMARK                         _______ _______ _______ _____ _____    ______ ____
ROOT
ATOM      1  N   UNL     1       2.672   6.281  19.449  0.00  0.00    +0.000 N 
ATOM      2  C   UNL     1       2.307   7.605  19.261  0.00  0.00    +0.000 C 
ATOM      3  O   UNL     1       2.776   8.177  18.282  0.00  0.00    +0.000 OA
ENDROOT
BRANCH   2   4
ATOM      4  C   UNL     1       1.332   8.438  20.094  0.00  0.00    +0.000 A 
ATOM      5  C   UNL     1       0.410   9.395  19.601  0.00  0.00    +0.000 A 
ATOM      6  C   UNL     1      -0.332  10.205  20.461  0.00  0.00    +0.000 A 
ATOM      7  C   UNL     1      -0.211  10.072  21.837  0.00  0.00    +0.000 A 
ATOM      8 CL   UNL     1      -1.112  11.133  22.902  0.00  0.00    +0.000 Cl
ATOM      9  C   UNL     1       0.640   9.101  22.361  0.00  0.00    +0.000 A 
ATOM     10  C   UNL     1       1.399   8.297  21.505  0.00  0.00    +0.000 A 
ENDBRANCH   2   4
BRANCH   1  11
ATOM     11  C   UNL     1       3.473   5.651  18.446  0.00  0.00    +0.000 A 
ATOM     12  C   UNL     1       4.803   6.038  18.225  0.00  0.00    +0.000 A 
ATOM     13  C   UNL     1       5.568   5.391  17.250  0.00  0.00    +0.000 A 
ATOM     14  C   UNL     1       5.014   4.345  16.494  0.00  0.00    +0.000 A 
ATOM     15 CL   UNL     1       5.977   3.524  15.280  0.00  0.00    +0.000 Cl
ATOM     16  C   UNL     1       3.689   3.959  16.713  0.00  0.00    +0.000 A 
ATOM     17  C   UNL     1       2.921   4.608  17.682  0.00  0.00    +0.000 A 
ENDBRANCH   1  11
BRANCH   1  18
ATOM     18  C   UNL     1       2.309   5.436  20.581  0.00  0.00    +0.000 C 
BRANCH  18  19
ATOM     19  C   UNL     1       0.958   4.696  20.401  0.00  0.00    +0.000 C 
BRANCH  19  20
ATOM     20  N   UNL     1       0.980   3.305  20.838  0.00  0.00    +0.000 NA
ATOM     21  H   UNL     1       1.768   2.805  20.368  0.00  0.00    +0.000 HD
ATOM     22  H   UNL     1       0.082   2.836  20.577  0.00  0.00    +0.000 HD
ENDBRANCH  19  20
ENDBRANCH  18  19
ENDBRANCH   1  18
TORSDOF 5
ENDMDL
MODEL 3
REMARK VINA RESULT:      -6.2      2.897      7.303
REMARK  Name = 
REMARK  5 active torsions:
REMARK  status: ('A' for Active; 'I' for Inactive)
REMARK    1  A    between atoms: N_1  and  C_2
REMARK    2  A    between atoms: C_2  and  C_3
REMARK    3  A    between atoms: C_3  and  N_4
REMARK    4  A    between atoms: N_4  and  C_14
REMARK    5  A    between atoms: C_5  and  C_7
REMARK                            x       y       z     vdW  Elec       q    Type
REMARK                         _______ _______ _______ _____ _____    ______ ____
ROOT
ATOM      1  N   UNL     1       0.987   9.722  19.532  0.00  0.00    +0.000 N 
ATOM      2  C   UNL     1       1.815   9.102  18.609  0.00  0.00    +0.000 C 
ATOM      3  O   UNL     1       2.144   9.761  17.628  0.00  0.00    +0.000 OA
ENDROOT
BRANCH   2   4
ATOM      4  C   UNL     1       2.428   7.704  18.688  0.00  0.00    +0.000 A 
ATOM      5  C   UNL     1       2.228   6.755  19.721  0.00  0.00    +0.000 A 
ATOM      6  C   UNL     1       2.950   5.563  19.769  0.00  0.00    +0.000 A 
ATOM      7  C   UNL     1       3.871   5.254  18.776  0.00  0.00    +0.000 A 
ATOM      8 CL   UNL     1       4.806   3.776  18.879  0.00  0.00    +0.000 Cl
ATOM      9  C   UNL     1       4.052   6.133  17.711  0.00  0.00    +0.000 A 
ATOM     10  C   UNL     1       3.344   7.337  17.666  0.00  0.00    +0.000 A 
ENDBRANCH   2   4
BRANCH   1  11
ATOM     11  C   UNL     1       0.667  11.101  19.335  0.00  0.00    +0.000 A 
ATOM     12  C   UNL     1       1.528  12.120  19.771  0.00  0.00    +0.000 A 
ATOM     13  C   UNL     1       1.198  13.459  19.546  0.00  0.00    +0.000 A 
ATOM     14  C   UNL     1       0.011  13.793  18.874  0.00  0.00    +0.000 A 
ATOM     15 CL   UNL     1      -0.396  15.474  18.580  0.00  0.00    +0.000 Cl
ATOM     16  C   UNL     1      -0.847  12.780  18.439  0.00  0.00    +0.000 A 
ATOM     17  C   UNL     1      -0.524  11.441  18.669  0.00  0.00    +0.000 A 
ENDBRANCH   1  11
BRANCH   1  18
ATOM     18  C   UNL     1       0.403   9.108  20.720  0.00  0.00    +0.000 C 
BRANCH  18  19
ATOM     19  C   UNL     1       1.224   9.347  22.014  0.00  0.00    +0.000 C 
BRANCH  19  20
ATOM     20  N   UNL     1       0.441   9.874  23.125  0.00  0.00    +0.000 NA
ATOM     21  H   UNL     1      -0.181   9.122  23.501  0.00  0.00    +0.000 HD
ATOM     22  H   UNL     1      -0.157  10.667  22.795  0.00  0.00    +0.000 HD
ENDBRANCH  19  20
ENDBRANCH  18  19
ENDBRANCH   1  18
TORSDOF 5
ENDMDL
MODEL 4
REMARK VINA RESULT:      -6.1      2.779      7.161
REMARK  Name = 
REMARK  5 active torsions:
REMARK  status: ('A' for Active; 'I' for Inactive)
REMARK    1  A    between atoms: N_1  and  C_2
REMARK    2  A    between atoms: C_2  and  C_3
REMARK    3  A    between atoms: C_3  and  N_4
REMARK    4  A    between atoms: N_4  and  C_14
REMARK    5  A    between atoms: C_5  and  C_7
REMARK                            x       y       z     vdW  Elec       q    Type
REMARK                         _______ _______ _______ _____ _____    ______ ____
ROOT
ATOM      1  N   UNL     1       0.972   9.617  19.437  0.00  0.00    +0.000 N 
ATOM      2  C   UNL     1       1.821   8.977  18.546  0.00  0.00    +0.000 C 
ATOM      3  O   UNL     1       2.161   9.610  17.552  0.00  0.00    +0.000 OA
ENDROOT
BRANCH   2   4
ATOM      4  C   UNL     1       2.444   7.587  18.677  0.00  0.00    +0.000 A 
ATOM      5  C   UNL     1       2.222   6.662  19.727  0.00  0.00    +0.000 A 
ATOM      6  C   UNL     1       2.952   5.478  19.825  0.00  0.00    +0.000 A 
ATOM      7  C   UNL     1       3.905   5.154  18.867  0.00  0.00    +0.000 A 
ATOM      8 CL   UNL     1       4.850   3.688  19.033  0.00  0.00    +0.000 Cl
ATOM      9  C   UNL     1       4.109   6.009  17.787  0.00  0.00    +0.000 A 
ATOM     10  C   UNL     1       3.392   7.205  17.691  0.00  0.00    +0.000 A 
ENDBRANCH   2   4
BRANCH   1  11
ATOM     11  C   UNL     1       0.644  10.987  19.193  0.00  0.00    +0.000 A 
ATOM     12  C   UNL     1      -0.625  11.362  18.727  0.00  0.00    +0.000 A 
ATOM     13  C   UNL     1      -0.924  12.711  18.516  0.00  0.00    +0.000 A 
ATOM     14  C   UNL     1       0.040  13.698  18.778  0.00  0.00    +0.000 A 
ATOM     15 CL   UNL     1      -0.339  15.392  18.526  0.00  0.00    +0.000 Cl
ATOM     16  C   UNL     1       1.304  13.327  19.242  0.00  0.00    +0.000 A 
ATOM     17  C   UNL     1       1.607  11.980  19.447  0.00  0.00    +0.000 A 
ENDBRANCH   1  11
BRANCH   1  18
ATOM     18  C   UNL     1       0.373   9.034  20.632  0.00  0.00    +0.000 C 
BRANCH  18  19
ATOM     19  C   UNL     1       0.746   9.776  21.943  0.00  0.00    +0.000 C 
BRANCH  19  20
ATOM     20  N   UNL     1       1.948   9.265  22.592  0.00  0.00    +0.000 NA
ATOM     21  H   UNL     1       1.769   9.148  23.615  0.00  0.00    +0.000 HD
ATOM     22  H   UNL     1       2.735   9.943  22.466  0.00  0.00    +0.000 HD
ENDBRANCH  19  20
ENDBRANCH  18  19
ENDBRANCH   1  18
TORSDOF 5
ENDMDL
MODEL 5
REMARK VINA RESULT:      -6.0      0.287      1.100
REMARK  Name = 
REMARK  5 active torsions:
REMARK  status: ('A' for Active; 'I' for Inactive)
REMARK    1  A    between atoms: N_1  and  C_2
REMARK    2  A    between atoms: C_2  and  C_3
REMARK    3  A    between atoms: C_3  and  N_4
REMARK    4  A    between atoms: N_4  and  C_14
REMARK    5  A    between atoms: C_5  and  C_7
REMARK                            x       y       z     vdW  Elec       q    Type
REMARK                         _______ _______ _______ _____ _____    ______ ____
ROOT
ATOM      1  N   UNL     1       2.531   6.154  19.729  0.00  0.00    +0.000 N 
ATOM      2  C   UNL     1       2.336   7.513  19.536  0.00  0.00    +0.000 C 
ATOM      3  O   UNL     1       2.887   8.021  18.565  0.00  0.00    +0.000 OA
ENDROOT
BRANCH   2   4
ATOM      4  C   UNL     1       1.461   8.462  20.355  0.00  0.00    +0.000 A 
ATOM      5  C   UNL     1       1.185   8.364  21.742  0.00  0.00    +0.000 A 
ATOM      6  C   UNL     1       0.256   9.199  22.363  0.00  0.00    +0.000 A 
ATOM      7  C   UNL     1      -0.406  10.181  21.639  0.00  0.00    +0.000 A 
ATOM      8 CL   UNL     1      -1.607  11.187  22.424  0.00  0.00    +0.000 Cl
ATOM      9  C   UNL     1      -0.118  10.349  20.287  0.00  0.00    +0.000 A 
ATOM     10  C   UNL     1       0.800   9.505  19.655  0.00  0.00    +0.000 A 
ENDBRANCH   2   4
BRANCH   1  11
ATOM     11  C   UNL     1       3.261   5.428  18.737  0.00  0.00    +0.000 A 
ATOM     12  C   UNL     1       2.604   4.704  17.731  0.00  0.00    +0.000 A 
ATOM     13  C   UNL     1       3.344   4.021  16.762  0.00  0.00    +0.000 A 
ATOM     14  C   UNL     1       4.747   4.062  16.784  0.00  0.00    +0.000 A 
ATOM     15 CL   UNL     1       5.676   3.215  15.561  0.00  0.00    +0.000 Cl
ATOM     16  C   UNL     1       5.403   4.783  17.785  0.00  0.00    +0.000 A 
ATOM     17  C   UNL     1       4.667   5.461  18.758  0.00  0.00    +0.000 A 
ENDBRANCH   1  11
BRANCH   1  18
ATOM     18  C   UNL     1       2.049   5.362  20.855  0.00  0.00    +0.000 C 
BRANCH  18  19
ATOM     19  C   UNL     1       0.959   4.328  20.470  0.00  0.00    +0.000 C 
BRANCH  19  20
ATOM     20  N   UNL     1       1.065   3.061  21.184  0.00  0.00    +0.000 NA
ATOM     21  H   UNL     1       0.772   3.196  22.179  0.00  0.00    +0.000 HD
ATOM     22  H   UNL     1       2.056   2.726  21.170  0.00  0.00    +0.000 HD
ENDBRANCH  19  20
ENDBRANCH  18  19
ENDBRANCH   1  18
TORSDOF 5
ENDMDL
MODEL 6
REMARK VINA RESULT:      -6.0      2.705      7.753
REMARK  Name = 
REMARK  5 active torsions:
REMARK  status: ('A' for Active; 'I' for Inactive)
REMARK    1  A    between atoms: N_1  and  C_2
REMARK    2  A    between atoms: C_2  and  C_3
REMARK    3  A    between atoms: C_3  and  N_4
REMARK    4  A    between atoms: N_4  and  C_14
REMARK    5  A    between atoms: C_5  and  C_7
REMARK                            x       y       z     vdW  Elec       q    Type
REMARK                         _______ _______ _______ _____ _____    ______ ____
ROOT
ATOM      1  N   UNL     1       0.684   9.859  20.150  0.00  0.00    +0.000 N 
ATOM      2  C   UNL     1       1.390   8.800  20.701  0.00  0.00    +0.000 C 
ATOM      3  O   UNL     1       1.616   8.851  21.905  0.00  0.00    +0.000 OA
ENDROOT
BRANCH   2   4
ATOM      4  C   UNL     1       1.877   7.531  20.001  0.00  0.00    +0.000 A 
ATOM      5  C   UNL     1       2.518   7.460  18.739  0.00  0.00    +0.000 A 
ATOM      6  C   UNL     1       2.792   6.238  18.126  0.00  0.00    +0.000 A 
ATOM      7  C   UNL     1       2.470   5.043  18.757  0.00  0.00    +0.000 A 
ATOM      8 CL   UNL     1       2.775   3.518  17.950  0.00  0.00    +0.000 Cl
ATOM      9  C   UNL     1       1.895   5.070  20.024  0.00  0.00    +0.000 A 
ATOM     10  C   UNL     1       1.603   6.292  20.637  0.00  0.00    +0.000 A 
ENDBRANCH   2   4
BRANCH   1  11
ATOM     11  C   UNL     1       0.183  10.868  21.030  0.00  0.00    +0.000 A 
ATOM     12  C   UNL     1       0.581  12.208  20.906  0.00  0.00    +0.000 A 
ATOM     13  C   UNL     1       0.059  13.176  21.768  0.00  0.00    +0.000 A 
ATOM     14  C   UNL     1      -0.874  12.816  22.754  0.00  0.00    +0.000 A 
ATOM     15 CL   UNL     1      -1.540  14.033  23.828  0.00  0.00    +0.000 Cl
ATOM     16  C   UNL     1      -1.272  11.483  22.878  0.00  0.00    +0.000 A 
ATOM     17  C   UNL     1      -0.747  10.512  22.023  0.00  0.00    +0.000 A 
ENDBRANCH   1  11
BRANCH   1  18
ATOM     18  C   UNL     1       0.380  10.054  18.736  0.00  0.00    +0.000 C 
BRANCH  18  19
ATOM     19  C   UNL     1      -1.131  10.249  18.444  0.00  0.00    +0.000 C 
BRANCH  19  20
ATOM     20  N   UNL     1      -1.419  11.327  17.504  0.00  0.00    +0.000 NA
ATOM     21  H   UNL     1      -1.642  10.921  16.567  0.00  0.00    +0.000 HD
ATOM     22  H   UNL     1      -0.583  11.948  17.409  0.00  0.00    +0.000 HD
ENDBRANCH  19  20
ENDBRANCH  18  19
ENDBRANCH   1  18
TORSDOF 5
ENDMDL
MODEL 7
REMARK VINA RESULT:      -5.9      2.764      7.761
REMARK  Name = 
REMARK  5 active torsions:
REMARK  status: ('A' for Active; 'I' for Inactive)
REMARK    1  A    between atoms: N_1  and  C_2
REMARK    2  A    between atoms: C_2  and  C_3
REMARK    3  A    between atoms: C_3  and  N_4
REMARK    4  A    between atoms: N_4  and  C_14
REMARK    5  A    between atoms: C_5  and  C_7
REMARK                            x       y       z     vdW  Elec       q    Type
REMARK                         _______ _______ _______ _____ _____    ______ ____
ROOT
ATOM      1  N   UNL     1       0.673   9.993  20.176  0.00  0.00    +0.000 N 
ATOM      2  C   UNL     1       1.328   8.903  20.730  0.00  0.00    +0.000 C 
ATOM      3  O   UNL     1       1.476   8.905  21.948  0.00  0.00    +0.000 OA
ENDROOT
BRANCH   2   4
ATOM      4  C   UNL     1       1.844   7.654  20.016  0.00  0.00    +0.000 A 
ATOM      5  C   UNL     1       2.435   7.606  18.729  0.00  0.00    +0.000 A 
ATOM      6  C   UNL     1       2.739   6.395  18.108  0.00  0.00    +0.000 A 
ATOM      7  C   UNL     1       2.498   5.190  18.755  0.00  0.00    +0.000 A 
ATOM      8 CL   UNL     1       2.838   3.675  17.941  0.00  0.00    +0.000 Cl
ATOM      9  C   UNL     1       1.974   5.197  20.045  0.00  0.00    +0.000 A 
ATOM     10  C   UNL     1       1.652   6.407  20.666  0.00  0.00    +0.000 A 
ENDBRANCH   2   4
BRANCH   1  11
ATOM     11  C   UNL     1       0.128  10.975  21.060  0.00  0.00    +0.000 A 
ATOM     12  C   UNL     1      -0.795  10.627  22.058  0.00  0.00    +0.000 A 
ATOM     13  C   UNL     1      -1.295  11.606  22.921  0.00  0.00    +0.000 A 
ATOM     14  C   UNL     1      -0.871  12.939  22.801  0.00  0.00    +0.000 A 
ATOM     15 CL   UNL     1      -1.490  14.166  23.892  0.00  0.00    +0.000 Cl
ATOM     16  C   UNL     1       0.048  13.287  21.808  0.00  0.00    +0.000 A 
ATOM     17  C   UNL     1       0.544  12.313  20.941  0.00  0.00    +0.000 A 
ENDBRANCH   1  11
BRANCH   1  18
ATOM     18  C   UNL     1       0.463  10.245  18.755  0.00  0.00    +0.000 C 
BRANCH  18  19
ATOM     19  C   UNL     1      -1.031  10.266  18.338  0.00  0.00    +0.000 C 
BRANCH  19  20
ATOM     20  N   UNL     1      -1.403  11.416  17.522  0.00  0.00    +0.000 NA
ATOM     21  H   UNL     1      -1.074  12.293  17.986  0.00  0.00    +0.000 HD
ATOM     22  H   UNL     1      -2.443  11.459  17.422  0.00  0.00    +0.000 HD
ENDBRANCH  19  20
ENDBRANCH  18  19
ENDBRANCH   1  18
TORSDOF 5
ENDMDL
MODEL 8
REMARK VINA RESULT:      -5.9      4.296      7.882
REMARK  Name = 
REMARK  5 active torsions:
REMARK  status: ('A' for Active; 'I' for Inactive)
REMARK    1  A    between atoms: N_1  and  C_2
REMARK    2  A    between atoms: C_2  and  C_3
REMARK    3  A    between atoms: C_3  and  N_4
REMARK    4  A    between atoms: N_4  and  C_14
REMARK    5  A    between atoms: C_5  and  C_7
REMARK                            x       y       z     vdW  Elec       q    Type
REMARK                         _______ _______ _______ _____ _____    ______ ____
ROOT
ATOM      1  N   UNL     1       4.935   4.550  17.854  0.00  0.00    +0.000 N 
ATOM      2  C   UNL     1       5.054   3.773  16.712  0.00  0.00    +0.000 C 
ATOM      3  O   UNL     1       4.422   2.722  16.687  0.00  0.00    +0.000 OA
ENDROOT
BRANCH   2   4
ATOM      4  C   UNL     1       5.836   4.091  15.438  0.00  0.00    +0.000 A 
ATOM      5  C   UNL     1       6.950   4.961  15.330  0.00  0.00    +0.000 A 
ATOM      6  C   UNL     1       7.501   5.294  14.093  0.00  0.00    +0.000 A 
ATOM      7  C   UNL     1       6.989   4.750  12.922  0.00  0.00    +0.000 A 
ATOM      8 CL   UNL     1       7.660   5.218  11.372  0.00  0.00    +0.000 Cl
ATOM      9  C   UNL     1       5.934   3.844  12.991  0.00  0.00    +0.000 A 
ATOM     10  C   UNL     1       5.367   3.519  14.226  0.00  0.00    +0.000 A 
ENDBRANCH   2   4
BRANCH   1  11
ATOM     11  C   UNL     1       4.012   4.132  18.863  0.00  0.00    +0.000 A 
ATOM     12  C   UNL     1       2.787   4.790  19.049  0.00  0.00    +0.000 A 
ATOM     13  C   UNL     1       1.896   4.346  20.030  0.00  0.00    +0.000 A 
ATOM     14  C   UNL     1       2.216   3.235  20.827  0.00  0.00    +0.000 A 
ATOM     15 CL   UNL     1       1.091   2.670  22.049  0.00  0.00    +0.000 Cl
ATOM     16  C   UNL     1       3.434   2.578  20.642  0.00  0.00    +0.000 A 
ATOM     17  C   UNL     1       4.330   3.023  19.668  0.00  0.00    +0.000 A 
ENDBRANCH   1  11
BRANCH   1  18
ATOM     18  C   UNL     1       5.656   5.785  18.140  0.00  0.00    +0.000 C 
BRANCH  18  19
ATOM     19  C   UNL     1       6.826   5.607  19.144  0.00  0.00    +0.000 C 
BRANCH  19  20
ATOM     20  N   UNL     1       7.867   4.694  18.685  0.00  0.00    +0.000 NA
ATOM     21  H   UNL     1       7.568   3.708  18.862  0.00  0.00    +0.000 HD
ATOM     22  H   UNL     1       8.754   4.874  19.210  0.00  0.00    +0.000 HD
ENDBRANCH  19  20
ENDBRANCH  18  19
ENDBRANCH   1  18
TORSDOF 5
ENDMDL
MODEL 9
REMARK VINA RESULT:      -5.9      2.306      7.307
REMARK  Name = 
REMARK  5 active torsions:
REMARK  status: ('A' for Active; 'I' for Inactive)
REMARK    1  A    between atoms: N_1  and  C_2
REMARK    2  A    between atoms: C_2  and  C_3
REMARK    3  A    between atoms: C_3  and  N_4
REMARK    4  A    between atoms: N_4  and  C_14
REMARK    5  A    between atoms: C_5  and  C_7
REMARK                            x       y       z     vdW  Elec       q    Type
REMARK                         _______ _______ _______ _____ _____    ______ ____
ROOT
ATOM      1  N   UNL     1       1.304   9.035  19.627  0.00  0.00    +0.000 N 
ATOM      2  C   UNL     1       1.859   8.705  18.400  0.00  0.00    +0.000 C 
ATOM      3  O   UNL     1       1.680   9.496  17.479  0.00  0.00    +0.000 OA
ENDROOT
BRANCH   2   4
ATOM      4  C   UNL     1       2.729   7.495  18.057  0.00  0.00    +0.000 A 
ATOM      5  C   UNL     1       4.025   7.527  17.484  0.00  0.00    +0.000 A 
ATOM      6  C   UNL     1       4.673   6.361  17.077  0.00  0.00    +0.000 A 
ATOM      7  C   UNL     1       4.073   5.121  17.254  0.00  0.00    +0.000 A 
ATOM      8 CL   UNL     1       4.879   3.671  16.690  0.00  0.00    +0.000 Cl
ATOM      9  C   UNL     1       2.826   5.043  17.869  0.00  0.00    +0.000 A 
ATOM     10  C   UNL     1       2.165   6.209  18.264  0.00  0.00    +0.000 A 
ENDBRANCH   2   4
BRANCH   1  11
ATOM     11  C   UNL     1       0.664  10.306  19.760  0.00  0.00    +0.000 A 
ATOM     12  C   UNL     1       1.403  11.473  20.008  0.00  0.00    +0.000 A 
ATOM     13  C   UNL     1       0.752  12.705  20.113  0.00  0.00    +0.000 A 
ATOM     14  C   UNL     1      -0.642  12.784  19.962  0.00  0.00    +0.000 A 
ATOM     15 CL   UNL     1      -1.458  14.332  20.081  0.00  0.00    +0.000 Cl
ATOM     16  C   UNL     1      -1.379  11.624  19.714  0.00  0.00    +0.000 A 
ATOM     17  C   UNL     1      -0.732  10.390  19.615  0.00  0.00    +0.000 A 
ENDBRANCH   1  11
BRANCH   1  18
ATOM     18  C   UNL     1       1.314   8.210  20.831  0.00  0.00    +0.000 C 
BRANCH  18  19
ATOM     19  C   UNL     1       1.008   8.999  22.131  0.00  0.00    +0.000 C 
BRANCH  19  20
ATOM     20  N   UNL     1       2.192   9.341  22.910  0.00  0.00    +0.000 NA
ATOM     21  H   UNL     1       3.032   9.333  22.289  0.00  0.00    +0.000 HD
ATOM     22  H   UNL     1       2.332   8.636  23.671  0.00  0.00    +0.000 HD
ENDBRANCH  19  20
ENDBRANCH  18  19
ENDBRANCH   1  18
TORSDOF 5
ENDMDL
