MODEL 1
REMARK VINA RESULT:      -8.9      0.000      0.000
REMARK  Name = 
REMARK  5 active torsions:
REMARK  status: ('A' for Active; 'I' for Inactive)
REMARK    1  A    between atoms: C_1  and  N_2
REMARK    2  A    between atoms: N_5  and  C_6
REMARK    3  A    between atoms: N_17  and  C_18
REMARK    4  A    between atoms: C_18  and  C_19
REMARK    5  A    between atoms: C_21  and  C_22
REMARK                            x       y       z     vdW  Elec       q    Type
REMARK                         _______ _______ _______ _____ _____    ______ ____
ROOT
ATOM      1  C   UNL     1       0.724  13.344  19.844  0.00  0.00    +0.000 C 
ATOM      2  C   UNL     1      -0.189  12.362  19.579  0.00  0.00    +0.000 C 
ATOM      3  N   UNL     1      -1.516  12.609  19.956  0.00  0.00    +0.000 N 
ATOM      4  C   UNL     1      -2.587  11.993  19.287  0.00  0.00    +0.000 A 
ATOM      5  C   UNL     1      -3.920  12.312  19.581  0.00  0.00    +0.000 A 
ATOM      6  C   UNL     1      -4.974  11.652  18.926  0.00  0.00    +0.000 A 
ATOM      7  C   UNL     1      -4.707  10.654  17.994  0.00  0.00    +0.000 A 
ATOM      8  C   UNL     1      -3.385  10.313  17.713  0.00  0.00    +0.000 A 
ATOM      9  C   UNL     1      -2.334  10.982  18.357  0.00  0.00    +0.000 A 
ATOM     10  C   UNL     1      -0.926  10.594  18.096  0.00  0.00    +0.000 C 
ATOM     11  O   UNL     1      -0.694   9.767  17.217  0.00  0.00    +0.000 OA
ATOM     12  N   UNL     1       0.072  11.162  18.904  0.00  0.00    +0.000 N 
ATOM     13  H   UNL     1      -1.717  13.508  20.375  0.00  0.00    +0.000 HD
ENDROOT
BRANCH   1  18
ATOM     14  C   UNL     1       5.838  15.720  18.649  0.00  0.00    +0.000 C 
ATOM     15  N   UNL     1       4.769  14.751  18.898  0.00  0.00    +0.000 NA
ATOM     16  C   UNL     1       3.645  14.932  17.963  0.00  0.00    +0.000 C 
ATOM     17  C   UNL     1       2.577  13.815  18.133  0.00  0.00    +0.000 C 
ATOM     18  N   UNL     1       2.036  13.733  19.506  0.00  0.00    +0.000 N 
ATOM     19  C   UNL     1       3.065  13.892  20.584  0.00  0.00    +0.000 C 
ATOM     20  C   UNL     1       4.240  14.860  20.266  0.00  0.00    +0.000 C 
ENDBRANCH   1  18
BRANCH  12  21
ATOM     21  C   UNL     1       1.365  10.465  18.957  0.00  0.00    +0.000 C 
BRANCH  21  22
ATOM     22  C   UNL     1       1.423   9.099  19.674  0.00  0.00    +0.000 A 
ATOM     23  N   UNL     1       1.876   7.997  19.087  0.00  0.00    +0.000 NA
ATOM     24  C   UNL     1       1.748   6.874  19.916  0.00  0.00    +0.000 A 
ATOM     25  C   UNL     1       1.155   7.159  21.131  0.00  0.00    +0.000 A 
ATOM     26  S   UNL     1       0.973   8.851  21.323  0.00  0.00    +0.000 S 
BRANCH  24  27
ATOM     27  C   UNL     1       2.360   5.542  19.478  0.00  0.00    +0.000 C 
ATOM     28  C   UNL     1       1.942   5.283  18.002  0.00  0.00    +0.000 C 
ATOM     29  C   UNL     1       2.486   3.941  17.490  0.00  0.00    +0.000 C 
ATOM     30  C   UNL     1       4.019   3.954  17.556  0.00  0.00    +0.000 C 
ATOM     31  C   UNL     1       4.478   4.177  19.007  0.00  0.00    +0.000 C 
ATOM     32  C   UNL     1       3.945   3.035  19.882  0.00  0.00    +0.000 C 
ATOM     33  C   UNL     1       2.409   3.013  19.831  0.00  0.00    +0.000 C 
ATOM     34  C   UNL     1       1.950   2.808  18.376  0.00  0.00    +0.000 C 
ATOM     35  C   UNL     1       1.861   4.357  20.351  0.00  0.00    +0.000 C 
ATOM     36  C   UNL     1       3.921   5.522  19.523  0.00  0.00    +0.000 C 
ENDBRANCH  24  27
ENDBRANCH  21  22
ENDBRANCH  12  21
TORSDOF 4
ENDMDL
MODEL 2
REMARK VINA RESULT:      -8.8      0.245      1.245
REMARK  Name = 
REMARK  5 active torsions:
REMARK  status: ('A' for Active; 'I' for Inactive)
REMARK    1  A    between atoms: C_1  and  N_2
REMARK    2  A    between atoms: N_5  and  C_6
REMARK    3  A    between atoms: N_17  and  C_18
REMARK    4  A    between atoms: C_18  and  C_19
REMARK    5  A    between atoms: C_21  and  C_22
REMARK                            x       y       z     vdW  Elec       q    Type
REMARK                         _______ _______ _______ _____ _____    ______ ____
ROOT
ATOM      1  C   UNL     1       0.745  13.367  19.956  0.00  0.00    +0.000 C 
ATOM      2  C   UNL     1      -0.204  12.424  19.680  0.00  0.00    +0.000 C 
ATOM      3  N   UNL     1      -1.503  12.675  20.143  0.00  0.00    +0.000 N 
ATOM      4  C   UNL     1      -2.623  12.127  19.496  0.00  0.00    +0.000 A 
ATOM      5  C   UNL     1      -3.930  12.454  19.882  0.00  0.00    +0.000 A 
ATOM      6  C   UNL     1      -5.034  11.861  19.245  0.00  0.00    +0.000 A 
ATOM      7  C   UNL     1      -4.842  10.920  18.239  0.00  0.00    +0.000 A 
ATOM      8  C   UNL     1      -3.545  10.569  17.865  0.00  0.00    +0.000 A 
ATOM      9  C   UNL     1      -2.445  11.172  18.492  0.00  0.00    +0.000 A 
ATOM     10  C   UNL     1      -1.063  10.771  18.130  0.00  0.00    +0.000 C 
ATOM     11  O   UNL     1      -0.899   9.998  17.190  0.00  0.00    +0.000 OA
ATOM     12  N   UNL     1      -0.010  11.264  18.917  0.00  0.00    +0.000 N 
ATOM     13  H   UNL     1      -1.658  13.549  20.629  0.00  0.00    +0.000 HD
ENDROOT
BRANCH   1  18
ATOM     14  C   UNL     1       5.833  15.711  18.597  0.00  0.00    +0.000 C 
ATOM     15  N   UNL     1       4.765  14.750  18.872  0.00  0.00    +0.000 NA
ATOM     16  C   UNL     1       3.606  14.957  17.986  0.00  0.00    +0.000 C 
ATOM     17  C   UNL     1       2.534  13.849  18.181  0.00  0.00    +0.000 C 
ATOM     18  N   UNL     1       2.048  13.748  19.572  0.00  0.00    +0.000 N 
ATOM     19  C   UNL     1       3.120  13.878  20.611  0.00  0.00    +0.000 C 
ATOM     20  C   UNL     1       4.292  14.840  20.262  0.00  0.00    +0.000 C 
ENDBRANCH   1  18
BRANCH  12  21
ATOM     21  C   UNL     1       1.266  10.538  18.855  0.00  0.00    +0.000 C 
BRANCH  21  22
ATOM     22  C   UNL     1       1.373   9.196  19.611  0.00  0.00    +0.000 A 
ATOM     23  N   UNL     1       1.741   8.064  19.020  0.00  0.00    +0.000 NA
ATOM     24  C   UNL     1       1.680   6.974  19.898  0.00  0.00    +0.000 A 
ATOM     25  C   UNL     1       1.223   7.314  21.158  0.00  0.00    +0.000 A 
ATOM     26  S   UNL     1       1.095   9.015  21.306  0.00  0.00    +0.000 S 
BRANCH  24  27
ATOM     27  C   UNL     1       2.216   5.614  19.448  0.00  0.00    +0.000 C 
ATOM     28  C   UNL     1       1.491   4.513  20.273  0.00  0.00    +0.000 C 
ATOM     29  C   UNL     1       1.999   3.110  19.909  0.00  0.00    +0.000 C 
ATOM     30  C   UNL     1       1.732   2.842  18.421  0.00  0.00    +0.000 C 
ATOM     31  C   UNL     1       2.459   3.892  17.564  0.00  0.00    +0.000 C 
ATOM     32  C   UNL     1       3.967   3.801  17.831  0.00  0.00    +0.000 C 
ATOM     33  C   UNL     1       4.249   4.074  19.317  0.00  0.00    +0.000 C 
ATOM     34  C   UNL     1       3.508   3.034  20.176  0.00  0.00    +0.000 C 
ATOM     35  C   UNL     1       3.747   5.485  19.683  0.00  0.00    +0.000 C 
ATOM     36  C   UNL     1       1.955   5.303  17.939  0.00  0.00    +0.000 C 
ENDBRANCH  24  27
ENDBRANCH  21  22
ENDBRANCH  12  21
TORSDOF 4
ENDMDL
MODEL 3
REMARK VINA RESULT:      -8.7      0.181      1.212
REMARK  Name = 
REMARK  5 active torsions:
REMARK  status: ('A' for Active; 'I' for Inactive)
REMARK    1  A    between atoms: C_1  and  N_2
REMARK    2  A    between atoms: N_5  and  C_6
REMARK    3  A    between atoms: N_17  and  C_18
REMARK    4  A    between atoms: C_18  and  C_19
REMARK    5  A    between atoms: C_21  and  C_22
REMARK                            x       y       z     vdW  Elec       q    Type
REMARK                         _______ _______ _______ _____ _____    ______ ____
ROOT
ATOM      1  C   UNL     1       0.737  13.338  19.811  0.00  0.00    +0.000 C 
ATOM      2  C   UNL     1      -0.154  12.337  19.544  0.00  0.00    +0.000 C 
ATOM      3  N   UNL     1      -1.493  12.568  19.891  0.00  0.00    +0.000 N 
ATOM      4  C   UNL     1      -2.540  11.924  19.211  0.00  0.00    +0.000 A 
ATOM      5  C   UNL     1      -3.883  12.226  19.474  0.00  0.00    +0.000 A 
ATOM      6  C   UNL     1      -4.914  11.539  18.811  0.00  0.00    +0.000 A 
ATOM      7  C   UNL     1      -4.613  10.530  17.900  0.00  0.00    +0.000 A 
ATOM      8  C   UNL     1      -3.280  10.206  17.651  0.00  0.00    +0.000 A 
ATOM      9  C   UNL     1      -2.253  10.902  18.304  0.00  0.00    +0.000 A 
ATOM     10  C   UNL     1      -0.834  10.533  18.077  0.00  0.00    +0.000 C 
ATOM     11  O   UNL     1      -0.572   9.695  17.217  0.00  0.00    +0.000 OA
ATOM     12  N   UNL     1       0.138  11.129  18.895  0.00  0.00    +0.000 N 
ATOM     13  H   UNL     1      -1.715  13.470  20.291  0.00  0.00    +0.000 HD
ENDROOT
BRANCH   1  18
ATOM     14  C   UNL     1       5.845  15.771  18.709  0.00  0.00    +0.000 C 
ATOM     15  N   UNL     1       4.781  14.791  18.928  0.00  0.00    +0.000 NA
ATOM     16  C   UNL     1       3.662  14.985  17.989  0.00  0.00    +0.000 C 
ATOM     17  C   UNL     1       2.601  13.859  18.125  0.00  0.00    +0.000 C 
ATOM     18  N   UNL     1       2.050  13.742  19.491  0.00  0.00    +0.000 N 
ATOM     19  C   UNL     1       3.069  13.883  20.581  0.00  0.00    +0.000 C 
ATOM     20  C   UNL     1       4.240  14.865  20.293  0.00  0.00    +0.000 C 
ENDBRANCH   1  18
BRANCH  12  21
ATOM     21  C   UNL     1       1.441  10.455  18.984  0.00  0.00    +0.000 C 
BRANCH  21  22
ATOM     22  C   UNL     1       1.495   9.073  19.669  0.00  0.00    +0.000 A 
ATOM     23  N   UNL     1       1.915   7.976  19.046  0.00  0.00    +0.000 NA
ATOM     24  C   UNL     1       1.790   6.838  19.853  0.00  0.00    +0.000 A 
ATOM     25  C   UNL     1       1.233   7.105  21.089  0.00  0.00    +0.000 A 
ATOM     26  S   UNL     1       1.085   8.795  21.324  0.00  0.00    +0.000 S 
BRANCH  24  27
ATOM     27  C   UNL     1       2.368   5.506  19.370  0.00  0.00    +0.000 C 
ATOM     28  C   UNL     1       3.909   5.671  19.235  0.00  0.00    +0.000 C 
ATOM     29  C   UNL     1       4.570   4.385  18.717  0.00  0.00    +0.000 C 
ATOM     30  C   UNL     1       4.298   3.241  19.702  0.00  0.00    +0.000 C 
ATOM     31  C   UNL     1       2.782   3.021  19.843  0.00  0.00    +0.000 C 
ATOM     32  C   UNL     1       2.200   2.656  18.471  0.00  0.00    +0.000 C 
ATOM     33  C   UNL     1       2.459   3.797  17.475  0.00  0.00    +0.000 C 
ATOM     34  C   UNL     1       3.975   4.028  17.347  0.00  0.00    +0.000 C 
ATOM     35  C   UNL     1       1.790   5.087  17.989  0.00  0.00    +0.000 C 
ATOM     36  C   UNL     1       2.119   4.318  20.354  0.00  0.00    +0.000 C 
ENDBRANCH  24  27
ENDBRANCH  21  22
ENDBRANCH  12  21
TORSDOF 4
ENDMDL
MODEL 4
REMARK VINA RESULT:      -8.6      1.764      5.551
REMARK  Name = 
REMARK  5 active torsions:
REMARK  status: ('A' for Active; 'I' for Inactive)
REMARK    1  A    between atoms: C_1  and  N_2
REMARK    2  A    between atoms: N_5  and  C_6
REMARK    3  A    between atoms: N_17  and  C_18
REMARK    4  A    between atoms: C_18  and  C_19
REMARK    5  A    between atoms: C_21  and  C_22
REMARK                            x       y       z     vdW  Elec       q    Type
REMARK                         _______ _______ _______ _____ _____    ______ ____
ROOT
ATOM      1  C   UNL     1      -0.860  12.602  17.877  0.00  0.00    +0.000 C 
ATOM      2  C   UNL     1       0.371  12.663  18.468  0.00  0.00    +0.000 C 
ATOM      3  N   UNL     1       1.239  13.670  18.027  0.00  0.00    +0.000 N 
ATOM      4  C   UNL     1       2.240  14.186  18.868  0.00  0.00    +0.000 A 
ATOM      5  C   UNL     1       3.045  15.265  18.479  0.00  0.00    +0.000 A 
ATOM      6  C   UNL     1       4.066  15.736  19.322  0.00  0.00    +0.000 A 
ATOM      7  C   UNL     1       4.307  15.119  20.545  0.00  0.00    +0.000 A 
ATOM      8  C   UNL     1       3.528  14.029  20.930  0.00  0.00    +0.000 A 
ATOM      9  C   UNL     1       2.500  13.569  20.094  0.00  0.00    +0.000 A 
ATOM     10  C   UNL     1       1.697  12.383  20.477  0.00  0.00    +0.000 C 
ATOM     11  O   UNL     1       1.863  11.890  21.590  0.00  0.00    +0.000 OA
ATOM     12  N   UNL     1       0.814  11.852  19.522  0.00  0.00    +0.000 N 
ATOM     13  H   UNL     1       0.890  14.302  17.318  0.00  0.00    +0.000 HD
ENDROOT
BRANCH   1  18
ATOM     14  C   UNL     1      -6.349  10.871  18.187  0.00  0.00    +0.000 C 
ATOM     15  N   UNL     1      -4.890  10.916  18.279  0.00  0.00    +0.000 NA
ATOM     16  C   UNL     1      -4.432  12.045  19.109  0.00  0.00    +0.000 C 
ATOM     17  C   UNL     1      -2.894  12.008  19.324  0.00  0.00    +0.000 C 
ATOM     18  N   UNL     1      -2.130  12.017  18.059  0.00  0.00    +0.000 N 
ATOM     19  C   UNL     1      -2.709  11.150  16.983  0.00  0.00    +0.000 C 
ATOM     20  C   UNL     1      -4.261  11.047  16.956  0.00  0.00    +0.000 C 
ENDBRANCH   1  18
BRANCH  12  21
ATOM     21  C   UNL     1       0.373  10.464  19.720  0.00  0.00    +0.000 C 
BRANCH  21  22
ATOM     22  C   UNL     1       1.238   9.337  19.116  0.00  0.00    +0.000 A 
ATOM     23  N   UNL     1       1.275   8.108  19.622  0.00  0.00    +0.000 NA
ATOM     24  C   UNL     1       2.196   7.294  18.949  0.00  0.00    +0.000 A 
ATOM     25  C   UNL     1       2.875   7.957  17.945  0.00  0.00    +0.000 A 
ATOM     26  S   UNL     1       2.202   9.511  17.694  0.00  0.00    +0.000 S 
BRANCH  24  27
ATOM     27  C   UNL     1       2.266   5.803  19.283  0.00  0.00    +0.000 C 
ATOM     28  C   UNL     1       1.795   5.008  18.032  0.00  0.00    +0.000 C 
ATOM     29  C   UNL     1       1.800   3.494  18.292  0.00  0.00    +0.000 C 
ATOM     30  C   UNL     1       3.225   3.041  18.636  0.00  0.00    +0.000 C 
ATOM     31  C   UNL     1       3.720   3.781  19.890  0.00  0.00    +0.000 C 
ATOM     32  C   UNL     1       2.789   3.455  21.065  0.00  0.00    +0.000 C 
ATOM     33  C   UNL     1       1.359   3.910  20.737  0.00  0.00    +0.000 C 
ATOM     34  C   UNL     1       0.869   3.182  19.473  0.00  0.00    +0.000 C 
ATOM     35  C   UNL     1       1.351   5.431  20.483  0.00  0.00    +0.000 C 
ATOM     36  C   UNL     1       3.705   5.303  19.629  0.00  0.00    +0.000 C 
ENDBRANCH  24  27
ENDBRANCH  21  22
ENDBRANCH  12  21
TORSDOF 4
ENDMDL
MODEL 5
REMARK VINA RESULT:      -8.4      1.767      5.683
REMARK  Name = 
REMARK  5 active torsions:
REMARK  status: ('A' for Active; 'I' for Inactive)
REMARK    1  A    between atoms: C_1  and  N_2
REMARK    2  A    between atoms: N_5  and  C_6
REMARK    3  A    between atoms: N_17  and  C_18
REMARK    4  A    between atoms: C_18  and  C_19
REMARK    5  A    between atoms: C_21  and  C_22
REMARK                            x       y       z     vdW  Elec       q    Type
REMARK                         _______ _______ _______ _____ _____    ______ ____
ROOT
ATOM      1  C   UNL     1      -0.875  12.602  17.875  0.00  0.00    +0.000 C 
ATOM      2  C   UNL     1       0.358  12.658  18.461  0.00  0.00    +0.000 C 
ATOM      3  N   UNL     1       1.221  13.677  18.032  0.00  0.00    +0.000 N 
ATOM      4  C   UNL     1       2.223  14.183  18.877  0.00  0.00    +0.000 A 
ATOM      5  C   UNL     1       3.022  15.272  18.501  0.00  0.00    +0.000 A 
ATOM      6  C   UNL     1       4.044  15.734  19.347  0.00  0.00    +0.000 A 
ATOM      7  C   UNL     1       4.295  15.098  20.559  0.00  0.00    +0.000 A 
ATOM      8  C   UNL     1       3.522  13.998  20.930  0.00  0.00    +0.000 A 
ATOM      9  C   UNL     1       2.492  13.547  20.091  0.00  0.00    +0.000 A 
ATOM     10  C   UNL     1       1.695  12.351  20.459  0.00  0.00    +0.000 C 
ATOM     11  O   UNL     1       1.869  11.841  21.563  0.00  0.00    +0.000 OA
ATOM     12  N   UNL     1       0.811  11.832  19.500  0.00  0.00    +0.000 N 
ATOM     13  H   UNL     1       0.865  14.319  17.336  0.00  0.00    +0.000 HD
ENDROOT
BRANCH   1  18
ATOM     14  C   UNL     1      -6.356  10.846  18.190  0.00  0.00    +0.000 C 
ATOM     15  N   UNL     1      -4.895  10.893  18.270  0.00  0.00    +0.000 NA
ATOM     16  C   UNL     1      -4.434  12.002  19.124  0.00  0.00    +0.000 C 
ATOM     17  C   UNL     1      -2.893  11.965  19.325  0.00  0.00    +0.000 C 
ATOM     18  N   UNL     1      -2.141  12.008  18.054  0.00  0.00    +0.000 N 
ATOM     19  C   UNL     1      -2.728  11.167  16.961  0.00  0.00    +0.000 C 
ATOM     20  C   UNL     1      -4.280  11.059  16.945  0.00  0.00    +0.000 C 
ENDBRANCH   1  18
BRANCH  12  21
ATOM     21  C   UNL     1       0.377  10.440  19.677  0.00  0.00    +0.000 C 
BRANCH  21  22
ATOM     22  C   UNL     1       1.263   9.324  19.083  0.00  0.00    +0.000 A 
ATOM     23  N   UNL     1       1.253   8.076  19.540  0.00  0.00    +0.000 NA
ATOM     24  C   UNL     1       2.204   7.276  18.893  0.00  0.00    +0.000 A 
ATOM     25  C   UNL     1       2.952   7.967  17.959  0.00  0.00    +0.000 A 
ATOM     26  S   UNL     1       2.315   9.539  17.729  0.00  0.00    +0.000 S 
BRANCH  24  27
ATOM     27  C   UNL     1       2.236   5.771  19.171  0.00  0.00    +0.000 C 
ATOM     28  C   UNL     1       1.319   5.489  20.395  0.00  0.00    +0.000 C 
ATOM     29  C   UNL     1       1.320   3.999  20.768  0.00  0.00    +0.000 C 
ATOM     30  C   UNL     1       0.797   3.177  19.582  0.00  0.00    +0.000 C 
ATOM     31  C   UNL     1       1.695   3.402  18.354  0.00  0.00    +0.000 C 
ATOM     32  C   UNL     1       3.124   2.954  18.689  0.00  0.00    +0.000 C 
ATOM     33  C   UNL     1       3.663   3.774  19.871  0.00  0.00    +0.000 C 
ATOM     34  C   UNL     1       2.755   3.562  21.096  0.00  0.00    +0.000 C 
ATOM     35  C   UNL     1       3.670   5.269  19.497  0.00  0.00    +0.000 C 
ATOM     36  C   UNL     1       1.701   4.903  17.988  0.00  0.00    +0.000 C 
ENDBRANCH  24  27
ENDBRANCH  21  22
ENDBRANCH  12  21
TORSDOF 4
ENDMDL
MODEL 6
REMARK VINA RESULT:      -8.3      1.753      5.674
REMARK  Name = 
REMARK  5 active torsions:
REMARK  status: ('A' for Active; 'I' for Inactive)
REMARK    1  A    between atoms: C_1  and  N_2
REMARK    2  A    between atoms: N_5  and  C_6
REMARK    3  A    between atoms: N_17  and  C_18
REMARK    4  A    between atoms: C_18  and  C_19
REMARK    5  A    between atoms: C_21  and  C_22
REMARK                            x       y       z     vdW  Elec       q    Type
REMARK                         _______ _______ _______ _____ _____    ______ ____
ROOT
ATOM      1  C   UNL     1      -1.057  12.710  18.100  0.00  0.00    +0.000 C 
ATOM      2  C   UNL     1       0.188  12.718  18.662  0.00  0.00    +0.000 C 
ATOM      3  N   UNL     1       1.048  13.760  18.289  0.00  0.00    +0.000 N 
ATOM      4  C   UNL     1       2.071  14.199  19.146  0.00  0.00    +0.000 A 
ATOM      5  C   UNL     1       2.869  15.307  18.831  0.00  0.00    +0.000 A 
ATOM      6  C   UNL     1       3.913  15.703  19.686  0.00  0.00    +0.000 A 
ATOM      7  C   UNL     1       4.184  14.981  20.844  0.00  0.00    +0.000 A 
ATOM      8  C   UNL     1       3.412  13.861  21.152  0.00  0.00    +0.000 A 
ATOM      9  C   UNL     1       2.362  13.477  20.305  0.00  0.00    +0.000 A 
ATOM     10  C   UNL     1       1.565  12.262  20.604  0.00  0.00    +0.000 C 
ATOM     11  O   UNL     1       1.758  11.673  21.665  0.00  0.00    +0.000 OA
ATOM     12  N   UNL     1       0.657  11.817  19.630  0.00  0.00    +0.000 N 
ATOM     13  H   UNL     1       0.682  14.452  17.647  0.00  0.00    +0.000 HD
ENDROOT
BRANCH   1  18
ATOM     14  C   UNL     1      -6.526  10.897  18.287  0.00  0.00    +0.000 C 
ATOM     15  N   UNL     1      -5.072  10.973  18.433  0.00  0.00    +0.000 NA
ATOM     16  C   UNL     1      -4.666  12.151  19.220  0.00  0.00    +0.000 C 
ATOM     17  C   UNL     1      -3.137  12.153  19.497  0.00  0.00    +0.000 C 
ATOM     18  N   UNL     1      -2.324  12.111  18.264  0.00  0.00    +0.000 N 
ATOM     19  C   UNL     1      -2.846  11.181  17.212  0.00  0.00    +0.000 C 
ATOM     20  C   UNL     1      -4.394  11.047  17.130  0.00  0.00    +0.000 C 
ENDBRANCH   1  18
BRANCH  12  21
ATOM     21  C   UNL     1       0.217  10.418  19.716  0.00  0.00    +0.000 C 
BRANCH  21  22
ATOM     22  C   UNL     1       1.133   9.332  19.111  0.00  0.00    +0.000 A 
ATOM     23  N   UNL     1       1.158   8.081  19.557  0.00  0.00    +0.000 NA
ATOM     24  C   UNL     1       2.130   7.313  18.901  0.00  0.00    +0.000 A 
ATOM     25  C   UNL     1       2.856   8.032  17.972  0.00  0.00    +0.000 A 
ATOM     26  S   UNL     1       2.176   9.589  17.758  0.00  0.00    +0.000 S 
BRANCH  24  27
ATOM     27  C   UNL     1       2.203   5.808  19.165  0.00  0.00    +0.000 C 
ATOM     28  C   UNL     1       3.682   5.446  19.480  0.00  0.00    +0.000 C 
ATOM     29  C   UNL     1       3.855   3.939  19.723  0.00  0.00    +0.000 C 
ATOM     30  C   UNL     1       2.995   3.516  20.922  0.00  0.00    +0.000 C 
ATOM     31  C   UNL     1       1.515   3.827  20.640  0.00  0.00    +0.000 C 
ATOM     32  C   UNL     1       1.068   3.047  19.396  0.00  0.00    +0.000 C 
ATOM     33  C   UNL     1       1.916   3.467  18.186  0.00  0.00    +0.000 C 
ATOM     34  C   UNL     1       3.399   3.171  18.475  0.00  0.00    +0.000 C 
ATOM     35  C   UNL     1       1.739   4.978  17.935  0.00  0.00    +0.000 C 
ATOM     36  C   UNL     1       1.347   5.341  20.385  0.00  0.00    +0.000 C 
ENDBRANCH  24  27
ENDBRANCH  21  22
ENDBRANCH  12  21
TORSDOF 4
ENDMDL
MODEL 7
REMARK VINA RESULT:      -8.3      0.642      1.045
REMARK  Name = 
REMARK  5 active torsions:
REMARK  status: ('A' for Active; 'I' for Inactive)
REMARK    1  A    between atoms: C_1  and  N_2
REMARK    2  A    between atoms: N_5  and  C_6
REMARK    3  A    between atoms: N_17  and  C_18
REMARK    4  A    between atoms: C_18  and  C_19
REMARK    5  A    between atoms: C_21  and  C_22
REMARK                            x       y       z     vdW  Elec       q    Type
REMARK                         _______ _______ _______ _____ _____    ______ ____
ROOT
ATOM      1  C   UNL     1       0.124  13.634  20.284  0.00  0.00    +0.000 C 
ATOM      2  C   UNL     1      -0.693  12.611  19.891  0.00  0.00    +0.000 C 
ATOM      3  N   UNL     1      -2.052  12.721  20.217  0.00  0.00    +0.000 N 
ATOM      4  C   UNL     1      -3.038  12.085  19.445  0.00  0.00    +0.000 A 
ATOM      5  C   UNL     1      -4.404  12.273  19.695  0.00  0.00    +0.000 A 
ATOM      6  C   UNL     1      -5.370  11.594  18.934  0.00  0.00    +0.000 A 
ATOM      7  C   UNL     1      -4.981  10.703  17.937  0.00  0.00    +0.000 A 
ATOM      8  C   UNL     1      -3.624  10.491  17.698  0.00  0.00    +0.000 A 
ATOM      9  C   UNL     1      -2.661  11.181  18.449  0.00  0.00    +0.000 A 
ATOM     10  C   UNL     1      -1.216  10.927  18.230  0.00  0.00    +0.000 C 
ATOM     11  O   UNL     1      -0.878  10.199  17.300  0.00  0.00    +0.000 OA
ATOM     12  N   UNL     1      -0.305  11.497  19.134  0.00  0.00    +0.000 N 
ATOM     13  H   UNL     1      -2.343  13.562  20.699  0.00  0.00    +0.000 HD
ENDROOT
BRANCH   1  18
ATOM     14  C   UNL     1       5.619  14.945  19.141  0.00  0.00    +0.000 C 
ATOM     15  N   UNL     1       4.191  15.046  19.440  0.00  0.00    +0.000 NA
ATOM     16  C   UNL     1       3.850  14.363  20.701  0.00  0.00    +0.000 C 
ATOM     17  C   UNL     1       2.363  14.593  21.090  0.00  0.00    +0.000 C 
ATOM     18  N   UNL     1       1.415  14.151  20.048  0.00  0.00    +0.000 N 
ATOM     19  C   UNL     1       1.835  14.488  18.649  0.00  0.00    +0.000 C 
ATOM     20  C   UNL     1       3.365  14.460  18.373  0.00  0.00    +0.000 C 
ENDBRANCH   1  18
BRANCH  12  21
ATOM     21  C   UNL     1       1.036  10.901  19.195  0.00  0.00    +0.000 C 
BRANCH  21  22
ATOM     22  C   UNL     1       1.194   9.548  19.923  0.00  0.00    +0.000 A 
ATOM     23  N   UNL     1       1.559   8.433  19.298  0.00  0.00    +0.000 NA
ATOM     24  C   UNL     1       1.549   7.327  20.158  0.00  0.00    +0.000 A 
ATOM     25  C   UNL     1       1.134   7.636  21.439  0.00  0.00    +0.000 A 
ATOM     26  S   UNL     1       0.982   9.332  21.623  0.00  0.00    +0.000 S 
BRANCH  24  27
ATOM     27  C   UNL     1       2.092   5.984  19.663  0.00  0.00    +0.000 C 
ATOM     28  C   UNL     1       1.658   5.808  18.180  0.00  0.00    +0.000 C 
ATOM     29  C   UNL     1       2.132   4.463  17.610  0.00  0.00    +0.000 C 
ATOM     30  C   UNL     1       3.665   4.396  17.670  0.00  0.00    +0.000 C 
ATOM     31  C   UNL     1       4.137   4.535  19.127  0.00  0.00    +0.000 C 
ATOM     32  C   UNL     1       3.549   3.386  19.956  0.00  0.00    +0.000 C 
ATOM     33  C   UNL     1       2.015   3.444  19.911  0.00  0.00    +0.000 C 
ATOM     34  C   UNL     1       1.542   3.322  18.451  0.00  0.00    +0.000 C 
ATOM     35  C   UNL     1       1.536   4.791  20.489  0.00  0.00    +0.000 C 
ATOM     36  C   UNL     1       3.650   5.884  19.700  0.00  0.00    +0.000 C 
ENDBRANCH  24  27
ENDBRANCH  21  22
ENDBRANCH  12  21
TORSDOF 4
ENDMDL
MODEL 8
REMARK VINA RESULT:      -8.1      0.720      1.810
REMARK  Name = 
REMARK  5 active torsions:
REMARK  status: ('A' for Active; 'I' for Inactive)
REMARK    1  A    between atoms: C_1  and  N_2
REMARK    2  A    between atoms: N_5  and  C_6
REMARK    3  A    between atoms: N_17  and  C_18
REMARK    4  A    between atoms: C_18  and  C_19
REMARK    5  A    between atoms: C_21  and  C_22
REMARK                            x       y       z     vdW  Elec       q    Type
REMARK                         _______ _______ _______ _____ _____    ______ ____
ROOT
ATOM      1  C   UNL     1       0.262  13.565  19.878  0.00  0.00    +0.000 C 
ATOM      2  C   UNL     1      -0.477  12.459  19.562  0.00  0.00    +0.000 C 
ATOM      3  N   UNL     1      -1.866  12.555  19.725  0.00  0.00    +0.000 N 
ATOM      4  C   UNL     1      -2.743  11.768  18.960  0.00  0.00    +0.000 A 
ATOM      5  C   UNL     1      -4.133  11.929  19.036  0.00  0.00    +0.000 A 
ATOM      6  C   UNL     1      -4.990  11.102  18.290  0.00  0.00    +0.000 A 
ATOM      7  C   UNL     1      -4.469  10.093  17.485  0.00  0.00    +0.000 A 
ATOM      8  C   UNL     1      -3.088   9.910  17.422  0.00  0.00    +0.000 A 
ATOM      9  C   UNL     1      -2.233  10.745  18.157  0.00  0.00    +0.000 A 
ATOM     10  C   UNL     1      -0.767  10.527  18.129  0.00  0.00    +0.000 C 
ATOM     11  O   UNL     1      -0.308   9.686  17.359  0.00  0.00    +0.000 OA
ATOM     12  N   UNL     1       0.023  11.265  19.025  0.00  0.00    +0.000 N 
ATOM     13  H   UNL     1      -2.233  13.443  20.042  0.00  0.00    +0.000 HD
ENDROOT
BRANCH   1  18
ATOM     14  C   UNL     1       5.810  14.941  19.134  0.00  0.00    +0.000 C 
ATOM     15  N   UNL     1       4.354  15.019  19.259  0.00  0.00    +0.000 NA
ATOM     16  C   UNL     1       3.894  14.525  20.568  0.00  0.00    +0.000 C 
ATOM     17  C   UNL     1       2.366  14.742  20.755  0.00  0.00    +0.000 C 
ATOM     18  N   UNL     1       1.555  14.098  19.701  0.00  0.00    +0.000 N 
ATOM     19  C   UNL     1       2.120  14.233  18.320  0.00  0.00    +0.000 C 
ATOM     20  C   UNL     1       3.672  14.235  18.217  0.00  0.00    +0.000 C 
ENDBRANCH   1  18
BRANCH  12  21
ATOM     21  C   UNL     1       1.367  10.745  19.315  0.00  0.00    +0.000 C 
BRANCH  21  22
ATOM     22  C   UNL     1       1.493   9.272  19.759  0.00  0.00    +0.000 A 
ATOM     23  N   UNL     1       2.080   8.342  19.012  0.00  0.00    +0.000 NA
ATOM     24  C   UNL     1       1.993   7.072  19.596  0.00  0.00    +0.000 A 
ATOM     25  C   UNL     1       1.294   7.067  20.788  0.00  0.00    +0.000 A 
ATOM     26  S   UNL     1       0.953   8.670  21.286  0.00  0.00    +0.000 S 
BRANCH  24  27
ATOM     27  C   UNL     1       2.747   5.900  18.964  0.00  0.00    +0.000 C 
ATOM     28  C   UNL     1       3.258   4.983  20.111  0.00  0.00    +0.000 C 
ATOM     29  C   UNL     1       4.062   3.793  19.566  0.00  0.00    +0.000 C 
ATOM     30  C   UNL     1       3.166   2.952  18.647  0.00  0.00    +0.000 C 
ATOM     31  C   UNL     1       2.662   3.814  17.477  0.00  0.00    +0.000 C 
ATOM     32  C   UNL     1       3.866   4.327  16.677  0.00  0.00    +0.000 C 
ATOM     33  C   UNL     1       4.769   5.177  17.583  0.00  0.00    +0.000 C 
ATOM     34  C   UNL     1       5.261   4.320  18.763  0.00  0.00    +0.000 C 
ATOM     35  C   UNL     1       3.966   6.376  18.127  0.00  0.00    +0.000 C 
ATOM     36  C   UNL     1       1.863   5.015  18.029  0.00  0.00    +0.000 C 
ENDBRANCH  24  27
ENDBRANCH  21  22
ENDBRANCH  12  21
TORSDOF 4
ENDMDL
MODEL 9
REMARK VINA RESULT:      -8.1      0.580      1.537
REMARK  Name = 
REMARK  5 active torsions:
REMARK  status: ('A' for Active; 'I' for Inactive)
REMARK    1  A    between atoms: C_1  and  N_2
REMARK    2  A    between atoms: N_5  and  C_6
REMARK    3  A    between atoms: N_17  and  C_18
REMARK    4  A    between atoms: C_18  and  C_19
REMARK    5  A    between atoms: C_21  and  C_22
REMARK                            x       y       z     vdW  Elec       q    Type
REMARK                         _______ _______ _______ _____ _____    ______ ____
ROOT
ATOM      1  C   UNL     1       0.184  13.683  20.111  0.00  0.00    +0.000 C 
ATOM      2  C   UNL     1      -0.605  12.623  19.763  0.00  0.00    +0.000 C 
ATOM      3  N   UNL     1      -1.974  12.731  20.044  0.00  0.00    +0.000 N 
ATOM      4  C   UNL     1      -2.928  12.030  19.287  0.00  0.00    +0.000 A 
ATOM      5  C   UNL     1      -4.303  12.210  19.486  0.00  0.00    +0.000 A 
ATOM      6  C   UNL     1      -5.237  11.466  18.745  0.00  0.00    +0.000 A 
ATOM      7  C   UNL     1      -4.806  10.520  17.819  0.00  0.00    +0.000 A 
ATOM      8  C   UNL     1      -3.439  10.316  17.632  0.00  0.00    +0.000 A 
ATOM      9  C   UNL     1      -2.509  11.069  18.364  0.00  0.00    +0.000 A 
ATOM     10  C   UNL     1      -1.055  10.826  18.202  0.00  0.00    +0.000 C 
ATOM     11  O   UNL     1      -0.679  10.046  17.330  0.00  0.00    +0.000 OA
ATOM     12  N   UNL     1      -0.179  11.469  19.091  0.00  0.00    +0.000 N 
ATOM     13  H   UNL     1      -2.292  13.596  20.461  0.00  0.00    +0.000 HD
ENDROOT
BRANCH   1  18
ATOM     14  C   UNL     1       5.646  15.043  18.868  0.00  0.00    +0.000 C 
ATOM     15  N   UNL     1       4.236  15.127  19.249  0.00  0.00    +0.000 NA
ATOM     16  C   UNL     1       3.941  14.294  20.428  0.00  0.00    +0.000 C 
ATOM     17  C   UNL     1       2.481  14.495  20.918  0.00  0.00    +0.000 C 
ATOM     18  N   UNL     1       1.473  14.205  19.877  0.00  0.00    +0.000 N 
ATOM     19  C   UNL     1       1.833  14.712  18.513  0.00  0.00    +0.000 C 
ATOM     20  C   UNL     1       3.348  14.696  18.159  0.00  0.00    +0.000 C 
ENDBRANCH   1  18
BRANCH  12  21
ATOM     21  C   UNL     1       1.169  10.901  19.228  0.00  0.00    +0.000 C 
BRANCH  21  22
ATOM     22  C   UNL     1       1.304   9.507  19.877  0.00  0.00    +0.000 A 
ATOM     23  N   UNL     1       1.746   8.444  19.213  0.00  0.00    +0.000 NA
ATOM     24  C   UNL     1       1.697   7.282  19.996  0.00  0.00    +0.000 A 
ATOM     25  C   UNL     1       1.174   7.498  21.257  0.00  0.00    +0.000 A 
ATOM     26  S   UNL     1       0.964   9.174  21.537  0.00  0.00    +0.000 S 
BRANCH  24  27
ATOM     27  C   UNL     1       2.312   5.988  19.461  0.00  0.00    +0.000 C 
ATOM     28  C   UNL     1       3.828   6.238  19.222  0.00  0.00    +0.000 C 
ATOM     29  C   UNL     1       4.521   4.994  18.647  0.00  0.00    +0.000 C 
ATOM     30  C   UNL     1       4.380   3.829  19.637  0.00  0.00    +0.000 C 
ATOM     31  C   UNL     1       2.892   3.526  19.878  0.00  0.00    +0.000 C 
ATOM     32  C   UNL     1       2.237   3.139  18.545  0.00  0.00    +0.000 C 
ATOM     33  C   UNL     1       2.365   4.299  17.546  0.00  0.00    +0.000 C 
ATOM     34  C   UNL     1       3.854   4.614  17.318  0.00  0.00    +0.000 C 
ATOM     35  C   UNL     1       1.664   5.547  18.118  0.00  0.00    +0.000 C 
ATOM     36  C   UNL     1       2.195   4.782  20.446  0.00  0.00    +0.000 C 
ENDBRANCH  24  27
ENDBRANCH  21  22
ENDBRANCH  12  21
TORSDOF 4
ENDMDL
