MODEL 1
REMARK VINA RESULT:      -4.2      0.000      0.000
REMARK  Name = 
REMARK  3 active torsions:
REMARK  status: ('A' for Active; 'I' for Inactive)
REMARK    1  A    between atoms: C_2  and  C_3
REMARK    2  A    between atoms: C_2  and  S_5
REMARK    3  A    between atoms: S_5  and  C_6
REMARK                            x       y       z     vdW  Elec       q    Type
REMARK                         _______ _______ _______ _____ _____    ______ ____
ROOT
ATOM      1  C   UNL     1       7.759   7.743  17.665  0.00  0.00    +0.000 C 
ATOM      2  C   UNL     1       6.887   6.730  17.498  0.00  0.00    +0.000 C 
ENDROOT
BRANCH   2   3
ATOM      3  S   UNL     1       7.343   5.150  18.118  0.00  0.00    +0.000 S 
ATOM      4  C   UNL     1       5.790   4.380  18.498  0.00  0.00    +0.000 C 
ATOM      5  O   UNL     1       7.956   4.389  17.049  0.00  0.00    +0.000 OA
ATOM      6  O   UNL     1       8.041   5.330  19.379  0.00  0.00    +0.000 OA
ENDBRANCH   2   3
BRANCH   2   7
ATOM      7  C   UNL     1       5.512   6.778  16.903  0.00  0.00    +0.000 C 
ATOM      8 CL   UNL     1       5.356   5.954  15.331  0.00  0.00    +0.000 Cl
ENDBRANCH   2   7
TORSDOF 2
ENDMDL
MODEL 2
REMARK VINA RESULT:      -4.1      2.289      2.871
REMARK  Name = 
REMARK  3 active torsions:
REMARK  status: ('A' for Active; 'I' for Inactive)
REMARK    1  A    between atoms: C_2  and  C_3
REMARK    2  A    between atoms: C_2  and  S_5
REMARK    3  A    between atoms: S_5  and  C_6
REMARK                            x       y       z     vdW  Elec       q    Type
REMARK                         _______ _______ _______ _____ _____    ______ ____
ROOT
ATOM      1  C   UNL     1       4.982   3.936  16.224  0.00  0.00    +0.000 C 
ATOM      2  C   UNL     1       6.124   4.526  15.821  0.00  0.00    +0.000 C 
ENDROOT
BRANCH   2   3
ATOM      3  S   UNL     1       7.177   5.191  17.061  0.00  0.00    +0.000 S 
ATOM      4  C   UNL     1       6.115   5.359  18.473  0.00  0.00    +0.000 C 
ATOM      5  O   UNL     1       8.188   4.207  17.392  0.00  0.00    +0.000 OA
ATOM      6  O   UNL     1       7.567   6.534  16.669  0.00  0.00    +0.000 OA
ENDBRANCH   2   3
BRANCH   2   7
ATOM      7  C   UNL     1       6.673   4.636  14.432  0.00  0.00    +0.000 C 
ATOM      8 CL   UNL     1       5.810   3.664  13.214  0.00  0.00    +0.000 Cl
ENDBRANCH   2   7
TORSDOF 2
ENDMDL
MODEL 3
REMARK VINA RESULT:      -4.1      1.878      2.671
REMARK  Name = 
REMARK  3 active torsions:
REMARK  status: ('A' for Active; 'I' for Inactive)
REMARK    1  A    between atoms: C_2  and  C_3
REMARK    2  A    between atoms: C_2  and  S_5
REMARK    3  A    between atoms: S_5  and  C_6
REMARK                            x       y       z     vdW  Elec       q    Type
REMARK                         _______ _______ _______ _____ _____    ______ ____
ROOT
ATOM      1  C   UNL     1       5.191   6.048  16.066  0.00  0.00    +0.000 C 
ATOM      2  C   UNL     1       5.941   4.943  16.243  0.00  0.00    +0.000 C 
ENDROOT
BRANCH   2   3
ATOM      3  S   UNL     1       6.991   4.889  17.651  0.00  0.00    +0.000 S 
ATOM      4  C   UNL     1       7.424   6.588  17.922  0.00  0.00    +0.000 C 
ATOM      5  O   UNL     1       6.216   4.450  18.794  0.00  0.00    +0.000 OA
ATOM      6  O   UNL     1       8.216   4.197  17.291  0.00  0.00    +0.000 OA
ENDBRANCH   2   3
BRANCH   2   7
ATOM      7  C   UNL     1       5.954   3.689  15.424  0.00  0.00    +0.000 C 
ATOM      8 CL   UNL     1       6.162   3.948  13.674  0.00  0.00    +0.000 Cl
ENDBRANCH   2   7
TORSDOF 2
ENDMDL
MODEL 4
REMARK VINA RESULT:      -4.0      1.747      2.374
REMARK  Name = 
REMARK  3 active torsions:
REMARK  status: ('A' for Active; 'I' for Inactive)
REMARK    1  A    between atoms: C_2  and  C_3
REMARK    2  A    between atoms: C_2  and  S_5
REMARK    3  A    between atoms: S_5  and  C_6
REMARK                            x       y       z     vdW  Elec       q    Type
REMARK                         _______ _______ _______ _____ _____    ______ ____
ROOT
ATOM      1  C   UNL     1       4.944   5.371  18.657  0.00  0.00    +0.000 C 
ATOM      2  C   UNL     1       5.647   4.920  17.601  0.00  0.00    +0.000 C 
ENDROOT
BRANCH   2   3
ATOM      3  S   UNL     1       7.347   5.359  17.507  0.00  0.00    +0.000 S 
ATOM      4  C   UNL     1       7.765   5.790  19.176  0.00  0.00    +0.000 C 
ATOM      5  O   UNL     1       8.114   4.180  17.158  0.00  0.00    +0.000 OA
ATOM      6  O   UNL     1       7.471   6.571  16.717  0.00  0.00    +0.000 OA
ENDBRANCH   2   3
BRANCH   2   7
ATOM      7  C   UNL     1       5.190   4.013  16.499  0.00  0.00    +0.000 C 
ATOM      8 CL   UNL     1       5.493   4.630  14.856  0.00  0.00    +0.000 Cl
ENDBRANCH   2   7
TORSDOF 2
ENDMDL
MODEL 5
REMARK VINA RESULT:      -4.0      2.248      2.991
REMARK  Name = 
REMARK  3 active torsions:
REMARK  status: ('A' for Active; 'I' for Inactive)
REMARK    1  A    between atoms: C_2  and  C_3
REMARK    2  A    between atoms: C_2  and  S_5
REMARK    3  A    between atoms: S_5  and  C_6
REMARK                            x       y       z     vdW  Elec       q    Type
REMARK                         _______ _______ _______ _____ _____    ______ ____
ROOT
ATOM      1  C   UNL     1       4.943   4.682  16.433  0.00  0.00    +0.000 C 
ATOM      2  C   UNL     1       5.686   4.725  17.556  0.00  0.00    +0.000 C 
ENDROOT
BRANCH   2   3
ATOM      3  S   UNL     1       7.347   5.280  17.412  0.00  0.00    +0.000 S 
ATOM      4  C   UNL     1       7.696   5.988  19.002  0.00  0.00    +0.000 C 
ATOM      5  O   UNL     1       8.212   4.129  17.250  0.00  0.00    +0.000 OA
ATOM      6  O   UNL     1       7.393   6.368  16.451  0.00  0.00    +0.000 OA
ENDBRANCH   2   3
BRANCH   2   7
ATOM      7  C   UNL     1       5.263   4.425  18.961  0.00  0.00    +0.000 C 
ATOM      8 CL   UNL     1       3.916   5.425  19.559  0.00  0.00    +0.000 Cl
ENDBRANCH   2   7
TORSDOF 2
ENDMDL
MODEL 6
REMARK VINA RESULT:      -3.9      2.028      2.690
REMARK  Name = 
REMARK  3 active torsions:
REMARK  status: ('A' for Active; 'I' for Inactive)
REMARK    1  A    between atoms: C_2  and  C_3
REMARK    2  A    between atoms: C_2  and  S_5
REMARK    3  A    between atoms: S_5  and  C_6
REMARK                            x       y       z     vdW  Elec       q    Type
REMARK                         _______ _______ _______ _____ _____    ______ ____
ROOT
ATOM      1  C   UNL     1       6.503   4.612  15.213  0.00  0.00    +0.000 C 
ATOM      2  C   UNL     1       5.975   4.822  16.435  0.00  0.00    +0.000 C 
ENDROOT
BRANCH   2   3
ATOM      3  S   UNL     1       7.076   4.849  17.805  0.00  0.00    +0.000 S 
ATOM      4  C   UNL     1       7.483   6.567  17.987  0.00  0.00    +0.000 C 
ATOM      5  O   UNL     1       6.352   4.445  18.993  0.00  0.00    +0.000 OA
ATOM      6  O   UNL     1       8.302   4.166  17.429  0.00  0.00    +0.000 OA
ENDBRANCH   2   3
BRANCH   2   7
ATOM      7  C   UNL     1       4.550   5.115  16.793  0.00  0.00    +0.000 C 
ATOM      8 CL   UNL     1       3.536   3.672  17.040  0.00  0.00    +0.000 Cl
ENDBRANCH   2   7
TORSDOF 2
ENDMDL
MODEL 7
REMARK VINA RESULT:      -3.9      2.256      3.294
REMARK  Name = 
REMARK  3 active torsions:
REMARK  status: ('A' for Active; 'I' for Inactive)
REMARK    1  A    between atoms: C_2  and  C_3
REMARK    2  A    between atoms: C_2  and  S_5
REMARK    3  A    between atoms: S_5  and  C_6
REMARK                            x       y       z     vdW  Elec       q    Type
REMARK                         _______ _______ _______ _____ _____    ______ ____
ROOT
ATOM      1  C   UNL     1       4.899   4.218  16.409  0.00  0.00    +0.000 C 
ATOM      2  C   UNL     1       5.674   4.543  17.462  0.00  0.00    +0.000 C 
ENDROOT
BRANCH   2   3
ATOM      3  S   UNL     1       7.309   5.097  17.129  0.00  0.00    +0.000 S 
ATOM      4  C   UNL     1       7.469   6.560  18.121  0.00  0.00    +0.000 C 
ATOM      5  O   UNL     1       8.246   4.119  17.643  0.00  0.00    +0.000 OA
ATOM      6  O   UNL     1       7.382   5.521  15.742  0.00  0.00    +0.000 OA
ENDBRANCH   2   3
BRANCH   2   7
ATOM      7  C   UNL     1       5.306   4.566  18.914  0.00  0.00    +0.000 C 
ATOM      8 CL   UNL     1       4.556   3.066  19.514  0.00  0.00    +0.000 Cl
ENDBRANCH   2   7
TORSDOF 2
ENDMDL
MODEL 8
REMARK VINA RESULT:      -3.9      2.287      2.874
REMARK  Name = 
REMARK  3 active torsions:
REMARK  status: ('A' for Active; 'I' for Inactive)
REMARK    1  A    between atoms: C_2  and  C_3
REMARK    2  A    between atoms: C_2  and  S_5
REMARK    3  A    between atoms: S_5  and  C_6
REMARK                            x       y       z     vdW  Elec       q    Type
REMARK                         _______ _______ _______ _____ _____    ______ ____
ROOT
ATOM      1  C   UNL     1       5.724   4.253  15.057  0.00  0.00    +0.000 C 
ATOM      2  C   UNL     1       5.696   4.626  16.352  0.00  0.00    +0.000 C 
ENDROOT
BRANCH   2   3
ATOM      3  S   UNL     1       7.181   5.254  17.050  0.00  0.00    +0.000 S 
ATOM      4  C   UNL     1       6.710   5.722  18.696  0.00  0.00    +0.000 C 
ATOM      5  O   UNL     1       8.138   4.171  17.164  0.00  0.00    +0.000 OA
ATOM      6  O   UNL     1       7.541   6.477  16.355  0.00  0.00    +0.000 OA
ENDBRANCH   2   3
BRANCH   2   7
ATOM      7  C   UNL     1       4.525   4.647  17.287  0.00  0.00    +0.000 C 
ATOM      8 CL   UNL     1       3.663   3.095  17.430  0.00  0.00    +0.000 Cl
ENDBRANCH   2   7
TORSDOF 2
ENDMDL
MODEL 9
REMARK VINA RESULT:      -3.9      2.645      3.306
REMARK  Name = 
REMARK  3 active torsions:
REMARK  status: ('A' for Active; 'I' for Inactive)
REMARK    1  A    between atoms: C_2  and  C_3
REMARK    2  A    between atoms: C_2  and  S_5
REMARK    3  A    between atoms: S_5  and  C_6
REMARK                            x       y       z     vdW  Elec       q    Type
REMARK                         _______ _______ _______ _____ _____    ______ ____
ROOT
ATOM      1  C   UNL     1       4.486   4.043  16.758  0.00  0.00    +0.000 C 
ATOM      2  C   UNL     1       5.518   4.560  17.453  0.00  0.00    +0.000 C 
ENDROOT
BRANCH   2   3
ATOM      3  S   UNL     1       6.971   4.984  16.558  0.00  0.00    +0.000 S 
ATOM      4  C   UNL     1       6.660   4.359  14.927  0.00  0.00    +0.000 C 
ATOM      5  O   UNL     1       7.054   6.427  16.462  0.00  0.00    +0.000 OA
ATOM      6  O   UNL     1       8.085   4.222  17.093  0.00  0.00    +0.000 OA
ENDBRANCH   2   3
BRANCH   2   7
ATOM      7  C   UNL     1       5.579   4.900  18.911  0.00  0.00    +0.000 C 
ATOM      8 CL   UNL     1       4.042   5.475  19.603  0.00  0.00    +0.000 Cl
ENDBRANCH   2   7
TORSDOF 2
ENDMDL
