MODEL 1
REMARK VINA RESULT:      -7.2      0.000      0.000
REMARK  Name = 
REMARK  6 active torsions:
REMARK  status: ('A' for Active; 'I' for Inactive)
REMARK    1  A    between atoms: C_1  and  C_2
REMARK    2  A    between atoms: C_2  and  C_3
REMARK    3  A    between atoms: C_8  and  N_9
REMARK    4  A    between atoms: C_10  and  C_12
REMARK    5  A    between atoms: N_20  and  C_21
REMARK    6  A    between atoms: C_21  and  C_22
REMARK                            x       y       z     vdW  Elec       q    Type
REMARK                         _______ _______ _______ _____ _____    ______ ____
ROOT
ATOM      1  N   UNL     1       2.708   6.778  18.761  0.00  0.00    +0.000 N 
ATOM      2  C   UNL     1       2.219   8.029  18.415  0.00  0.00    +0.000 C 
ATOM      3  O   UNL     1       2.519   8.652  17.404  0.00  0.00    +0.000 OA
ATOM      4  H   UNL     1       2.509   6.482  19.705  0.00  0.00    +0.000 HD
ENDROOT
BRANCH   2   5
ATOM      5  C   UNL     1       1.368   8.611  19.450  0.00  0.00    +0.000 A 
ATOM      6  C   UNL     1       1.299   8.259  20.795  0.00  0.00    +0.000 A 
ATOM      7  C   UNL     1       0.478   9.235  21.425  0.00  0.00    +0.000 A 
ATOM      8  S   UNL     1      -0.067   9.674  23.009  0.00  0.00    +0.000 S 
ATOM      9  C   UNL     1      -0.829  11.040  22.347  0.00  0.00    +0.000 A 
ATOM     10 CL   UNL     1      -1.601  12.157  23.409  0.00  0.00    +0.000 Cl
ATOM     11  C   UNL     1      -0.770  11.153  20.982  0.00  0.00    +0.000 A 
ATOM     12  C   UNL     1       0.015  10.083  20.462  0.00  0.00    +0.000 A 
ATOM     13  N   UNL     1       0.463   9.641  19.239  0.00  0.00    +0.000 N 
BRANCH  13  14
ATOM     14  C   UNL     1       0.100  10.273  17.984  0.00  0.00    +0.000 C 
ATOM     15  C   UNL     1      -1.330   9.981  17.572  0.00  0.00    +0.000 C 
ENDBRANCH  13  14
ENDBRANCH   2   5
BRANCH   1  21
ATOM     16  C   UNL     1       3.179   4.719  17.519  0.00  0.00    +0.000 A 
ATOM     17  C   UNL     1       4.075   3.932  16.766  0.00  0.00    +0.000 A 
ATOM     18  C   UNL     1       5.382   4.353  16.542  0.00  0.00    +0.000 A 
ATOM     19  C   UNL     1       5.805   5.574  17.047  0.00  0.00    +0.000 A 
ATOM     20  C   UNL     1       4.917   6.384  17.761  0.00  0.00    +0.000 A 
ATOM     21  C   UNL     1       3.603   5.973  18.015  0.00  0.00    +0.000 A 
BRANCH  16  23
ATOM     22  C   UNL     1       2.064   2.566  18.050  0.00  0.00    +0.000 C 
ATOM     23  C   UNL     1       1.865   4.070  17.903  0.00  0.00    +0.000 C 
ENDBRANCH  16  23
ENDBRANCH   1  21
TORSDOF 4
ENDMDL
MODEL 2
REMARK VINA RESULT:      -7.2      2.088      3.550
REMARK  Name = 
REMARK  6 active torsions:
REMARK  status: ('A' for Active; 'I' for Inactive)
REMARK    1  A    between atoms: C_1  and  C_2
REMARK    2  A    between atoms: C_2  and  C_3
REMARK    3  A    between atoms: C_8  and  N_9
REMARK    4  A    between atoms: C_10  and  C_12
REMARK    5  A    between atoms: N_20  and  C_21
REMARK    6  A    between atoms: C_21  and  C_22
REMARK                            x       y       z     vdW  Elec       q    Type
REMARK                         _______ _______ _______ _____ _____    ______ ____
ROOT
ATOM      1  N   UNL     1       4.461   6.521  17.581  0.00  0.00    +0.000 N 
ATOM      2  C   UNL     1       3.168   6.183  17.949  0.00  0.00    +0.000 C 
ATOM      3  O   UNL     1       2.550   5.202  17.551  0.00  0.00    +0.000 OA
ATOM      4  H   UNL     1       4.759   7.446  17.849  0.00  0.00    +0.000 HD
ENDROOT
BRANCH   2   5
ATOM      5  C   UNL     1       2.539   7.190  18.800  0.00  0.00    +0.000 A 
ATOM      6  C   UNL     1       2.248   8.514  18.481  0.00  0.00    +0.000 A 
ATOM      7  C   UNL     1       1.469   9.025  19.556  0.00  0.00    +0.000 A 
ATOM      8  S   UNL     1       0.599  10.459  19.987  0.00  0.00    +0.000 S 
ATOM      9  C   UNL     1       0.060   9.685  21.399  0.00  0.00    +0.000 A 
ATOM     10 CL   UNL     1      -1.046  10.512  22.430  0.00  0.00    +0.000 Cl
ATOM     11  C   UNL     1       0.559   8.426  21.617  0.00  0.00    +0.000 A 
ATOM     12  C   UNL     1       1.378   8.055  20.510  0.00  0.00    +0.000 A 
ATOM     13  N   UNL     1       2.124   6.973  20.105  0.00  0.00    +0.000 N 
BRANCH  13  14
ATOM     14  C   UNL     1       2.304   5.783  20.917  0.00  0.00    +0.000 C 
ATOM     15  C   UNL     1       1.258   4.720  20.639  0.00  0.00    +0.000 C 
ENDBRANCH  13  14
ENDBRANCH   2   5
BRANCH   1  21
ATOM     16  C   UNL     1       6.428   5.097  17.251  0.00  0.00    +0.000 A 
ATOM     17  C   UNL     1       7.269   4.370  16.383  0.00  0.00    +0.000 A 
ATOM     18  C   UNL     1       7.052   4.369  15.009  0.00  0.00    +0.000 A 
ATOM     19  C   UNL     1       5.979   5.075  14.485  0.00  0.00    +0.000 A 
ATOM     20  C   UNL     1       5.112   5.768  15.335  0.00  0.00    +0.000 A 
ATOM     21  C   UNL     1       5.322   5.798  16.719  0.00  0.00    +0.000 A 
BRANCH  16  23
ATOM     22  C   UNL     1       7.900   6.357  18.802  0.00  0.00    +0.000 C 
ATOM     23  C   UNL     1       6.884   5.225  18.689  0.00  0.00    +0.000 C 
ENDBRANCH  16  23
ENDBRANCH   1  21
TORSDOF 4
ENDMDL
MODEL 3
REMARK VINA RESULT:      -6.9      1.610      1.755
REMARK  Name = 
REMARK  6 active torsions:
REMARK  status: ('A' for Active; 'I' for Inactive)
REMARK    1  A    between atoms: C_1  and  C_2
REMARK    2  A    between atoms: C_2  and  C_3
REMARK    3  A    between atoms: C_8  and  N_9
REMARK    4  A    between atoms: C_10  and  C_12
REMARK    5  A    between atoms: N_20  and  C_21
REMARK    6  A    between atoms: C_21  and  C_22
REMARK                            x       y       z     vdW  Elec       q    Type
REMARK                         _______ _______ _______ _____ _____    ______ ____
ROOT
ATOM      1  N   UNL     1       2.170   6.403  20.200  0.00  0.00    +0.000 N 
ATOM      2  C   UNL     1       2.008   7.626  19.565  0.00  0.00    +0.000 C 
ATOM      3  O   UNL     1       2.612   7.991  18.564  0.00  0.00    +0.000 OA
ATOM      4  H   UNL     1       1.740   6.327  21.109  0.00  0.00    +0.000 HD
ENDROOT
BRANCH   2   5
ATOM      5  C   UNL     1       1.103   8.521  20.283  0.00  0.00    +0.000 A 
ATOM      6  C   UNL     1       0.698   8.438  21.612  0.00  0.00    +0.000 A 
ATOM      7  C   UNL     1      -0.019   9.635  21.890  0.00  0.00    +0.000 A 
ATOM      8  S   UNL     1      -0.769  10.441  23.226  0.00  0.00    +0.000 S 
ATOM      9  C   UNL     1      -1.094  11.769  22.218  0.00  0.00    +0.000 A 
ATOM     10 CL   UNL     1      -1.821  13.173  22.903  0.00  0.00    +0.000 Cl
ATOM     11  C   UNL     1      -0.743  11.618  20.901  0.00  0.00    +0.000 A 
ATOM     12  C   UNL     1      -0.101  10.356  20.735  0.00  0.00    +0.000 A 
ATOM     13  N   UNL     1       0.484   9.629  19.724  0.00  0.00    +0.000 N 
BRANCH  13  14
ATOM     14  C   UNL     1       0.513  10.071  18.342  0.00  0.00    +0.000 C 
ATOM     15  C   UNL     1      -0.832   9.934  17.654  0.00  0.00    +0.000 C 
ENDBRANCH  13  14
ENDBRANCH   2   5
BRANCH   1  21
ATOM     16  C   UNL     1       2.524   4.017  19.770  0.00  0.00    +0.000 A 
ATOM     17  C   UNL     1       3.376   2.969  19.361  0.00  0.00    +0.000 A 
ATOM     18  C   UNL     1       4.706   3.214  19.035  0.00  0.00    +0.000 A 
ATOM     19  C   UNL     1       5.197   4.510  19.091  0.00  0.00    +0.000 A 
ATOM     20  C   UNL     1       4.356   5.565  19.454  0.00  0.00    +0.000 A 
ATOM     21  C   UNL     1       3.020   5.340  19.805  0.00  0.00    +0.000 A 
BRANCH  16  23
ATOM     22  C   UNL     1       1.368   2.788  21.590  0.00  0.00    +0.000 C 
ATOM     23  C   UNL     1       1.173   3.616  20.325  0.00  0.00    +0.000 C 
ENDBRANCH  16  23
ENDBRANCH   1  21
TORSDOF 4
ENDMDL
MODEL 4
REMARK VINA RESULT:      -6.9      3.933      7.704
REMARK  Name = 
REMARK  6 active torsions:
REMARK  status: ('A' for Active; 'I' for Inactive)
REMARK    1  A    between atoms: C_1  and  C_2
REMARK    2  A    between atoms: C_2  and  C_3
REMARK    3  A    between atoms: C_8  and  N_9
REMARK    4  A    between atoms: C_10  and  C_12
REMARK    5  A    between atoms: N_20  and  C_21
REMARK    6  A    between atoms: C_21  and  C_22
REMARK                            x       y       z     vdW  Elec       q    Type
REMARK                         _______ _______ _______ _____ _____    ______ ____
ROOT
ATOM      1  N   UNL     1       1.478   8.337  19.856  0.00  0.00    +0.000 N 
ATOM      2  C   UNL     1       1.850   7.006  19.978  0.00  0.00    +0.000 C 
ATOM      3  O   UNL     1       1.644   6.299  20.957  0.00  0.00    +0.000 OA
ATOM      4  H   UNL     1       1.878   8.827  19.071  0.00  0.00    +0.000 HD
ENDROOT
BRANCH   2   5
ATOM      5  C   UNL     1       2.638   6.532  18.842  0.00  0.00    +0.000 A 
ATOM      6  C   UNL     1       3.550   7.253  18.076  0.00  0.00    +0.000 A 
ATOM      7  C   UNL     1       4.194   6.312  17.226  0.00  0.00    +0.000 A 
ATOM      8  S   UNL     1       5.477   6.248  16.065  0.00  0.00    +0.000 S 
ATOM      9  C   UNL     1       5.266   4.567  15.952  0.00  0.00    +0.000 A 
ATOM     10 CL   UNL     1       6.343   3.659  14.960  0.00  0.00    +0.000 Cl
ATOM     11  C   UNL     1       4.227   4.046  16.680  0.00  0.00    +0.000 A 
ATOM     12  C   UNL     1       3.617   5.093  17.431  0.00  0.00    +0.000 A 
ATOM     13  N   UNL     1       2.590   5.243  18.334  0.00  0.00    +0.000 N 
BRANCH  13  14
ATOM     14  C   UNL     1       1.717   4.154  18.731  0.00  0.00    +0.000 C 
ATOM     15  C   UNL     1       2.380   3.192  19.698  0.00  0.00    +0.000 C 
ENDBRANCH  13  14
ENDBRANCH   2   5
BRANCH   1  21
ATOM     16  C   UNL     1      -0.042  10.190  20.365  0.00  0.00    +0.000 A 
ATOM     17  C   UNL     1      -0.756  10.950  21.315  0.00  0.00    +0.000 A 
ATOM     18  C   UNL     1      -0.640  10.686  22.676  0.00  0.00    +0.000 A 
ATOM     19  C   UNL     1       0.171   9.645  23.105  0.00  0.00    +0.000 A 
ATOM     20  C   UNL     1       0.853   8.857  22.174  0.00  0.00    +0.000 A 
ATOM     21  C   UNL     1       0.767   9.116  20.801  0.00  0.00    +0.000 A 
BRANCH  16  23
ATOM     22  C   UNL     1      -1.392  10.377  18.290  0.00  0.00    +0.000 C 
ATOM     23  C   UNL     1      -0.052  10.704  18.940  0.00  0.00    +0.000 C 
ENDBRANCH  16  23
ENDBRANCH   1  21
TORSDOF 4
ENDMDL
MODEL 5
REMARK VINA RESULT:      -6.8      0.972      1.021
REMARK  Name = 
REMARK  6 active torsions:
REMARK  status: ('A' for Active; 'I' for Inactive)
REMARK    1  A    between atoms: C_1  and  C_2
REMARK    2  A    between atoms: C_2  and  C_3
REMARK    3  A    between atoms: C_8  and  N_9
REMARK    4  A    between atoms: C_10  and  C_12
REMARK    5  A    between atoms: N_20  and  C_21
REMARK    6  A    between atoms: C_21  and  C_22
REMARK                            x       y       z     vdW  Elec       q    Type
REMARK                         _______ _______ _______ _____ _____    ______ ____
ROOT
ATOM      1  N   UNL     1       2.217   7.459  18.759  0.00  0.00    +0.000 N 
ATOM      2  C   UNL     1       1.792   8.747  18.470  0.00  0.00    +0.000 C 
ATOM      3  O   UNL     1       2.170   9.422  17.520  0.00  0.00    +0.000 OA
ATOM      4  H   UNL     1       1.955   7.111  19.669  0.00  0.00    +0.000 HD
ENDROOT
BRANCH   2   5
ATOM      5  C   UNL     1       0.905   9.294  19.493  0.00  0.00    +0.000 A 
ATOM      6  C   UNL     1       0.883   8.994  20.853  0.00  0.00    +0.000 A 
ATOM      7  C   UNL     1      -0.015   9.918  21.455  0.00  0.00    +0.000 A 
ATOM      8  S   UNL     1      -0.579  10.373  23.028  0.00  0.00    +0.000 S 
ATOM      9  C   UNL     1      -1.468  11.636  22.323  0.00  0.00    +0.000 A 
ATOM     10 CL   UNL     1      -2.324  12.723  23.350  0.00  0.00    +0.000 Cl
ATOM     11  C   UNL     1      -1.436  11.697  20.953  0.00  0.00    +0.000 A 
ATOM     12  C   UNL     1      -0.563  10.680  20.466  0.00  0.00    +0.000 A 
ATOM     13  N   UNL     1      -0.092  10.229  19.255  0.00  0.00    +0.000 N 
BRANCH  13  14
ATOM     14  C   UNL     1      -0.525  10.773  17.981  0.00  0.00    +0.000 C 
ATOM     15  C   UNL     1      -1.614   9.944  17.328  0.00  0.00    +0.000 C 
ENDBRANCH  13  14
ENDBRANCH   2   5
BRANCH   1  21
ATOM     16  C   UNL     1       2.945   5.270  17.934  0.00  0.00    +0.000 A 
ATOM     17  C   UNL     1       3.848   4.496  17.174  0.00  0.00    +0.000 A 
ATOM     18  C   UNL     1       4.936   5.085  16.538  0.00  0.00    +0.000 A 
ATOM     19  C   UNL     1       5.124   6.456  16.632  0.00  0.00    +0.000 A 
ATOM     20  C   UNL     1       4.217   7.243  17.347  0.00  0.00    +0.000 A 
ATOM     21  C   UNL     1       3.125   6.670  18.011  0.00  0.00    +0.000 A 
BRANCH  16  23
ATOM     22  C   UNL     1       2.555   4.178  20.128  0.00  0.00    +0.000 C 
ATOM     23  C   UNL     1       1.940   4.509  18.773  0.00  0.00    +0.000 C 
ENDBRANCH  16  23
ENDBRANCH   1  21
TORSDOF 4
ENDMDL
MODEL 6
REMARK VINA RESULT:      -6.8      5.830      8.467
REMARK  Name = 
REMARK  6 active torsions:
REMARK  status: ('A' for Active; 'I' for Inactive)
REMARK    1  A    between atoms: C_1  and  C_2
REMARK    2  A    between atoms: C_2  and  C_3
REMARK    3  A    between atoms: C_8  and  N_9
REMARK    4  A    between atoms: C_10  and  C_12
REMARK    5  A    between atoms: N_20  and  C_21
REMARK    6  A    between atoms: C_21  and  C_22
REMARK                            x       y       z     vdW  Elec       q    Type
REMARK                         _______ _______ _______ _____ _____    ______ ____
ROOT
ATOM      1  N   UNL     1       3.988   3.595  18.231  0.00  0.00    +0.000 N 
ATOM      2  C   UNL     1       5.293   4.062  18.201  0.00  0.00    +0.000 C 
ATOM      3  O   UNL     1       5.917   4.485  19.167  0.00  0.00    +0.000 OA
ATOM      4  H   UNL     1       3.558   3.455  17.329  0.00  0.00    +0.000 HD
ENDROOT
BRANCH   2   5
ATOM      5  C   UNL     1       5.846   4.114  16.850  0.00  0.00    +0.000 A 
ATOM      6  C   UNL     1       5.517   3.309  15.762  0.00  0.00    +0.000 A 
ATOM      7  C   UNL     1       6.175   3.870  14.633  0.00  0.00    +0.000 A 
ATOM      8  S   UNL     1       6.274   3.643  12.919  0.00  0.00    +0.000 S 
ATOM      9  C   UNL     1       7.257   5.024  12.813  0.00  0.00    +0.000 A 
ATOM     10 CL   UNL     1       7.753   5.573  11.256  0.00  0.00    +0.000 Cl
ATOM     11  C   UNL     1       7.590   5.613  14.005  0.00  0.00    +0.000 A 
ATOM     12  C   UNL     1       6.931   4.921  15.063  0.00  0.00    +0.000 A 
ATOM     13  N   UNL     1       6.823   5.005  16.432  0.00  0.00    +0.000 N 
BRANCH  13  14
ATOM     14  C   UNL     1       7.554   5.973  17.228  0.00  0.00    +0.000 C 
ATOM     15  C   UNL     1       6.865   7.323  17.289  0.00  0.00    +0.000 C 
ENDBRANCH  13  14
ENDBRANCH   2   5
BRANCH   1  21
ATOM     16  C   UNL     1       2.037   4.344  19.510  0.00  0.00    +0.000 A 
ATOM     17  C   UNL     1       1.197   4.210  20.635  0.00  0.00    +0.000 A 
ATOM     18  C   UNL     1       1.470   3.270  21.624  0.00  0.00    +0.000 A 
ATOM     19  C   UNL     1       2.571   2.437  21.491  0.00  0.00    +0.000 A 
ATOM     20  C   UNL     1       3.390   2.529  20.362  0.00  0.00    +0.000 A 
ATOM     21  C   UNL     1       3.146   3.480  19.364  0.00  0.00    +0.000 A 
BRANCH  16  23
ATOM     22  C   UNL     1       2.591   6.733  19.132  0.00  0.00    +0.000 C 
ATOM     23  C   UNL     1       1.789   5.543  18.618  0.00  0.00    +0.000 C 
ENDBRANCH  16  23
ENDBRANCH   1  21
TORSDOF 4
ENDMDL
MODEL 7
REMARK VINA RESULT:      -6.8      0.827      1.024
REMARK  Name = 
REMARK  6 active torsions:
REMARK  status: ('A' for Active; 'I' for Inactive)
REMARK    1  A    between atoms: C_1  and  C_2
REMARK    2  A    between atoms: C_2  and  C_3
REMARK    3  A    between atoms: C_8  and  N_9
REMARK    4  A    between atoms: C_10  and  C_12
REMARK    5  A    between atoms: N_20  and  C_21
REMARK    6  A    between atoms: C_21  and  C_22
REMARK                            x       y       z     vdW  Elec       q    Type
REMARK                         _______ _______ _______ _____ _____    ______ ____
ROOT
ATOM      1  N   UNL     1       2.521   6.506  19.151  0.00  0.00    +0.000 N 
ATOM      2  C   UNL     1       2.359   7.844  18.826  0.00  0.00    +0.000 C 
ATOM      3  O   UNL     1       2.957   8.436  17.935  0.00  0.00    +0.000 OA
ATOM      4  H   UNL     1       2.097   6.217  20.019  0.00  0.00    +0.000 HD
ENDROOT
BRANCH   2   5
ATOM      5  C   UNL     1       1.462   8.545  19.742  0.00  0.00    +0.000 A 
ATOM      6  C   UNL     1       1.059   8.145  21.014  0.00  0.00    +0.000 A 
ATOM      7  C   UNL     1       0.351   9.244  21.576  0.00  0.00    +0.000 A 
ATOM      8  S   UNL     1      -0.390   9.707  23.070  0.00  0.00    +0.000 S 
ATOM      9  C   UNL     1      -0.708  11.241  22.415  0.00  0.00    +0.000 A 
ATOM     10 CL   UNL     1      -1.423  12.443  23.422  0.00  0.00    +0.000 Cl
ATOM     11  C   UNL     1      -0.361  11.412  21.100  0.00  0.00    +0.000 A 
ATOM     12  C   UNL     1       0.272  10.223  20.630  0.00  0.00    +0.000 A 
ATOM     13  N   UNL     1       0.849   9.759  19.471  0.00  0.00    +0.000 N 
BRANCH  13  14
ATOM     14  C   UNL     1       0.878  10.522  18.237  0.00  0.00    +0.000 C 
ATOM     15  C   UNL     1       1.880  11.661  18.275  0.00  0.00    +0.000 C 
ENDBRANCH  13  14
ENDBRANCH   2   5
BRANCH   1  21
ATOM     16  C   UNL     1       2.800   4.484  17.795  0.00  0.00    +0.000 A 
ATOM     17  C   UNL     1       3.650   3.563  17.148  0.00  0.00    +0.000 A 
ATOM     18  C   UNL     1       5.034   3.679  17.239  0.00  0.00    +0.000 A 
ATOM     19  C   UNL     1       5.586   4.728  17.958  0.00  0.00    +0.000 A 
ATOM     20  C   UNL     1       4.759   5.673  18.571  0.00  0.00    +0.000 A 
ATOM     21  C   UNL     1       3.364   5.566  18.509  0.00  0.00    +0.000 A 
BRANCH  16  23
ATOM     22  C   UNL     1       1.128   2.836  18.599  0.00  0.00    +0.000 C 
ATOM     23  C   UNL     1       1.326   4.138  17.831  0.00  0.00    +0.000 C 
ENDBRANCH  16  23
ENDBRANCH   1  21
TORSDOF 4
ENDMDL
MODEL 8
REMARK VINA RESULT:      -6.8      3.807      7.565
REMARK  Name = 
REMARK  6 active torsions:
REMARK  status: ('A' for Active; 'I' for Inactive)
REMARK    1  A    between atoms: C_1  and  C_2
REMARK    2  A    between atoms: C_2  and  C_3
REMARK    3  A    between atoms: C_8  and  N_9
REMARK    4  A    between atoms: C_10  and  C_12
REMARK    5  A    between atoms: N_20  and  C_21
REMARK    6  A    between atoms: C_21  and  C_22
REMARK                            x       y       z     vdW  Elec       q    Type
REMARK                         _______ _______ _______ _____ _____    ______ ____
ROOT
ATOM      1  N   UNL     1       1.115   9.398  19.161  0.00  0.00    +0.000 N 
ATOM      2  C   UNL     1       1.535   8.232  19.784  0.00  0.00    +0.000 C 
ATOM      3  O   UNL     1       1.248   7.895  20.926  0.00  0.00    +0.000 OA
ATOM      4  H   UNL     1       1.582   9.617  18.294  0.00  0.00    +0.000 HD
ENDROOT
BRANCH   2   5
ATOM      5  C   UNL     1       2.474   7.462  18.972  0.00  0.00    +0.000 A 
ATOM      6  C   UNL     1       3.055   7.829  17.760  0.00  0.00    +0.000 A 
ATOM      7  C   UNL     1       4.036   6.841  17.468  0.00  0.00    +0.000 A 
ATOM      8  S   UNL     1       5.273   6.519  16.301  0.00  0.00    +0.000 S 
ATOM      9  C   UNL     1       5.734   5.151  17.195  0.00  0.00    +0.000 A 
ATOM     10 CL   UNL     1       7.105   4.243  16.678  0.00  0.00    +0.000 Cl
ATOM     11  C   UNL     1       4.960   4.866  18.291  0.00  0.00    +0.000 A 
ATOM     12  C   UNL     1       3.972   5.883  18.437  0.00  0.00    +0.000 A 
ATOM     13  N   UNL     1       2.944   6.198  19.295  0.00  0.00    +0.000 N 
BRANCH  13  14
ATOM     14  C   UNL     1       2.552   5.353  20.408  0.00  0.00    +0.000 C 
ATOM     15  C   UNL     1       1.397   4.431  20.066  0.00  0.00    +0.000 C 
ENDBRANCH  13  14
ENDBRANCH   2   5
BRANCH   1  21
ATOM     16  C   UNL     1      -0.988  10.653  19.084  0.00  0.00    +0.000 A 
ATOM     17  C   UNL     1      -1.837  11.636  19.634  0.00  0.00    +0.000 A 
ATOM     18  C   UNL     1      -1.444  12.383  20.740  0.00  0.00    +0.000 A 
ATOM     19  C   UNL     1      -0.210  12.143  21.326  0.00  0.00    +0.000 A 
ATOM     20  C   UNL     1       0.625  11.144  20.818  0.00  0.00    +0.000 A 
ATOM     21  C   UNL     1       0.260  10.393  19.695  0.00  0.00    +0.000 A 
BRANCH  16  23
ATOM     22  C   UNL     1      -2.924  10.095  17.635  0.00  0.00    +0.000 C 
ATOM     23  C   UNL     1      -1.404  10.065  17.751  0.00  0.00    +0.000 C 
ENDBRANCH  16  23
ENDBRANCH   1  21
TORSDOF 4
ENDMDL
MODEL 9
REMARK VINA RESULT:      -6.7      1.332      1.791
REMARK  Name = 
REMARK  6 active torsions:
REMARK  status: ('A' for Active; 'I' for Inactive)
REMARK    1  A    between atoms: C_1  and  C_2
REMARK    2  A    between atoms: C_2  and  C_3
REMARK    3  A    between atoms: C_8  and  N_9
REMARK    4  A    between atoms: C_10  and  C_12
REMARK    5  A    between atoms: N_20  and  C_21
REMARK    6  A    between atoms: C_21  and  C_22
REMARK                            x       y       z     vdW  Elec       q    Type
REMARK                         _______ _______ _______ _____ _____    ______ ____
ROOT
ATOM      1  N   UNL     1       1.809   5.797  19.367  0.00  0.00    +0.000 N 
ATOM      2  C   UNL     1       2.233   7.115  19.291  0.00  0.00    +0.000 C 
ATOM      3  O   UNL     1       3.240   7.504  18.709  0.00  0.00    +0.000 OA
ATOM      4  H   UNL     1       1.070   5.618  20.030  0.00  0.00    +0.000 HD
ENDROOT
BRANCH   2   5
ATOM      5  C   UNL     1       1.408   8.023  20.084  0.00  0.00    +0.000 A 
ATOM      6  C   UNL     1       1.020   7.881  21.413  0.00  0.00    +0.000 A 
ATOM      7  C   UNL     1       0.398   9.105  21.784  0.00  0.00    +0.000 A 
ATOM      8  S   UNL     1      -0.270   9.872  23.186  0.00  0.00    +0.000 S 
ATOM      9  C   UNL     1      -0.512  11.284  22.274  0.00  0.00    +0.000 A 
ATOM     10 CL   UNL     1      -1.122  12.688  23.065  0.00  0.00    +0.000 Cl
ATOM     11  C   UNL     1      -0.194  11.197  20.944  0.00  0.00    +0.000 A 
ATOM     12  C   UNL     1       0.350   9.906  20.681  0.00  0.00    +0.000 A 
ATOM     13  N   UNL     1       0.863   9.208  19.612  0.00  0.00    +0.000 N 
BRANCH  13  14
ATOM     14  C   UNL     1       0.903   9.739  18.262  0.00  0.00    +0.000 C 
ATOM     15  C   UNL     1      -0.474   9.849  17.635  0.00  0.00    +0.000 C 
ENDBRANCH  13  14
ENDBRANCH   2   5
BRANCH   1  21
ATOM     16  C   UNL     1       2.065   3.366  19.199  0.00  0.00    +0.000 A 
ATOM     17  C   UNL     1       2.669   2.247  18.589  0.00  0.00    +0.000 A 
ATOM     18  C   UNL     1       3.640   2.406  17.605  0.00  0.00    +0.000 A 
ATOM     19  C   UNL     1       4.003   3.682  17.201  0.00  0.00    +0.000 A 
ATOM     20  C   UNL     1       3.385   4.800  17.767  0.00  0.00    +0.000 A 
ATOM     21  C   UNL     1       2.419   4.666  18.772  0.00  0.00    +0.000 A 
BRANCH  16  23
ATOM     22  C   UNL     1       2.088   2.928  21.642  0.00  0.00    +0.000 C 
ATOM     23  C   UNL     1       1.201   3.092  20.413  0.00  0.00    +0.000 C 
ENDBRANCH  16  23
ENDBRANCH   1  21
TORSDOF 4
ENDMDL
