MODEL 1
REMARK VINA RESULT:      -8.4      0.000      0.000
REMARK  Name = 
REMARK  8 active torsions:
REMARK  status: ('A' for Active; 'I' for Inactive)
REMARK    1  A    between atoms: C_1  and  C_2
REMARK    2  A    between atoms: N_4  and  C_5
REMARK    3  A    between atoms: C_13  and  C_14
REMARK    4  A    between atoms: C_14  and  O_16
REMARK    5  A    between atoms: O_16  and  C_17
REMARK    6  A    between atoms: C_17  and  C_18
REMARK    7  A    between atoms: C_17  and  C_19
REMARK    8  A    between atoms: N_24  and  C_25
REMARK                            x       y       z     vdW  Elec       q    Type
REMARK                         _______ _______ _______ _____ _____    ______ ____
ROOT
ATOM      1  O   UNL     1       4.476   6.241  19.192  0.00  0.00    +0.000 OA
ENDROOT
BRANCH   1   2
ATOM      2  C   UNL     1       5.310   5.187  18.957  0.00  0.00    +0.000 C 
ATOM      3  O   UNL     1       5.493   4.264  19.736  0.00  0.00    +0.000 OA
BRANCH   2  10
ATOM      4  C   UNL     1       7.725   7.189  18.155  0.00  0.00    +0.000 C 
ATOM      5  C   UNL     1       7.061   6.153  17.309  0.00  0.00    +0.000 A 
ATOM      6  N   UNL     1       7.488   5.932  16.056  0.00  0.00    +0.000 NA
ATOM      7  N   UNL     1       6.613   5.014  15.548  0.00  0.00    +0.000 N 
ATOM      8  C   UNL     1       5.786   4.538  16.546  0.00  0.00    +0.000 A 
ATOM      9 CL   UNL     1       4.837   3.121  16.343  0.00  0.00    +0.000 Cl
ATOM     10  C   UNL     1       5.994   5.290  17.679  0.00  0.00    +0.000 A 
BRANCH   7  11
ATOM     11  C   UNL     1       6.641   4.666  14.166  0.00  0.00    +0.000 A 
ATOM     12  C   UNL     1       7.608   5.217  13.315  0.00  0.00    +0.000 A 
ATOM     13  C   UNL     1       7.707   4.760  11.995  0.00  0.00    +0.000 A 
ATOM     14  C   UNL     1       6.826   3.791  11.513  0.00  0.00    +0.000 A 
ATOM     15  C   UNL     1       5.817   3.300  12.334  0.00  0.00    +0.000 A 
ATOM     16  C   UNL     1       5.715   3.749  13.649  0.00  0.00    +0.000 A 
ENDBRANCH   7  11
ENDBRANCH   2  10
ENDBRANCH   1   2
BRANCH   1  17
ATOM     17  C   UNL     1       3.319   6.364  18.363  0.00  0.00    +0.000 C 
ATOM     18  C   UNL     1       2.545   5.054  18.422  0.00  0.00    +0.000 C 
BRANCH  17  19
ATOM     19  C   UNL     1       2.406   7.495  18.838  0.00  0.00    +0.000 C 
ATOM     20  O   UNL     1       1.842   8.223  18.016  0.00  0.00    +0.000 OA
ATOM     21  N   UNL     1       2.161   7.550  20.197  0.00  0.00    +0.000 N 
ATOM     22  C   UNL     1       1.353   8.442  20.875  0.00  0.00    +0.000 C 
ATOM     23  O   UNL     1       1.283   8.403  22.096  0.00  0.00    +0.000 OA
ATOM     24  N   UNL     1       0.697   9.341  20.082  0.00  0.00    +0.000 N 
ATOM     25  H   UNL     1       2.678   6.933  20.813  0.00  0.00    +0.000 HD
ATOM     26  H   UNL     1       0.714   9.131  19.088  0.00  0.00    +0.000 HD
BRANCH  24  27
ATOM     27  C   UNL     1      -0.192  10.405  20.533  0.00  0.00    +0.000 C 
ATOM     28  C   UNL     1       0.566  11.650  21.016  0.00  0.00    +0.000 C 
ATOM     29  C   UNL     1       1.358  12.298  19.883  0.00  0.00    +0.000 C 
ATOM     30  C   UNL     1       0.446  12.690  18.724  0.00  0.00    +0.000 C 
ATOM     31  C   UNL     1      -0.419  11.527  18.243  0.00  0.00    +0.000 C 
ATOM     32  C   UNL     1      -1.143  10.813  19.391  0.00  0.00    +0.000 C 
ENDBRANCH  24  27
ENDBRANCH  17  19
ENDBRANCH   1  17
TORSDOF 6
ENDMDL
MODEL 2
REMARK VINA RESULT:      -8.3      4.289     10.389
REMARK  Name = 
REMARK  8 active torsions:
REMARK  status: ('A' for Active; 'I' for Inactive)
REMARK    1  A    between atoms: C_1  and  C_2
REMARK    2  A    between atoms: N_4  and  C_5
REMARK    3  A    between atoms: C_13  and  C_14
REMARK    4  A    between atoms: C_14  and  O_16
REMARK    5  A    between atoms: O_16  and  C_17
REMARK    6  A    between atoms: C_17  and  C_18
REMARK    7  A    between atoms: C_17  and  C_19
REMARK    8  A    between atoms: N_24  and  C_25
REMARK                            x       y       z     vdW  Elec       q    Type
REMARK                         _______ _______ _______ _____ _____    ______ ____
ROOT
ATOM      1  O   UNL     1      -0.123   9.328  20.209  0.00  0.00    +0.000 OA
ENDROOT
BRANCH   1   2
ATOM      2  C   UNL     1      -0.251  10.175  19.147  0.00  0.00    +0.000 C 
ATOM      3  O   UNL     1       0.548  10.255  18.227  0.00  0.00    +0.000 OA
BRANCH   2  10
ATOM      4  C   UNL     1      -0.670  12.835  20.944  0.00  0.00    +0.000 C 
ATOM      5  C   UNL     1      -1.638  12.186  20.012  0.00  0.00    +0.000 A 
ATOM      6  N   UNL     1      -2.846  12.735  19.805  0.00  0.00    +0.000 NA
ATOM      7  N   UNL     1      -3.496  11.848  18.994  0.00  0.00    +0.000 N 
ATOM      8  C   UNL     1      -2.623  10.871  18.557  0.00  0.00    +0.000 A 
ATOM      9 CL   UNL     1      -3.006   9.830  17.246  0.00  0.00    +0.000 Cl
ATOM     10  C   UNL     1      -1.437  11.011  19.238  0.00  0.00    +0.000 A 
BRANCH   7  11
ATOM     11  C   UNL     1      -4.883  12.005  18.704  0.00  0.00    +0.000 A 
ATOM     12  C   UNL     1      -5.842  11.839  19.712  0.00  0.00    +0.000 A 
ATOM     13  C   UNL     1      -7.184  12.133  19.442  0.00  0.00    +0.000 A 
ATOM     14  C   UNL     1      -7.576  12.551  18.170  0.00  0.00    +0.000 A 
ATOM     15  C   UNL     1      -6.637  12.642  17.149  0.00  0.00    +0.000 A 
ATOM     16  C   UNL     1      -5.299  12.354  17.411  0.00  0.00    +0.000 A 
ENDBRANCH   7  11
ENDBRANCH   2  10
ENDBRANCH   1   2
BRANCH   1  17
ATOM     17  C   UNL     1       1.194   9.093  20.710  0.00  0.00    +0.000 C 
ATOM     18  C   UNL     1       1.130   9.062  22.232  0.00  0.00    +0.000 C 
BRANCH  17  19
ATOM     19  C   UNL     1       1.753   7.758  20.217  0.00  0.00    +0.000 C 
ATOM     20  O   UNL     1       1.471   6.711  20.806  0.00  0.00    +0.000 OA
ATOM     21  N   UNL     1       2.459   7.795  19.029  0.00  0.00    +0.000 N 
ATOM     22  C   UNL     1       3.034   6.737  18.353  0.00  0.00    +0.000 C 
ATOM     23  O   UNL     1       3.683   6.936  17.335  0.00  0.00    +0.000 OA
ATOM     24  N   UNL     1       2.833   5.512  18.926  0.00  0.00    +0.000 N 
ATOM     25  H   UNL     1       2.671   8.696  18.613  0.00  0.00    +0.000 HD
ATOM     26  H   UNL     1       2.128   5.489  19.657  0.00  0.00    +0.000 HD
BRANCH  24  27
ATOM     27  C   UNL     1       3.348   4.237  18.443  0.00  0.00    +0.000 C 
ATOM     28  C   UNL     1       3.859   3.334  19.574  0.00  0.00    +0.000 C 
ATOM     29  C   UNL     1       2.732   2.931  20.522  0.00  0.00    +0.000 C 
ATOM     30  C   UNL     1       1.613   2.210  19.778  0.00  0.00    +0.000 C 
ATOM     31  C   UNL     1       1.109   3.001  18.572  0.00  0.00    +0.000 C 
ATOM     32  C   UNL     1       2.247   3.487  17.666  0.00  0.00    +0.000 C 
ENDBRANCH  24  27
ENDBRANCH  17  19
ENDBRANCH   1  17
TORSDOF 6
ENDMDL
MODEL 3
REMARK VINA RESULT:      -8.1      3.713     10.795
REMARK  Name = 
REMARK  8 active torsions:
REMARK  status: ('A' for Active; 'I' for Inactive)
REMARK    1  A    between atoms: C_1  and  C_2
REMARK    2  A    between atoms: N_4  and  C_5
REMARK    3  A    between atoms: C_13  and  C_14
REMARK    4  A    between atoms: C_14  and  O_16
REMARK    5  A    between atoms: O_16  and  C_17
REMARK    6  A    between atoms: C_17  and  C_18
REMARK    7  A    between atoms: C_17  and  C_19
REMARK    8  A    between atoms: N_24  and  C_25
REMARK                            x       y       z     vdW  Elec       q    Type
REMARK                         _______ _______ _______ _____ _____    ______ ____
ROOT
ATOM      1  O   UNL     1       0.844   9.451  19.465  0.00  0.00    +0.000 OA
ENDROOT
BRANCH   1   2
ATOM      2  C   UNL     1      -0.367  10.073  19.558  0.00  0.00    +0.000 C 
ATOM      3  O   UNL     1      -1.184  10.135  18.653  0.00  0.00    +0.000 OA
BRANCH   2  10
ATOM      4  C   UNL     1       0.611   9.000  22.452  0.00  0.00    +0.000 C 
ATOM      5  C   UNL     1      -0.150  10.245  22.135  0.00  0.00    +0.000 A 
ATOM      6  N   UNL     1      -0.474  11.105  23.114  0.00  0.00    +0.000 NA
ATOM      7  N   UNL     1      -1.236  12.058  22.500  0.00  0.00    +0.000 N 
ATOM      8  C   UNL     1      -1.209  11.884  21.130  0.00  0.00    +0.000 A 
ATOM      9 CL   UNL     1      -1.739  13.107  20.047  0.00  0.00    +0.000 Cl
ATOM     10  C   UNL     1      -0.578  10.693  20.856  0.00  0.00    +0.000 A 
BRANCH   7  11
ATOM     11  C   UNL     1      -1.918  13.050  23.263  0.00  0.00    +0.000 A 
ATOM     12  C   UNL     1      -3.261  12.870  23.622  0.00  0.00    +0.000 A 
ATOM     13  C   UNL     1      -3.873  13.786  24.486  0.00  0.00    +0.000 A 
ATOM     14  C   UNL     1      -3.169  14.893  24.960  0.00  0.00    +0.000 A 
ATOM     15  C   UNL     1      -1.861  15.114  24.543  0.00  0.00    +0.000 A 
ATOM     16  C   UNL     1      -1.245  14.205  23.685  0.00  0.00    +0.000 A 
ENDBRANCH   7  11
ENDBRANCH   2  10
ENDBRANCH   1   2
BRANCH   1  17
ATOM     17  C   UNL     1       1.442   9.363  18.170  0.00  0.00    +0.000 C 
ATOM     18  C   UNL     1       2.221  10.647  17.913  0.00  0.00    +0.000 C 
BRANCH  17  19
ATOM     19  C   UNL     1       2.404   8.179  18.074  0.00  0.00    +0.000 C 
ATOM     20  O   UNL     1       3.259   8.144  17.185  0.00  0.00    +0.000 OA
ATOM     21  N   UNL     1       2.336   7.254  19.100  0.00  0.00    +0.000 N 
ATOM     22  C   UNL     1       3.108   6.122  19.271  0.00  0.00    +0.000 C 
ATOM     23  O   UNL     1       2.889   5.362  20.204  0.00  0.00    +0.000 OA
ATOM     24  N   UNL     1       4.075   5.938  18.322  0.00  0.00    +0.000 N 
ATOM     25  H   UNL     1       1.592   7.336  19.783  0.00  0.00    +0.000 HD
ATOM     26  H   UNL     1       4.251   6.740  17.724  0.00  0.00    +0.000 HD
BRANCH  24  27
ATOM     27  C   UNL     1       5.007   4.820  18.244  0.00  0.00    +0.000 C 
ATOM     28  C   UNL     1       4.900   4.046  16.922  0.00  0.00    +0.000 C 
ATOM     29  C   UNL     1       5.283   4.919  15.729  0.00  0.00    +0.000 C 
ATOM     30  C   UNL     1       6.701   5.461  15.873  0.00  0.00    +0.000 C 
ATOM     31  C   UNL     1       6.924   6.166  17.210  0.00  0.00    +0.000 C 
ATOM     32  C   UNL     1       6.453   5.330  18.406  0.00  0.00    +0.000 C 
ENDBRANCH  24  27
ENDBRANCH  17  19
ENDBRANCH   1  17
TORSDOF 6
ENDMDL
MODEL 4
REMARK VINA RESULT:      -8.0      4.394     11.117
REMARK  Name = 
REMARK  8 active torsions:
REMARK  status: ('A' for Active; 'I' for Inactive)
REMARK    1  A    between atoms: C_1  and  C_2
REMARK    2  A    between atoms: N_4  and  C_5
REMARK    3  A    between atoms: C_13  and  C_14
REMARK    4  A    between atoms: C_14  and  O_16
REMARK    5  A    between atoms: O_16  and  C_17
REMARK    6  A    between atoms: C_17  and  C_18
REMARK    7  A    between atoms: C_17  and  C_19
REMARK    8  A    between atoms: N_24  and  C_25
REMARK                            x       y       z     vdW  Elec       q    Type
REMARK                         _______ _______ _______ _____ _____    ______ ____
ROOT
ATOM      1  O   UNL     1       0.559  10.005  20.262  0.00  0.00    +0.000 OA
ENDROOT
BRANCH   1   2
ATOM      2  C   UNL     1       0.492  11.283  20.735  0.00  0.00    +0.000 C 
ATOM      3  O   UNL     1       1.442  11.904  21.186  0.00  0.00    +0.000 OA
BRANCH   2  10
ATOM      4  C   UNL     1      -1.126  12.304  18.123  0.00  0.00    +0.000 C 
ATOM      5  C   UNL     1      -1.585  12.275  19.543  0.00  0.00    +0.000 A 
ATOM      6  N   UNL     1      -2.830  12.667  19.858  0.00  0.00    +0.000 NA
ATOM      7  N   UNL     1      -2.878  12.610  21.222  0.00  0.00    +0.000 N 
ATOM      8  C   UNL     1      -1.741  12.002  21.716  0.00  0.00    +0.000 A 
ATOM      9 CL   UNL     1      -1.642  11.435  23.334  0.00  0.00    +0.000 Cl
ATOM     10  C   UNL     1      -0.854  11.830  20.678  0.00  0.00    +0.000 A 
BRANCH   7  11
ATOM     11  C   UNL     1      -3.996  13.132  21.935  0.00  0.00    +0.000 A 
ATOM     12  C   UNL     1      -5.285  12.638  21.693  0.00  0.00    +0.000 A 
ATOM     13  C   UNL     1      -6.349  13.063  22.498  0.00  0.00    +0.000 A 
ATOM     14  C   UNL     1      -6.141  13.999  23.512  0.00  0.00    +0.000 A 
ATOM     15  C   UNL     1      -4.877  14.547  23.703  0.00  0.00    +0.000 A 
ATOM     16  C   UNL     1      -3.813  14.127  22.906  0.00  0.00    +0.000 A 
ENDBRANCH   7  11
ENDBRANCH   2  10
ENDBRANCH   1   2
BRANCH   1  17
ATOM     17  C   UNL     1       0.891   8.974  21.194  0.00  0.00    +0.000 C 
ATOM     18  C   UNL     1      -0.393   8.502  21.865  0.00  0.00    +0.000 C 
BRANCH  17  19
ATOM     19  C   UNL     1       1.548   7.780  20.500  0.00  0.00    +0.000 C 
ATOM     20  O   UNL     1       1.433   6.647  20.975  0.00  0.00    +0.000 OA
ATOM     21  N   UNL     1       2.140   8.036  19.278  0.00  0.00    +0.000 N 
ATOM     22  C   UNL     1       2.767   7.138  18.437  0.00  0.00    +0.000 C 
ATOM     23  O   UNL     1       3.302   7.528  17.408  0.00  0.00    +0.000 OA
ATOM     24  N   UNL     1       2.751   5.841  18.867  0.00  0.00    +0.000 N 
ATOM     25  H   UNL     1       2.217   8.997  18.963  0.00  0.00    +0.000 HD
ATOM     26  H   UNL     1       2.118   5.650  19.639  0.00  0.00    +0.000 HD
BRANCH  24  27
ATOM     27  C   UNL     1       3.358   4.699  18.195  0.00  0.00    +0.000 C 
ATOM     28  C   UNL     1       4.109   3.770  19.159  0.00  0.00    +0.000 C 
ATOM     29  C   UNL     1       3.162   3.129  20.171  0.00  0.00    +0.000 C 
ATOM     30  C   UNL     1       2.060   2.337  19.474  0.00  0.00    +0.000 C 
ATOM     31  C   UNL     1       1.322   3.164  18.423  0.00  0.00    +0.000 C 
ATOM     32  C   UNL     1       2.275   3.885  17.461  0.00  0.00    +0.000 C 
ENDBRANCH  24  27
ENDBRANCH  17  19
ENDBRANCH   1  17
TORSDOF 6
ENDMDL
MODEL 5
REMARK VINA RESULT:      -8.0      3.702     10.438
REMARK  Name = 
REMARK  8 active torsions:
REMARK  status: ('A' for Active; 'I' for Inactive)
REMARK    1  A    between atoms: C_1  and  C_2
REMARK    2  A    between atoms: N_4  and  C_5
REMARK    3  A    between atoms: C_13  and  C_14
REMARK    4  A    between atoms: C_14  and  O_16
REMARK    5  A    between atoms: O_16  and  C_17
REMARK    6  A    between atoms: C_17  and  C_18
REMARK    7  A    between atoms: C_17  and  C_19
REMARK    8  A    between atoms: N_24  and  C_25
REMARK                            x       y       z     vdW  Elec       q    Type
REMARK                         _______ _______ _______ _____ _____    ______ ____
ROOT
ATOM      1  O   UNL     1       0.224   9.624  19.476  0.00  0.00    +0.000 OA
ENDROOT
BRANCH   1   2
ATOM      2  C   UNL     1       0.138  10.976  19.318  0.00  0.00    +0.000 C 
ATOM      3  O   UNL     1       1.064  11.691  18.968  0.00  0.00    +0.000 OA
BRANCH   2  10
ATOM      4  C   UNL     1      -0.858  12.238  22.128  0.00  0.00    +0.000 C 
ATOM      5  C   UNL     1      -1.635  12.061  20.866  0.00  0.00    +0.000 A 
ATOM      6  N   UNL     1      -2.905  12.490  20.790  0.00  0.00    +0.000 NA
ATOM      7  N   UNL     1      -3.336  12.085  19.559  0.00  0.00    +0.000 N 
ATOM      8  C   UNL     1      -2.278  11.591  18.821  0.00  0.00    +0.000 A 
ATOM      9 CL   UNL     1      -2.387  11.349  17.124  0.00  0.00    +0.000 Cl
ATOM     10  C   UNL     1      -1.180  11.495  19.644  0.00  0.00    +0.000 A 
BRANCH   7  11
ATOM     11  C   UNL     1      -4.707  12.206  19.189  0.00  0.00    +0.000 A 
ATOM     12  C   UNL     1      -5.353  11.163  18.513  0.00  0.00    +0.000 A 
ATOM     13  C   UNL     1      -6.732  11.241  18.281  0.00  0.00    +0.000 A 
ATOM     14  C   UNL     1      -7.456  12.364  18.684  0.00  0.00    +0.000 A 
ATOM     15  C   UNL     1      -6.801  13.433  19.286  0.00  0.00    +0.000 A 
ATOM     16  C   UNL     1      -5.429  13.361  19.521  0.00  0.00    +0.000 A 
ENDBRANCH   7  11
ENDBRANCH   2  10
ENDBRANCH   1   2
BRANCH   1  17
ATOM     17  C   UNL     1       1.263   9.123  20.319  0.00  0.00    +0.000 C 
ATOM     18  C   UNL     1       0.671   8.840  21.694  0.00  0.00    +0.000 C 
BRANCH  17  19
ATOM     19  C   UNL     1       1.861   7.829  19.766  0.00  0.00    +0.000 C 
ATOM     20  O   UNL     1       2.427   7.826  18.670  0.00  0.00    +0.000 OA
ATOM     21  N   UNL     1       1.840   6.738  20.614  0.00  0.00    +0.000 N 
ATOM     22  C   UNL     1       2.340   5.473  20.377  0.00  0.00    +0.000 C 
ATOM     23  O   UNL     1       2.193   4.586  21.207  0.00  0.00    +0.000 OA
ATOM     24  N   UNL     1       2.961   5.317  19.169  0.00  0.00    +0.000 N 
ATOM     25  H   UNL     1       1.336   6.809  21.491  0.00  0.00    +0.000 HD
ATOM     26  H   UNL     1       3.163   6.182  18.674  0.00  0.00    +0.000 HD
BRANCH  24  27
ATOM     27  C   UNL     1       3.551   4.089  18.651  0.00  0.00    +0.000 C 
ATOM     28  C   UNL     1       3.736   4.113  17.127  0.00  0.00    +0.000 C 
ATOM     29  C   UNL     1       4.726   5.195  16.701  0.00  0.00    +0.000 C 
ATOM     30  C   UNL     1       6.085   4.995  17.364  0.00  0.00    +0.000 C 
ATOM     31  C   UNL     1       5.980   4.863  18.882  0.00  0.00    +0.000 C 
ATOM     32  C   UNL     1       4.920   3.843  19.316  0.00  0.00    +0.000 C 
ENDBRANCH  24  27
ENDBRANCH  17  19
ENDBRANCH   1  17
TORSDOF 6
ENDMDL
MODEL 6
REMARK VINA RESULT:      -8.0      3.508     10.116
REMARK  Name = 
REMARK  8 active torsions:
REMARK  status: ('A' for Active; 'I' for Inactive)
REMARK    1  A    between atoms: C_1  and  C_2
REMARK    2  A    between atoms: N_4  and  C_5
REMARK    3  A    between atoms: C_13  and  C_14
REMARK    4  A    between atoms: C_14  and  O_16
REMARK    5  A    between atoms: O_16  and  C_17
REMARK    6  A    between atoms: C_17  and  C_18
REMARK    7  A    between atoms: C_17  and  C_19
REMARK    8  A    between atoms: N_24  and  C_25
REMARK                            x       y       z     vdW  Elec       q    Type
REMARK                         _______ _______ _______ _____ _____    ______ ____
ROOT
ATOM      1  O   UNL     1       0.466   9.294  19.213  0.00  0.00    +0.000 OA
ENDROOT
BRANCH   1   2
ATOM      2  C   UNL     1       0.557  10.625  18.929  0.00  0.00    +0.000 C 
ATOM      3  O   UNL     1       1.571  11.182  18.539  0.00  0.00    +0.000 OA
BRANCH   2  10
ATOM      4  C   UNL     1       0.075  13.184  20.854  0.00  0.00    +0.000 C 
ATOM      5  C   UNL     1      -0.919  12.464  20.005  0.00  0.00    +0.000 A 
ATOM      6  N   UNL     1      -2.190  12.893  19.944  0.00  0.00    +0.000 NA
ATOM      7  N   UNL     1      -2.834  11.966  19.175  0.00  0.00    +0.000 N 
ATOM      8  C   UNL     1      -1.922  11.093  18.614  0.00  0.00    +0.000 A 
ATOM      9 CL   UNL     1      -2.340  10.053  17.314  0.00  0.00    +0.000 Cl
ATOM     10  C   UNL     1      -0.688  11.335  19.173  0.00  0.00    +0.000 A 
BRANCH   7  11
ATOM     11  C   UNL     1      -4.252  11.991  19.036  0.00  0.00    +0.000 A 
ATOM     12  C   UNL     1      -4.848  11.718  17.797  0.00  0.00    +0.000 A 
ATOM     13  C   UNL     1      -6.242  11.611  17.711  0.00  0.00    +0.000 A 
ATOM     14  C   UNL     1      -7.039  11.810  18.838  0.00  0.00    +0.000 A 
ATOM     15  C   UNL     1      -6.453  12.157  20.051  0.00  0.00    +0.000 A 
ATOM     16  C   UNL     1      -5.066  12.264  20.144  0.00  0.00    +0.000 A 
ENDBRANCH   7  11
ENDBRANCH   2  10
ENDBRANCH   1   2
BRANCH   1  17
ATOM     17  C   UNL     1       1.215   8.804  20.326  0.00  0.00    +0.000 C 
ATOM     18  C   UNL     1       0.244   8.491  21.458  0.00  0.00    +0.000 C 
BRANCH  17  19
ATOM     19  C   UNL     1       1.982   7.530  19.971  0.00  0.00    +0.000 C 
ATOM     20  O   UNL     1       2.802   7.536  19.049  0.00  0.00    +0.000 OA
ATOM     21  N   UNL     1       1.795   6.452  20.815  0.00  0.00    +0.000 N 
ATOM     22  C   UNL     1       2.388   5.207  20.741  0.00  0.00    +0.000 C 
ATOM     23  O   UNL     1       2.075   4.327  21.531  0.00  0.00    +0.000 OA
ATOM     24  N   UNL     1       3.294   5.061  19.728  0.00  0.00    +0.000 N 
ATOM     25  H   UNL     1       1.087   6.513  21.539  0.00  0.00    +0.000 HD
ATOM     26  H   UNL     1       3.579   5.927  19.276  0.00  0.00    +0.000 HD
BRANCH  24  27
ATOM     27  C   UNL     1       4.042   3.853  19.403  0.00  0.00    +0.000 C 
ATOM     28  C   UNL     1       3.318   2.959  18.386  0.00  0.00    +0.000 C 
ATOM     29  C   UNL     1       3.160   3.659  17.038  0.00  0.00    +0.000 C 
ATOM     30  C   UNL     1       4.513   4.068  16.465  0.00  0.00    +0.000 C 
ATOM     31  C   UNL     1       5.344   4.883  17.453  0.00  0.00    +0.000 C 
ATOM     32  C   UNL     1       5.426   4.229  18.838  0.00  0.00    +0.000 C 
ENDBRANCH  24  27
ENDBRANCH  17  19
ENDBRANCH   1  17
TORSDOF 6
ENDMDL
MODEL 7
REMARK VINA RESULT:      -7.9      4.569      7.648
REMARK  Name = 
REMARK  8 active torsions:
REMARK  status: ('A' for Active; 'I' for Inactive)
REMARK    1  A    between atoms: C_1  and  C_2
REMARK    2  A    between atoms: N_4  and  C_5
REMARK    3  A    between atoms: C_13  and  C_14
REMARK    4  A    between atoms: C_14  and  O_16
REMARK    5  A    between atoms: O_16  and  C_17
REMARK    6  A    between atoms: C_17  and  C_18
REMARK    7  A    between atoms: C_17  and  C_19
REMARK    8  A    between atoms: N_24  and  C_25
REMARK                            x       y       z     vdW  Elec       q    Type
REMARK                         _______ _______ _______ _____ _____    ______ ____
ROOT
ATOM      1  O   UNL     1       0.028  11.627  19.411  0.00  0.00    +0.000 OA
ENDROOT
BRANCH   1   2
ATOM      2  C   UNL     1       0.670  11.283  20.564  0.00  0.00    +0.000 C 
ATOM      3  O   UNL     1       0.999  12.074  21.435  0.00  0.00    +0.000 OA
BRANCH   2  10
ATOM      4  C   UNL     1       0.134   9.281  23.052  0.00  0.00    +0.000 C 
ATOM      5  C   UNL     1       0.723   8.963  21.718  0.00  0.00    +0.000 A 
ATOM      6  N   UNL     1       1.063   7.700  21.416  0.00  0.00    +0.000 NA
ATOM      7  N   UNL     1       1.651   7.783  20.185  0.00  0.00    +0.000 N 
ATOM      8  C   UNL     1       1.490   9.052  19.664  0.00  0.00    +0.000 A 
ATOM      9 CL   UNL     1       1.770   9.395  18.004  0.00  0.00    +0.000 Cl
ATOM     10  C   UNL     1       0.958   9.860  20.641  0.00  0.00    +0.000 A 
BRANCH   7  11
ATOM     11  C   UNL     1       2.308   6.656  19.612  0.00  0.00    +0.000 A 
ATOM     12  C   UNL     1       2.240   5.403  20.235  0.00  0.00    +0.000 A 
ATOM     13  C   UNL     1       2.773   4.281  19.589  0.00  0.00    +0.000 A 
ATOM     14  C   UNL     1       3.401   4.408  18.350  0.00  0.00    +0.000 A 
ATOM     15  C   UNL     1       3.536   5.663  17.766  0.00  0.00    +0.000 A 
ATOM     16  C   UNL     1       3.006   6.784  18.403  0.00  0.00    +0.000 A 
ENDBRANCH   7  11
ENDBRANCH   2  10
ENDBRANCH   1   2
BRANCH   1  17
ATOM     17  C   UNL     1      -0.858  12.747  19.458  0.00  0.00    +0.000 C 
ATOM     18  C   UNL     1      -0.505  13.686  18.312  0.00  0.00    +0.000 C 
BRANCH  17  19
ATOM     19  C   UNL     1      -2.317  12.317  19.309  0.00  0.00    +0.000 C 
ATOM     20  O   UNL     1      -3.097  12.426  20.259  0.00  0.00    +0.000 OA
ATOM     21  N   UNL     1      -2.714  11.941  18.040  0.00  0.00    +0.000 N 
ATOM     22  C   UNL     1      -3.972  11.546  17.629  0.00  0.00    +0.000 C 
ATOM     23  O   UNL     1      -4.158  11.181  16.476  0.00  0.00    +0.000 OA
ATOM     24  N   UNL     1      -4.931  11.578  18.603  0.00  0.00    +0.000 N 
ATOM     25  H   UNL     1      -2.012  11.852  17.313  0.00  0.00    +0.000 HD
ATOM     26  H   UNL     1      -4.667  12.072  19.451  0.00  0.00    +0.000 HD
BRANCH  24  27
ATOM     27  C   UNL     1      -6.328  11.189  18.455  0.00  0.00    +0.000 C 
ATOM     28  C   UNL     1      -6.976  10.776  19.784  0.00  0.00    +0.000 C 
ATOM     29  C   UNL     1      -7.029  11.942  20.768  0.00  0.00    +0.000 C 
ATOM     30  C   UNL     1      -7.800  13.122  20.185  0.00  0.00    +0.000 C 
ATOM     31  C   UNL     1      -7.280  13.539  18.811  0.00  0.00    +0.000 C 
ATOM     32  C   UNL     1      -7.135  12.354  17.849  0.00  0.00    +0.000 C 
ENDBRANCH  24  27
ENDBRANCH  17  19
ENDBRANCH   1  17
TORSDOF 6
ENDMDL
MODEL 8
REMARK VINA RESULT:      -7.9      4.645     10.686
REMARK  Name = 
REMARK  8 active torsions:
REMARK  status: ('A' for Active; 'I' for Inactive)
REMARK    1  A    between atoms: C_1  and  C_2
REMARK    2  A    between atoms: N_4  and  C_5
REMARK    3  A    between atoms: C_13  and  C_14
REMARK    4  A    between atoms: C_14  and  O_16
REMARK    5  A    between atoms: O_16  and  C_17
REMARK    6  A    between atoms: C_17  and  C_18
REMARK    7  A    between atoms: C_17  and  C_19
REMARK    8  A    between atoms: N_24  and  C_25
REMARK                            x       y       z     vdW  Elec       q    Type
REMARK                         _______ _______ _______ _____ _____    ______ ____
ROOT
ATOM      1  O   UNL     1       0.011  10.000  20.241  0.00  0.00    +0.000 OA
ENDROOT
BRANCH   1   2
ATOM      2  C   UNL     1      -0.085  11.360  20.203  0.00  0.00    +0.000 C 
ATOM      3  O   UNL     1       0.866  12.117  20.096  0.00  0.00    +0.000 OA
BRANCH   2  10
ATOM      4  C   UNL     1      -1.549  12.473  22.867  0.00  0.00    +0.000 C 
ATOM      5  C   UNL     1      -2.114  12.328  21.493  0.00  0.00    +0.000 A 
ATOM      6  N   UNL     1      -3.370  12.724  21.235  0.00  0.00    +0.000 NA
ATOM      7  N   UNL     1      -3.590  12.361  19.936  0.00  0.00    +0.000 N 
ATOM      8  C   UNL     1      -2.414  11.927  19.356  0.00  0.00    +0.000 A 
ATOM      9 CL   UNL     1      -2.249  11.755  17.655  0.00  0.00    +0.000 Cl
ATOM     10  C   UNL     1      -1.455  11.827  20.337  0.00  0.00    +0.000 A 
BRANCH   7  11
ATOM     11  C   UNL     1      -4.890  12.459  19.361  0.00  0.00    +0.000 A 
ATOM     12  C   UNL     1      -5.421  11.393  18.622  0.00  0.00    +0.000 A 
ATOM     13  C   UNL     1      -6.749  11.452  18.182  0.00  0.00    +0.000 A 
ATOM     14  C   UNL     1      -7.532  12.577  18.442  0.00  0.00    +0.000 A 
ATOM     15  C   UNL     1      -6.982  13.667  19.108  0.00  0.00    +0.000 A 
ATOM     16  C   UNL     1      -5.661  13.614  19.550  0.00  0.00    +0.000 A 
ENDBRANCH   7  11
ENDBRANCH   2  10
ENDBRANCH   1   2
BRANCH   1  17
ATOM     17  C   UNL     1       0.998   9.432  21.105  0.00  0.00    +0.000 C 
ATOM     18  C   UNL     1       0.384   9.264  22.489  0.00  0.00    +0.000 C 
BRANCH  17  19
ATOM     19  C   UNL     1       1.463   8.064  20.605  0.00  0.00    +0.000 C 
ATOM     20  O   UNL     1       1.142   7.040  21.213  0.00  0.00    +0.000 OA
ATOM     21  N   UNL     1       2.127   8.052  19.393  0.00  0.00    +0.000 N 
ATOM     22  C   UNL     1       2.617   6.958  18.708  0.00  0.00    +0.000 C 
ATOM     23  O   UNL     1       3.242   7.112  17.667  0.00  0.00    +0.000 OA
ATOM     24  N   UNL     1       2.367   5.751  19.299  0.00  0.00    +0.000 N 
ATOM     25  H   UNL     1       2.376   8.936  18.962  0.00  0.00    +0.000 HD
ATOM     26  H   UNL     1       1.687   5.773  20.054  0.00  0.00    +0.000 HD
BRANCH  24  27
ATOM     27  C   UNL     1       2.791   4.444  18.810  0.00  0.00    +0.000 C 
ATOM     28  C   UNL     1       3.548   3.630  19.869  0.00  0.00    +0.000 C 
ATOM     29  C   UNL     1       2.655   3.295  21.062  0.00  0.00    +0.000 C 
ATOM     30  C   UNL     1       1.418   2.518  20.627  0.00  0.00    +0.000 C 
ATOM     31  C   UNL     1       0.655   3.215  19.502  0.00  0.00    +0.000 C 
ATOM     32  C   UNL     1       1.565   3.636  18.342  0.00  0.00    +0.000 C 
ENDBRANCH  24  27
ENDBRANCH  17  19
ENDBRANCH   1  17
TORSDOF 6
ENDMDL
MODEL 9
REMARK VINA RESULT:      -7.9      4.641     10.973
REMARK  Name = 
REMARK  8 active torsions:
REMARK  status: ('A' for Active; 'I' for Inactive)
REMARK    1  A    between atoms: C_1  and  C_2
REMARK    2  A    between atoms: N_4  and  C_5
REMARK    3  A    between atoms: C_13  and  C_14
REMARK    4  A    between atoms: C_14  and  O_16
REMARK    5  A    between atoms: O_16  and  C_17
REMARK    6  A    between atoms: C_17  and  C_18
REMARK    7  A    between atoms: C_17  and  C_19
REMARK    8  A    between atoms: N_24  and  C_25
REMARK                            x       y       z     vdW  Elec       q    Type
REMARK                         _______ _______ _______ _____ _____    ______ ____
ROOT
ATOM      1  O   UNL     1      -0.338   9.945  19.286  0.00  0.00    +0.000 OA
ENDROOT
BRANCH   1   2
ATOM      2  C   UNL     1      -0.690  11.179  18.823  0.00  0.00    +0.000 C 
ATOM      3  O   UNL     1       0.099  12.080  18.587  0.00  0.00    +0.000 OA
BRANCH   2  10
ATOM      4  C   UNL     1      -2.571   9.945  16.495  0.00  0.00    +0.000 C 
ATOM      5  C   UNL     1      -2.973  10.788  17.660  0.00  0.00    +0.000 A 
ATOM      6  N   UNL     1      -4.266  11.084  17.863  0.00  0.00    +0.000 NA
ATOM      7  N   UNL     1      -4.264  11.935  18.932  0.00  0.00    +0.000 N 
ATOM      8  C   UNL     1      -3.003  11.997  19.491  0.00  0.00    +0.000 A 
ATOM      9 CL   UNL     1      -2.730  12.665  21.050  0.00  0.00    +0.000 Cl
ATOM     10  C   UNL     1      -2.128  11.328  18.667  0.00  0.00    +0.000 A 
BRANCH   7  11
ATOM     11  C   UNL     1      -5.454  12.611  19.330  0.00  0.00    +0.000 A 
ATOM     12  C   UNL     1      -6.126  13.451  18.433  0.00  0.00    +0.000 A 
ATOM     13  C   UNL     1      -7.365  13.996  18.794  0.00  0.00    +0.000 A 
ATOM     14  C   UNL     1      -7.914  13.738  20.050  0.00  0.00    +0.000 A 
ATOM     15  C   UNL     1      -7.212  12.966  20.970  0.00  0.00    +0.000 A 
ATOM     16  C   UNL     1      -5.979  12.419  20.616  0.00  0.00    +0.000 A 
ENDBRANCH   7  11
ENDBRANCH   2  10
ENDBRANCH   1   2
BRANCH   1  17
ATOM     17  C   UNL     1       0.814   9.861  20.127  0.00  0.00    +0.000 C 
ATOM     18  C   UNL     1       0.390  10.176  21.556  0.00  0.00    +0.000 C 
BRANCH  17  19
ATOM     19  C   UNL     1       1.432   8.463  20.096  0.00  0.00    +0.000 C 
ATOM     20  O   UNL     1       1.170   7.649  20.986  0.00  0.00    +0.000 OA
ATOM     21  N   UNL     1       2.166   8.146  18.969  0.00  0.00    +0.000 N 
ATOM     22  C   UNL     1       2.795   6.951  18.676  0.00  0.00    +0.000 C 
ATOM     23  O   UNL     1       3.464   6.840  17.658  0.00  0.00    +0.000 OA
ATOM     24  N   UNL     1       2.621   5.967  19.609  0.00  0.00    +0.000 N 
ATOM     25  H   UNL     1       2.359   8.874  18.290  0.00  0.00    +0.000 HD
ATOM     26  H   UNL     1       1.897   6.150  20.299  0.00  0.00    +0.000 HD
BRANCH  24  27
ATOM     27  C   UNL     1       3.191   4.626  19.569  0.00  0.00    +0.000 C 
ATOM     28  C   UNL     1       2.743   3.753  20.749  0.00  0.00    +0.000 C 
ATOM     29  C   UNL     1       1.237   3.504  20.722  0.00  0.00    +0.000 C 
ATOM     30  C   UNL     1       0.809   2.836  19.419  0.00  0.00    +0.000 C 
ATOM     31  C   UNL     1       1.300   3.593  18.186  0.00  0.00    +0.000 C 
ATOM     32  C   UNL     1       2.795   3.927  18.253  0.00  0.00    +0.000 C 
ENDBRANCH  24  27
ENDBRANCH  17  19
ENDBRANCH   1  17
TORSDOF 6
ENDMDL
