MODEL 1
REMARK VINA RESULT:      -8.5      0.000      0.000
REMARK  Name = 
REMARK  8 active torsions:
REMARK  status: ('A' for Active; 'I' for Inactive)
REMARK    1  A    between atoms: C_1  and  C_2
REMARK    2  A    between atoms: C_2  and  C_3
REMARK    3  A    between atoms: C_2  and  C_4
REMARK    4  A    between atoms: C_7  and  O_8
REMARK    5  A    between atoms: O_8  and  C_9
REMARK    6  A    between atoms: C_9  and  C_10
REMARK    7  A    between atoms: N_12  and  C_13
REMARK    8  A    between atoms: C_13  and  C_14
REMARK                            x       y       z     vdW  Elec       q    Type
REMARK                         _______ _______ _______ _____ _____    ______ ____
ROOT
ATOM      1  C   UNL     1       2.613   7.327  18.623  0.00  0.00    +0.000 C 
ATOM      2  O   UNL     1       3.247   8.215  18.048  0.00  0.00    +0.000 OA
ATOM      3  N   UNL     1       2.779   5.963  18.323  0.00  0.00    +0.000 N 
ATOM      4  C   UNL     1       2.301   4.963  19.202  0.00  0.00    +0.000 A 
ATOM      5  C   UNL     1       1.531   3.920  18.702  0.00  0.00    +0.000 A 
ATOM      6  C   UNL     1       1.018   2.982  19.597  0.00  0.00    +0.000 A 
ATOM      7  C   UNL     1       1.319   3.089  20.949  0.00  0.00    +0.000 A 
ATOM      8  C   UNL     1       2.105   4.147  21.359  0.00  0.00    +0.000 A 
ATOM      9  N   UNL     1       2.572   5.088  20.517  0.00  0.00    +0.000 NA
ENDROOT
BRANCH   1  10
ATOM     10  C   UNL     1       1.453   7.644  19.604  0.00  0.00    +0.000 C 
BRANCH  10  11
ATOM     11  O   UNL     1       1.737   8.287  20.842  0.00  0.00    +0.000 OA
BRANCH  11  15
ATOM     12  C   UNL     1      -0.971  11.321  21.960  0.00  0.00    +0.000 A 
ATOM     13  C   UNL     1      -0.540  10.334  22.863  0.00  0.00    +0.000 A 
ATOM     14  C   UNL     1       0.356   9.327  22.462  0.00  0.00    +0.000 A 
ATOM     15  C   UNL     1       0.827   9.276  21.149  0.00  0.00    +0.000 A 
ATOM     16  C   UNL     1       0.393  10.253  20.249  0.00  0.00    +0.000 A 
ATOM     17  C   UNL     1      -0.492  11.259  20.648  0.00  0.00    +0.000 A 
BRANCH  12  19
ATOM     18  C   UNL     1      -2.847  11.964  23.451  0.00  0.00    +0.000 C 
ATOM     19  C   UNL     1      -1.822  12.485  22.440  0.00  0.00    +0.000 C 
ATOM     20  C   UNL     1      -1.027  13.645  23.057  0.00  0.00    +0.000 C 
ENDBRANCH  12  19
ENDBRANCH  11  15
ENDBRANCH  10  11
ENDBRANCH   1  10
BRANCH   3  21
ATOM     21  C   UNL     1       3.812   5.534  17.371  0.00  0.00    +0.000 C 
BRANCH  21  22
ATOM     22  C   UNL     1       5.209   5.920  17.818  0.00  0.00    +0.000 A 
ATOM     23  C   UNL     1       5.990   6.823  17.073  0.00  0.00    +0.000 A 
ATOM     24  C   UNL     1       7.319   7.077  17.434  0.00  0.00    +0.000 A 
ATOM     25  C   UNL     1       7.878   6.441  18.538  0.00  0.00    +0.000 A 
ATOM     26  C   UNL     1       7.102   5.576  19.305  0.00  0.00    +0.000 A 
ATOM     27  C   UNL     1       5.774   5.328  18.953  0.00  0.00    +0.000 A 
ENDBRANCH  21  22
ENDBRANCH   3  21
TORSDOF 6
ENDMDL
MODEL 2
REMARK VINA RESULT:      -8.5      0.378      1.137
REMARK  Name = 
REMARK  8 active torsions:
REMARK  status: ('A' for Active; 'I' for Inactive)
REMARK    1  A    between atoms: C_1  and  C_2
REMARK    2  A    between atoms: C_2  and  C_3
REMARK    3  A    between atoms: C_2  and  C_4
REMARK    4  A    between atoms: C_7  and  O_8
REMARK    5  A    between atoms: O_8  and  C_9
REMARK    6  A    between atoms: C_9  and  C_10
REMARK    7  A    between atoms: N_12  and  C_13
REMARK    8  A    between atoms: C_13  and  C_14
REMARK                            x       y       z     vdW  Elec       q    Type
REMARK                         _______ _______ _______ _____ _____    ______ ____
ROOT
ATOM      1  C   UNL     1       2.551   7.306  18.708  0.00  0.00    +0.000 C 
ATOM      2  O   UNL     1       3.171   8.210  18.143  0.00  0.00    +0.000 OA
ATOM      3  N   UNL     1       2.718   5.949  18.375  0.00  0.00    +0.000 N 
ATOM      4  C   UNL     1       2.258   4.928  19.239  0.00  0.00    +0.000 A 
ATOM      5  C   UNL     1       1.486   3.892  18.727  0.00  0.00    +0.000 A 
ATOM      6  C   UNL     1       0.991   2.931  19.609  0.00  0.00    +0.000 A 
ATOM      7  C   UNL     1       1.312   3.010  20.958  0.00  0.00    +0.000 A 
ATOM      8  C   UNL     1       2.099   4.063  21.379  0.00  0.00    +0.000 A 
ATOM      9  N   UNL     1       2.549   5.025  20.552  0.00  0.00    +0.000 NA
ENDROOT
BRANCH   1  10
ATOM     10  C   UNL     1       1.404   7.595  19.713  0.00  0.00    +0.000 C 
BRANCH  10  11
ATOM     11  O   UNL     1       1.717   8.093  21.009  0.00  0.00    +0.000 OA
BRANCH  11  15
ATOM     12  C   UNL     1      -0.993  11.141  22.083  0.00  0.00    +0.000 A 
ATOM     13  C   UNL     1      -0.509  11.000  20.772  0.00  0.00    +0.000 A 
ATOM     14  C   UNL     1       0.402   9.981  20.441  0.00  0.00    +0.000 A 
ATOM     15  C   UNL     1       0.860   9.093  21.416  0.00  0.00    +0.000 A 
ATOM     16  C   UNL     1       0.385   9.238  22.723  0.00  0.00    +0.000 A 
ATOM     17  C   UNL     1      -0.527  10.247  23.050  0.00  0.00    +0.000 A 
BRANCH  12  19
ATOM     18  C   UNL     1      -1.488  13.274  23.250  0.00  0.00    +0.000 C 
ATOM     19  C   UNL     1      -2.085  12.151  22.397  0.00  0.00    +0.000 C 
ATOM     20  C   UNL     1      -2.778  12.747  21.163  0.00  0.00    +0.000 C 
ENDBRANCH  12  19
ENDBRANCH  11  15
ENDBRANCH  10  11
ENDBRANCH   1  10
BRANCH   3  21
ATOM     21  C   UNL     1       3.739   5.546  17.398  0.00  0.00    +0.000 C 
BRANCH  21  22
ATOM     22  C   UNL     1       5.144   5.900  17.848  0.00  0.00    +0.000 A 
ATOM     23  C   UNL     1       5.950   6.779  17.101  0.00  0.00    +0.000 A 
ATOM     24  C   UNL     1       7.284   7.002  17.465  0.00  0.00    +0.000 A 
ATOM     25  C   UNL     1       7.823   6.358  18.575  0.00  0.00    +0.000 A 
ATOM     26  C   UNL     1       7.023   5.517  19.344  0.00  0.00    +0.000 A 
ATOM     27  C   UNL     1       5.690   5.301  18.989  0.00  0.00    +0.000 A 
ENDBRANCH  21  22
ENDBRANCH   3  21
TORSDOF 6
ENDMDL
MODEL 3
REMARK VINA RESULT:      -8.4      0.363      1.162
REMARK  Name = 
REMARK  8 active torsions:
REMARK  status: ('A' for Active; 'I' for Inactive)
REMARK    1  A    between atoms: C_1  and  C_2
REMARK    2  A    between atoms: C_2  and  C_3
REMARK    3  A    between atoms: C_2  and  C_4
REMARK    4  A    between atoms: C_7  and  O_8
REMARK    5  A    between atoms: O_8  and  C_9
REMARK    6  A    between atoms: C_9  and  C_10
REMARK    7  A    between atoms: N_12  and  C_13
REMARK    8  A    between atoms: C_13  and  C_14
REMARK                            x       y       z     vdW  Elec       q    Type
REMARK                         _______ _______ _______ _____ _____    ______ ____
ROOT
ATOM      1  C   UNL     1       2.660   7.153  18.641  0.00  0.00    +0.000 C 
ATOM      2  O   UNL     1       3.298   8.025  18.046  0.00  0.00    +0.000 OA
ATOM      3  N   UNL     1       2.774   5.786  18.330  0.00  0.00    +0.000 N 
ATOM      4  C   UNL     1       2.299   4.797  19.224  0.00  0.00    +0.000 A 
ATOM      5  C   UNL     1       1.481   3.779  18.750  0.00  0.00    +0.000 A 
ATOM      6  C   UNL     1       0.974   2.853  19.661  0.00  0.00    +0.000 A 
ATOM      7  C   UNL     1       1.328   2.945  21.001  0.00  0.00    +0.000 A 
ATOM      8  C   UNL     1       2.160   3.978  21.384  0.00  0.00    +0.000 A 
ATOM      9  N   UNL     1       2.623   4.909  20.529  0.00  0.00    +0.000 NA
ENDROOT
BRANCH   1  10
ATOM     10  C   UNL     1       1.547   7.500  19.666  0.00  0.00    +0.000 C 
BRANCH  10  11
ATOM     11  O   UNL     1       1.878   8.240  20.836  0.00  0.00    +0.000 OA
BRANCH  11  15
ATOM     12  C   UNL     1      -0.894  11.232  21.910  0.00  0.00    +0.000 A 
ATOM     13  C   UNL     1      -0.518  10.209  22.796  0.00  0.00    +0.000 A 
ATOM     14  C   UNL     1       0.400   9.217  22.410  0.00  0.00    +0.000 A 
ATOM     15  C   UNL     1       0.951   9.218  21.128  0.00  0.00    +0.000 A 
ATOM     16  C   UNL     1       0.572  10.231  20.243  0.00  0.00    +0.000 A 
ATOM     17  C   UNL     1      -0.336  11.222  20.628  0.00  0.00    +0.000 A 
BRANCH  12  19
ATOM     18  C   UNL     1      -2.489  12.984  21.173  0.00  0.00    +0.000 C 
ATOM     19  C   UNL     1      -1.772  12.378  22.384  0.00  0.00    +0.000 C 
ATOM     20  C   UNL     1      -2.800  11.994  23.458  0.00  0.00    +0.000 C 
ENDBRANCH  12  19
ENDBRANCH  11  15
ENDBRANCH  10  11
ENDBRANCH   1  10
BRANCH   3  21
ATOM     21  C   UNL     1       3.757   5.330  17.339  0.00  0.00    +0.000 C 
BRANCH  21  22
ATOM     22  C   UNL     1       5.185   5.620  17.763  0.00  0.00    +0.000 A 
ATOM     23  C   UNL     1       5.703   5.121  18.972  0.00  0.00    +0.000 A 
ATOM     24  C   UNL     1       6.981   5.495  19.406  0.00  0.00    +0.000 A 
ATOM     25  C   UNL     1       7.753   6.362  18.640  0.00  0.00    +0.000 A 
ATOM     26  C   UNL     1       7.267   6.830  17.422  0.00  0.00    +0.000 A 
ATOM     27  C   UNL     1       5.997   6.451  16.983  0.00  0.00    +0.000 A 
ENDBRANCH  21  22
ENDBRANCH   3  21
TORSDOF 6
ENDMDL
MODEL 4
REMARK VINA RESULT:      -8.4      1.714      2.544
REMARK  Name = 
REMARK  8 active torsions:
REMARK  status: ('A' for Active; 'I' for Inactive)
REMARK    1  A    between atoms: C_1  and  C_2
REMARK    2  A    between atoms: C_2  and  C_3
REMARK    3  A    between atoms: C_2  and  C_4
REMARK    4  A    between atoms: C_7  and  O_8
REMARK    5  A    between atoms: O_8  and  C_9
REMARK    6  A    between atoms: C_9  and  C_10
REMARK    7  A    between atoms: N_12  and  C_13
REMARK    8  A    between atoms: C_13  and  C_14
REMARK                            x       y       z     vdW  Elec       q    Type
REMARK                         _______ _______ _______ _____ _____    ______ ____
ROOT
ATOM      1  C   UNL     1       3.793   6.406  18.073  0.00  0.00    +0.000 C 
ATOM      2  O   UNL     1       4.784   7.091  17.808  0.00  0.00    +0.000 OA
ATOM      3  N   UNL     1       3.853   5.005  18.199  0.00  0.00    +0.000 N 
ATOM      4  C   UNL     1       2.802   4.287  18.816  0.00  0.00    +0.000 A 
ATOM      5  C   UNL     1       2.265   3.175  18.181  0.00  0.00    +0.000 A 
ATOM      6  C   UNL     1       1.188   2.521  18.779  0.00  0.00    +0.000 A 
ATOM      7  C   UNL     1       0.708   2.970  20.003  0.00  0.00    +0.000 A 
ATOM      8  C   UNL     1       1.312   4.073  20.574  0.00  0.00    +0.000 A 
ATOM      9  N   UNL     1       2.322   4.745  19.991  0.00  0.00    +0.000 NA
ENDROOT
BRANCH   1  10
ATOM     10  C   UNL     1       2.363   7.006  18.119  0.00  0.00    +0.000 C 
BRANCH  10  11
ATOM     11  O   UNL     1       2.177   8.394  17.866  0.00  0.00    +0.000 OA
BRANCH  11  15
ATOM     12  C   UNL     1       0.010  10.411  20.870  0.00  0.00    +0.000 A 
ATOM     13  C   UNL     1       0.038  10.861  19.540  0.00  0.00    +0.000 A 
ATOM     14  C   UNL     1       0.776  10.176  18.559  0.00  0.00    +0.000 A 
ATOM     15  C   UNL     1       1.514   9.038  18.889  0.00  0.00    +0.000 A 
ATOM     16  C   UNL     1       1.493   8.594  20.214  0.00  0.00    +0.000 A 
ATOM     17  C   UNL     1       0.753   9.271  21.189  0.00  0.00    +0.000 A 
BRANCH  12  19
ATOM     18  C   UNL     1      -0.852  10.271  23.193  0.00  0.00    +0.000 C 
ATOM     19  C   UNL     1      -0.905  11.071  21.888  0.00  0.00    +0.000 C 
ATOM     20  C   UNL     1      -0.587  12.547  22.170  0.00  0.00    +0.000 C 
ENDBRANCH  12  19
ENDBRANCH  11  15
ENDBRANCH  10  11
ENDBRANCH   1  10
BRANCH   3  21
ATOM     21  C   UNL     1       5.144   4.309  18.124  0.00  0.00    +0.000 C 
BRANCH  21  22
ATOM     22  C   UNL     1       5.751   4.358  16.735  0.00  0.00    +0.000 A 
ATOM     23  C   UNL     1       7.079   4.775  16.533  0.00  0.00    +0.000 A 
ATOM     24  C   UNL     1       7.586   4.929  15.236  0.00  0.00    +0.000 A 
ATOM     25  C   UNL     1       6.779   4.666  14.134  0.00  0.00    +0.000 A 
ATOM     26  C   UNL     1       5.475   4.214  14.323  0.00  0.00    +0.000 A 
ATOM     27  C   UNL     1       4.971   4.051  15.614  0.00  0.00    +0.000 A 
ENDBRANCH  21  22
ENDBRANCH   3  21
TORSDOF 6
ENDMDL
MODEL 5
REMARK VINA RESULT:      -8.4      2.723      3.815
REMARK  Name = 
REMARK  8 active torsions:
REMARK  status: ('A' for Active; 'I' for Inactive)
REMARK    1  A    between atoms: C_1  and  C_2
REMARK    2  A    between atoms: C_2  and  C_3
REMARK    3  A    between atoms: C_2  and  C_4
REMARK    4  A    between atoms: C_7  and  O_8
REMARK    5  A    between atoms: O_8  and  C_9
REMARK    6  A    between atoms: C_9  and  C_10
REMARK    7  A    between atoms: N_12  and  C_13
REMARK    8  A    between atoms: C_13  and  C_14
REMARK                            x       y       z     vdW  Elec       q    Type
REMARK                         _______ _______ _______ _____ _____    ______ ____
ROOT
ATOM      1  C   UNL     1       4.969   6.277  17.004  0.00  0.00    +0.000 C 
ATOM      2  O   UNL     1       5.736   7.115  16.524  0.00  0.00    +0.000 OA
ATOM      3  N   UNL     1       5.244   4.897  16.982  0.00  0.00    +0.000 N 
ATOM      4  C   UNL     1       4.531   4.002  17.813  0.00  0.00    +0.000 A 
ATOM      5  C   UNL     1       3.977   2.851  17.266  0.00  0.00    +0.000 A 
ATOM      6  C   UNL     1       3.224   2.017  18.091  0.00  0.00    +0.000 A 
ATOM      7  C   UNL     1       3.081   2.331  19.437  0.00  0.00    +0.000 A 
ATOM      8  C   UNL     1       3.680   3.485  19.902  0.00  0.00    +0.000 A 
ATOM      9  N   UNL     1       4.372   4.327  19.112  0.00  0.00    +0.000 NA
ENDROOT
BRANCH   1  10
ATOM     10  C   UNL     1       3.553   6.652  17.518  0.00  0.00    +0.000 C 
BRANCH  10  11
ATOM     11  O   UNL     1       3.040   7.956  17.268  0.00  0.00    +0.000 OA
BRANCH  11  15
ATOM     12  C   UNL     1       0.625   9.518  20.352  0.00  0.00    +0.000 A 
ATOM     13  C   UNL     1       0.768  10.167  19.115  0.00  0.00    +0.000 A 
ATOM     14  C   UNL     1       1.588   9.631  18.106  0.00  0.00    +0.000 A 
ATOM     15  C   UNL     1       2.292   8.444  18.318  0.00  0.00    +0.000 A 
ATOM     16  C   UNL     1       2.156   7.802  19.552  0.00  0.00    +0.000 A 
ATOM     17  C   UNL     1       1.335   8.331  20.553  0.00  0.00    +0.000 A 
BRANCH  12  19
ATOM     18  C   UNL     1      -0.388   9.068  22.572  0.00  0.00    +0.000 C 
ATOM     19  C   UNL     1      -0.374  10.028  21.378  0.00  0.00    +0.000 C 
ATOM     20  C   UNL     1      -0.114  11.460  21.866  0.00  0.00    +0.000 C 
ENDBRANCH  12  19
ENDBRANCH  11  15
ENDBRANCH  10  11
ENDBRANCH   1  10
BRANCH   3  21
ATOM     21  C   UNL     1       6.532   4.407  16.474  0.00  0.00    +0.000 C 
BRANCH  21  22
ATOM     22  C   UNL     1       6.592   4.399  14.958  0.00  0.00    +0.000 A 
ATOM     23  C   UNL     1       5.717   3.603  14.197  0.00  0.00    +0.000 A 
ATOM     24  C   UNL     1       5.863   3.515  12.807  0.00  0.00    +0.000 A 
ATOM     25  C   UNL     1       6.876   4.221  12.164  0.00  0.00    +0.000 A 
ATOM     26  C   UNL     1       7.723   5.044  12.903  0.00  0.00    +0.000 A 
ATOM     27  C   UNL     1       7.573   5.140  14.287  0.00  0.00    +0.000 A 
ENDBRANCH  21  22
ENDBRANCH   3  21
TORSDOF 6
ENDMDL
MODEL 6
REMARK VINA RESULT:      -8.2      3.032      5.186
REMARK  Name = 
REMARK  8 active torsions:
REMARK  status: ('A' for Active; 'I' for Inactive)
REMARK    1  A    between atoms: C_1  and  C_2
REMARK    2  A    between atoms: C_2  and  C_3
REMARK    3  A    between atoms: C_2  and  C_4
REMARK    4  A    between atoms: C_7  and  O_8
REMARK    5  A    between atoms: O_8  and  C_9
REMARK    6  A    between atoms: C_9  and  C_10
REMARK    7  A    between atoms: N_12  and  C_13
REMARK    8  A    between atoms: C_13  and  C_14
REMARK                            x       y       z     vdW  Elec       q    Type
REMARK                         _______ _______ _______ _____ _____    ______ ____
ROOT
ATOM      1  C   UNL     1       1.525   9.027  18.233  0.00  0.00    +0.000 C 
ATOM      2  O   UNL     1       2.286   8.687  17.324  0.00  0.00    +0.000 OA
ATOM      3  N   UNL     1       1.524   8.402  19.493  0.00  0.00    +0.000 N 
ATOM      4  C   UNL     1       0.892   9.010  20.604  0.00  0.00    +0.000 A 
ATOM      5  C   UNL     1       0.012   8.270  21.383  0.00  0.00    +0.000 A 
ATOM      6  C   UNL     1      -0.647   8.908  22.433  0.00  0.00    +0.000 A 
ATOM      7  C   UNL     1      -0.380  10.246  22.698  0.00  0.00    +0.000 A 
ATOM      8  C   UNL     1       0.522  10.902  21.884  0.00  0.00    +0.000 A 
ATOM      9  N   UNL     1       1.134  10.317  20.838  0.00  0.00    +0.000 NA
ENDROOT
BRANCH   1  10
ATOM     10  C   UNL     1       0.383  10.055  18.012  0.00  0.00    +0.000 C 
BRANCH  10  11
ATOM     11  O   UNL     1      -0.814   9.644  17.362  0.00  0.00    +0.000 OA
BRANCH  11  15
ATOM     12  C   UNL     1      -4.299  11.664  18.612  0.00  0.00    +0.000 A 
ATOM     13  C   UNL     1      -4.321  10.698  17.593  0.00  0.00    +0.000 A 
ATOM     14  C   UNL     1      -3.143  10.046  17.187  0.00  0.00    +0.000 A 
ATOM     15  C   UNL     1      -1.918  10.356  17.781  0.00  0.00    +0.000 A 
ATOM     16  C   UNL     1      -1.894  11.323  18.789  0.00  0.00    +0.000 A 
ATOM     17  C   UNL     1      -3.066  11.967  19.198  0.00  0.00    +0.000 A 
BRANCH  12  19
ATOM     18  C   UNL     1      -6.762  11.374  18.686  0.00  0.00    +0.000 C 
ATOM     19  C   UNL     1      -5.595  12.256  19.141  0.00  0.00    +0.000 C 
ATOM     20  C   UNL     1      -5.641  12.432  20.666  0.00  0.00    +0.000 C 
ENDBRANCH  12  19
ENDBRANCH  11  15
ENDBRANCH  10  11
ENDBRANCH   1  10
BRANCH   3  21
ATOM     21  C   UNL     1       2.524   7.375  19.812  0.00  0.00    +0.000 C 
BRANCH  21  22
ATOM     22  C   UNL     1       2.014   5.969  19.557  0.00  0.00    +0.000 A 
ATOM     23  C   UNL     1       1.507   5.176  20.602  0.00  0.00    +0.000 A 
ATOM     24  C   UNL     1       1.151   3.841  20.372  0.00  0.00    +0.000 A 
ATOM     25  C   UNL     1       1.293   3.288  19.103  0.00  0.00    +0.000 A 
ATOM     26  C   UNL     1       1.756   4.076  18.052  0.00  0.00    +0.000 A 
ATOM     27  C   UNL     1       2.102   5.409  18.277  0.00  0.00    +0.000 A 
ENDBRANCH  21  22
ENDBRANCH   3  21
TORSDOF 6
ENDMDL
MODEL 7
REMARK VINA RESULT:      -8.2      1.734      2.375
REMARK  Name = 
REMARK  8 active torsions:
REMARK  status: ('A' for Active; 'I' for Inactive)
REMARK    1  A    between atoms: C_1  and  C_2
REMARK    2  A    between atoms: C_2  and  C_3
REMARK    3  A    between atoms: C_2  and  C_4
REMARK    4  A    between atoms: C_7  and  O_8
REMARK    5  A    between atoms: O_8  and  C_9
REMARK    6  A    between atoms: C_9  and  C_10
REMARK    7  A    between atoms: N_12  and  C_13
REMARK    8  A    between atoms: C_13  and  C_14
REMARK                            x       y       z     vdW  Elec       q    Type
REMARK                         _______ _______ _______ _____ _____    ______ ____
ROOT
ATOM      1  C   UNL     1       3.897   6.399  18.204  0.00  0.00    +0.000 C 
ATOM      2  O   UNL     1       4.903   7.043  17.898  0.00  0.00    +0.000 OA
ATOM      3  N   UNL     1       3.878   4.992  18.232  0.00  0.00    +0.000 N 
ATOM      4  C   UNL     1       2.840   4.294  18.892  0.00  0.00    +0.000 A 
ATOM      5  C   UNL     1       2.183   3.261  18.236  0.00  0.00    +0.000 A 
ATOM      6  C   UNL     1       1.121   2.630  18.883  0.00  0.00    +0.000 A 
ATOM      7  C   UNL     1       0.775   3.017  20.172  0.00  0.00    +0.000 A 
ATOM      8  C   UNL     1       1.493   4.041  20.757  0.00  0.00    +0.000 A 
ATOM      9  N   UNL     1       2.491   4.694  20.132  0.00  0.00    +0.000 NA
ENDROOT
BRANCH   1  10
ATOM     10  C   UNL     1       2.516   7.075  18.416  0.00  0.00    +0.000 C 
BRANCH  10  11
ATOM     11  O   UNL     1       2.347   8.445  18.070  0.00  0.00    +0.000 OA
BRANCH  11  15
ATOM     12  C   UNL     1      -0.193  10.407  20.807  0.00  0.00    +0.000 A 
ATOM     13  C   UNL     1       0.462   9.206  21.125  0.00  0.00    +0.000 A 
ATOM     14  C   UNL     1       1.296   8.566  20.191  0.00  0.00    +0.000 A 
ATOM     15  C   UNL     1       1.480   9.104  18.916  0.00  0.00    +0.000 A 
ATOM     16  C   UNL     1       0.823  10.296  18.596  0.00  0.00    +0.000 A 
ATOM     17  C   UNL     1      -0.001  10.936  19.527  0.00  0.00    +0.000 A 
BRANCH  12  19
ATOM     18  C   UNL     1      -0.938  10.362  23.173  0.00  0.00    +0.000 C 
ATOM     19  C   UNL     1      -0.973  11.165  21.869  0.00  0.00    +0.000 C 
ATOM     20  C   UNL     1      -0.478  12.596  22.125  0.00  0.00    +0.000 C 
ENDBRANCH  12  19
ENDBRANCH  11  15
ENDBRANCH  10  11
ENDBRANCH   1  10
BRANCH   3  21
ATOM     21  C   UNL     1       5.112   4.230  17.999  0.00  0.00    +0.000 C 
BRANCH  21  22
ATOM     22  C   UNL     1       5.666   4.436  16.601  0.00  0.00    +0.000 A 
ATOM     23  C   UNL     1       4.906   4.117  15.461  0.00  0.00    +0.000 A 
ATOM     24  C   UNL     1       5.473   4.200  14.183  0.00  0.00    +0.000 A 
ATOM     25  C   UNL     1       6.796   4.604  14.030  0.00  0.00    +0.000 A 
ATOM     26  C   UNL     1       7.545   4.960  15.149  0.00  0.00    +0.000 A 
ATOM     27  C   UNL     1       6.978   4.887  16.423  0.00  0.00    +0.000 A 
ENDBRANCH  21  22
ENDBRANCH   3  21
TORSDOF 6
ENDMDL
MODEL 8
REMARK VINA RESULT:      -8.2      1.987      2.936
REMARK  Name = 
REMARK  8 active torsions:
REMARK  status: ('A' for Active; 'I' for Inactive)
REMARK    1  A    between atoms: C_1  and  C_2
REMARK    2  A    between atoms: C_2  and  C_3
REMARK    3  A    between atoms: C_2  and  C_4
REMARK    4  A    between atoms: C_7  and  O_8
REMARK    5  A    between atoms: O_8  and  C_9
REMARK    6  A    between atoms: C_9  and  C_10
REMARK    7  A    between atoms: N_12  and  C_13
REMARK    8  A    between atoms: C_13  and  C_14
REMARK                            x       y       z     vdW  Elec       q    Type
REMARK                         _______ _______ _______ _____ _____    ______ ____
ROOT
ATOM      1  C   UNL     1       2.806   7.474  18.318  0.00  0.00    +0.000 C 
ATOM      2  O   UNL     1       3.487   8.297  17.701  0.00  0.00    +0.000 OA
ATOM      3  N   UNL     1       2.914   6.088  18.102  0.00  0.00    +0.000 N 
ATOM      4  C   UNL     1       2.380   5.165  19.032  0.00  0.00    +0.000 A 
ATOM      5  C   UNL     1       1.571   4.129  18.583  0.00  0.00    +0.000 A 
ATOM      6  C   UNL     1       1.005   3.270  19.525  0.00  0.00    +0.000 A 
ATOM      7  C   UNL     1       1.292   3.445  20.873  0.00  0.00    +0.000 A 
ATOM      8  C   UNL     1       2.120   4.490  21.230  0.00  0.00    +0.000 A 
ATOM      9  N   UNL     1       2.640   5.357  20.342  0.00  0.00    +0.000 NA
ENDROOT
BRANCH   1  10
ATOM     10  C   UNL     1       1.649   7.900  19.261  0.00  0.00    +0.000 C 
BRANCH  10  11
ATOM     11  O   UNL     1       1.531   9.263  19.652  0.00  0.00    +0.000 OA
BRANCH  11  15
ATOM     12  C   UNL     1      -1.977  10.941  18.020  0.00  0.00    +0.000 A 
ATOM     13  C   UNL     1      -1.221   9.978  17.333  0.00  0.00    +0.000 A 
ATOM     14  C   UNL     1      -0.049   9.441  17.895  0.00  0.00    +0.000 A 
ATOM     15  C   UNL     1       0.399   9.867  19.147  0.00  0.00    +0.000 A 
ATOM     16  C   UNL     1      -0.349  10.830  19.828  0.00  0.00    +0.000 A 
ATOM     17  C   UNL     1      -1.519  11.360  19.273  0.00  0.00    +0.000 A 
BRANCH  12  19
ATOM     18  C   UNL     1      -3.413  10.998  15.997  0.00  0.00    +0.000 C 
ATOM     19  C   UNL     1      -3.316  11.406  17.471  0.00  0.00    +0.000 C 
ATOM     20  C   UNL     1      -4.539  10.879  18.237  0.00  0.00    +0.000 C 
ENDBRANCH  12  19
ENDBRANCH  11  15
ENDBRANCH  10  11
ENDBRANCH   1  10
BRANCH   3  21
ATOM     21  C   UNL     1       3.939   5.557  17.194  0.00  0.00    +0.000 C 
BRANCH  21  22
ATOM     22  C   UNL     1       5.347   5.778  17.715  0.00  0.00    +0.000 A 
ATOM     23  C   UNL     1       5.777   5.200  18.923  0.00  0.00    +0.000 A 
ATOM     24  C   UNL     1       7.037   5.510  19.449  0.00  0.00    +0.000 A 
ATOM     25  C   UNL     1       7.879   6.390  18.777  0.00  0.00    +0.000 A 
ATOM     26  C   UNL     1       7.479   6.937  17.560  0.00  0.00    +0.000 A 
ATOM     27  C   UNL     1       6.227   6.622  17.029  0.00  0.00    +0.000 A 
ENDBRANCH  21  22
ENDBRANCH   3  21
TORSDOF 6
ENDMDL
MODEL 9
REMARK VINA RESULT:      -8.1      2.720      3.767
REMARK  Name = 
REMARK  8 active torsions:
REMARK  status: ('A' for Active; 'I' for Inactive)
REMARK    1  A    between atoms: C_1  and  C_2
REMARK    2  A    between atoms: C_2  and  C_3
REMARK    3  A    between atoms: C_2  and  C_4
REMARK    4  A    between atoms: C_7  and  O_8
REMARK    5  A    between atoms: O_8  and  C_9
REMARK    6  A    between atoms: C_9  and  C_10
REMARK    7  A    between atoms: N_12  and  C_13
REMARK    8  A    between atoms: C_13  and  C_14
REMARK                            x       y       z     vdW  Elec       q    Type
REMARK                         _______ _______ _______ _____ _____    ______ ____
ROOT
ATOM      1  C   UNL     1       5.123   6.339  17.042  0.00  0.00    +0.000 C 
ATOM      2  O   UNL     1       5.912   7.184  16.613  0.00  0.00    +0.000 OA
ATOM      3  N   UNL     1       5.395   4.959  17.001  0.00  0.00    +0.000 N 
ATOM      4  C   UNL     1       4.645   4.049  17.781  0.00  0.00    +0.000 A 
ATOM      5  C   UNL     1       4.109   2.913  17.186  0.00  0.00    +0.000 A 
ATOM      6  C   UNL     1       3.321   2.064  17.961  0.00  0.00    +0.000 A 
ATOM      7  C   UNL     1       3.123   2.349  19.307  0.00  0.00    +0.000 A 
ATOM      8  C   UNL     1       3.707   3.490  19.821  0.00  0.00    +0.000 A 
ATOM      9  N   UNL     1       4.433   4.346  19.080  0.00  0.00    +0.000 NA
ENDROOT
BRANCH   1  10
ATOM     10  C   UNL     1       3.689   6.710  17.506  0.00  0.00    +0.000 C 
BRANCH  10  11
ATOM     11  O   UNL     1       3.126   7.957  17.114  0.00  0.00    +0.000 OA
BRANCH  11  15
ATOM     12  C   UNL     1       0.865   9.607  20.269  0.00  0.00    +0.000 A 
ATOM     13  C   UNL     1       1.440   8.329  20.352  0.00  0.00    +0.000 A 
ATOM     14  C   UNL     1       2.182   7.796  19.282  0.00  0.00    +0.000 A 
ATOM     15  C   UNL     1       2.350   8.524  18.103  0.00  0.00    +0.000 A 
ATOM     16  C   UNL     1       1.772   9.794  18.017  0.00  0.00    +0.000 A 
ATOM     17  C   UNL     1       1.041  10.326  19.083  0.00  0.00    +0.000 A 
BRANCH  12  19
ATOM     18  C   UNL     1      -0.881  11.212  21.000  0.00  0.00    +0.000 C 
ATOM     19  C   UNL     1       0.192  10.230  21.481  0.00  0.00    +0.000 C 
ATOM     20  C   UNL     1      -0.428   9.219  22.457  0.00  0.00    +0.000 C 
ENDBRANCH  12  19
ENDBRANCH  11  15
ENDBRANCH  10  11
ENDBRANCH   1  10
BRANCH   3  21
ATOM     21  C   UNL     1       6.701   4.475  16.534  0.00  0.00    +0.000 C 
BRANCH  21  22
ATOM     22  C   UNL     1       6.779   4.383  15.022  0.00  0.00    +0.000 A 
ATOM     23  C   UNL     1       7.703   5.152  14.291  0.00  0.00    +0.000 A 
ATOM     24  C   UNL     1       7.683   5.145  12.891  0.00  0.00    +0.000 A 
ATOM     25  C   UNL     1       6.749   4.372  12.209  0.00  0.00    +0.000 A 
ATOM     26  C   UNL     1       5.856   3.576  12.922  0.00  0.00    +0.000 A 
ATOM     27  C   UNL     1       5.881   3.574  14.318  0.00  0.00    +0.000 A 
ENDBRANCH  21  22
ENDBRANCH   3  21
TORSDOF 6
ENDMDL
