MODEL 1
REMARK VINA RESULT:      -7.7      0.000      0.000
REMARK  Name = 
REMARK  4 active torsions:
REMARK  status: ('A' for Active; 'I' for Inactive)
REMARK    1  A    between atoms: C_2  and  O_3
REMARK    2  A    between atoms: C_2  and  C_4
REMARK    3  A    between atoms: N_6  and  C_7
REMARK    4  A    between atoms: C_13  and  C_14
REMARK                            x       y       z     vdW  Elec       q    Type
REMARK                         _______ _______ _______ _____ _____    ______ ____
ROOT
ATOM      1  C   UNL     1       4.023   4.684  17.828  0.00  0.00    +0.000 A 
ATOM      2  C   UNL     1       3.290   4.405  18.920  0.00  0.00    +0.000 A 
ATOM      3  N   UNL     1       2.588   5.320  19.683  0.00  0.00    +0.000 N 
ATOM      4  C   UNL     1       2.501   6.679  19.246  0.00  0.00    +0.000 A 
ATOM      5  C   UNL     1       1.724   7.665  19.889  0.00  0.00    +0.000 A 
ATOM      6  F   UNL     1       1.091   7.350  21.031  0.00  0.00    +0.000 F 
ATOM      7  C   UNL     1       1.566   8.974  19.387  0.00  0.00    +0.000 A 
ATOM      8  C   UNL     1       2.278   9.287  18.221  0.00  0.00    +0.000 A 
ATOM      9  F   UNL     1       2.166  10.498  17.652  0.00  0.00    +0.000 F 
ATOM     10  C   UNL     1       3.097   8.365  17.582  0.00  0.00    +0.000 A 
ATOM     11  C   UNL     1       3.199   7.071  18.092  0.00  0.00    +0.000 A 
ATOM     12  C   UNL     1       4.043   6.087  17.378  0.00  0.00    +0.000 A 
ATOM     13  O   UNL     1       4.735   6.418  16.417  0.00  0.00    +0.000 OA
ENDROOT
BRANCH   7  14
ATOM     14  C   UNL     1       0.644   9.944  20.020  0.00  0.00    +0.000 A 
ATOM     15  C   UNL     1      -0.545  10.372  19.409  0.00  0.00    +0.000 A 
ATOM     16  C   UNL     1      -1.429  11.217  20.079  0.00  0.00    +0.000 A 
ATOM     17  C   UNL     1      -1.096  11.641  21.353  0.00  0.00    +0.000 A 
ATOM     18  N   UNL     1       0.044  11.290  21.976  0.00  0.00    +0.000 NA
ATOM     19  C   UNL     1       0.875  10.459  21.301  0.00  0.00    +0.000 A 
ENDBRANCH   7  14
BRANCH   3  20
ATOM     20  C   UNL     1       1.790   4.836  20.830  0.00  0.00    +0.000 C 
ATOM     21  C   UNL     1       1.029   3.535  20.883  0.00  0.00    +0.000 C 
ATOM     22  C   UNL     1       2.304   3.676  21.650  0.00  0.00    +0.000 C 
ENDBRANCH   3  20
BRANCH   1  24
ATOM     23  O   UNL     1       4.252   2.507  16.903  0.00  0.00    +0.000 OA
ATOM     24  C   UNL     1       4.750   3.596  17.143  0.00  0.00    +0.000 C 
BRANCH  24  25
ATOM     25  O   UNL     1       6.020   3.901  16.798  0.00  0.00    +0.000 OA
ATOM     26  H   UNL     1       6.700   3.278  17.151  0.00  0.00    +0.000 HD
ENDBRANCH  24  25
ENDBRANCH   1  24
TORSDOF 4
ENDMDL
MODEL 2
REMARK VINA RESULT:      -7.6      0.617      1.142
REMARK  Name = 
REMARK  4 active torsions:
REMARK  status: ('A' for Active; 'I' for Inactive)
REMARK    1  A    between atoms: C_2  and  O_3
REMARK    2  A    between atoms: C_2  and  C_4
REMARK    3  A    between atoms: N_6  and  C_7
REMARK    4  A    between atoms: C_13  and  C_14
REMARK                            x       y       z     vdW  Elec       q    Type
REMARK                         _______ _______ _______ _____ _____    ______ ____
ROOT
ATOM      1  C   UNL     1       4.035   4.677  17.780  0.00  0.00    +0.000 A 
ATOM      2  C   UNL     1       3.280   4.375  18.850  0.00  0.00    +0.000 A 
ATOM      3  N   UNL     1       2.552   5.271  19.611  0.00  0.00    +0.000 N 
ATOM      4  C   UNL     1       2.460   6.635  19.193  0.00  0.00    +0.000 A 
ATOM      5  C   UNL     1       1.658   7.603  19.833  0.00  0.00    +0.000 A 
ATOM      6  F   UNL     1       1.003   7.264  20.955  0.00  0.00    +0.000 F 
ATOM      7  C   UNL     1       1.498   8.919  19.348  0.00  0.00    +0.000 A 
ATOM      8  C   UNL     1       2.234   9.257  18.203  0.00  0.00    +0.000 A 
ATOM      9  F   UNL     1       2.123  10.475  17.651  0.00  0.00    +0.000 F 
ATOM     10  C   UNL     1       3.077   8.353  17.569  0.00  0.00    +0.000 A 
ATOM     11  C   UNL     1       3.181   7.052  18.061  0.00  0.00    +0.000 A 
ATOM     12  C   UNL     1       4.051   6.088  17.351  0.00  0.00    +0.000 A 
ATOM     13  O   UNL     1       4.761   6.440  16.412  0.00  0.00    +0.000 OA
ENDROOT
BRANCH   7  14
ATOM     14  C   UNL     1       0.553   9.869  19.974  0.00  0.00    +0.000 A 
ATOM     15  C   UNL     1       0.787  10.460  21.225  0.00  0.00    +0.000 A 
ATOM     16  C   UNL     1      -0.087  11.420  21.736  0.00  0.00    +0.000 A 
ATOM     17  C   UNL     1      -1.201  11.759  20.991  0.00  0.00    +0.000 A 
ATOM     18  N   UNL     1      -1.494  11.203  19.801  0.00  0.00    +0.000 NA
ATOM     19  C   UNL     1      -0.618  10.283  19.328  0.00  0.00    +0.000 A 
ENDBRANCH   7  14
BRANCH   3  20
ATOM     20  C   UNL     1       1.733   4.761  20.732  0.00  0.00    +0.000 C 
ATOM     21  C   UNL     1       1.077   3.404  20.793  0.00  0.00    +0.000 C 
ATOM     22  C   UNL     1       2.292   3.676  21.621  0.00  0.00    +0.000 C 
ENDBRANCH   3  20
BRANCH   1  24
ATOM     23  O   UNL     1       5.636   3.827  16.243  0.00  0.00    +0.000 OA
ATOM     24  C   UNL     1       4.788   3.608  17.095  0.00  0.00    +0.000 C 
BRANCH  24  25
ATOM     25  O   UNL     1       4.467   2.356  17.486  0.00  0.00    +0.000 OA
ATOM     26  H   UNL     1       3.959   2.309  18.332  0.00  0.00    +0.000 HD
ENDBRANCH  24  25
ENDBRANCH   1  24
TORSDOF 4
ENDMDL
MODEL 3
REMARK VINA RESULT:      -7.5      4.714      6.401
REMARK  Name = 
REMARK  4 active torsions:
REMARK  status: ('A' for Active; 'I' for Inactive)
REMARK    1  A    between atoms: C_2  and  O_3
REMARK    2  A    between atoms: C_2  and  C_4
REMARK    3  A    between atoms: N_6  and  C_7
REMARK    4  A    between atoms: C_13  and  C_14
REMARK                            x       y       z     vdW  Elec       q    Type
REMARK                         _______ _______ _______ _____ _____    ______ ____
ROOT
ATOM      1  C   UNL     1       6.997   5.158  14.513  0.00  0.00    +0.000 A 
ATOM      2  C   UNL     1       7.173   5.938  15.593  0.00  0.00    +0.000 A 
ATOM      3  N   UNL     1       6.398   5.929  16.738  0.00  0.00    +0.000 N 
ATOM      4  C   UNL     1       5.380   4.937  16.889  0.00  0.00    +0.000 A 
ATOM      5  C   UNL     1       4.609   4.772  18.058  0.00  0.00    +0.000 A 
ATOM      6  F   UNL     1       4.764   5.644  19.068  0.00  0.00    +0.000 F 
ATOM      7  C   UNL     1       3.680   3.723  18.230  0.00  0.00    +0.000 A 
ATOM      8  C   UNL     1       3.504   2.859  17.140  0.00  0.00    +0.000 A 
ATOM      9  F   UNL     1       2.665   1.814  17.222  0.00  0.00    +0.000 F 
ATOM     10  C   UNL     1       4.203   3.014  15.950  0.00  0.00    +0.000 A 
ATOM     11  C   UNL     1       5.136   4.043  15.833  0.00  0.00    +0.000 A 
ATOM     12  C   UNL     1       5.903   4.171  14.573  0.00  0.00    +0.000 A 
ATOM     13  O   UNL     1       5.655   3.462  13.600  0.00  0.00    +0.000 OA
ENDROOT
BRANCH   7  14
ATOM     14  C   UNL     1       2.980   3.507  19.516  0.00  0.00    +0.000 A 
ATOM     15  C   UNL     1       1.683   3.983  19.764  0.00  0.00    +0.000 A 
ATOM     16  C   UNL     1       1.026   3.678  20.956  0.00  0.00    +0.000 A 
ATOM     17  C   UNL     1       1.691   2.915  21.898  0.00  0.00    +0.000 A 
ATOM     18  N   UNL     1       2.946   2.458  21.729  0.00  0.00    +0.000 NA
ATOM     19  C   UNL     1       3.551   2.762  20.555  0.00  0.00    +0.000 A 
ENDBRANCH   7  14
BRANCH   3  20
ATOM     20  C   UNL     1       6.762   6.824  17.857  0.00  0.00    +0.000 C 
ATOM     21  C   UNL     1       8.078   6.817  18.595  0.00  0.00    +0.000 C 
ATOM     22  C   UNL     1       7.779   7.917  17.628  0.00  0.00    +0.000 C 
ENDBRANCH   3  20
BRANCH   1  24
ATOM     23  O   UNL     1       8.933   5.949  13.384  0.00  0.00    +0.000 OA
ATOM     24  C   UNL     1       7.888   5.316  13.347  0.00  0.00    +0.000 C 
BRANCH  24  25
ATOM     25  O   UNL     1       7.458   4.702  12.223  0.00  0.00    +0.000 OA
ATOM     26  H   UNL     1       6.849   3.941  12.381  0.00  0.00    +0.000 HD
ENDBRANCH  24  25
ENDBRANCH   1  24
TORSDOF 4
ENDMDL
MODEL 4
REMARK VINA RESULT:      -7.5      1.903      3.512
REMARK  Name = 
REMARK  4 active torsions:
REMARK  status: ('A' for Active; 'I' for Inactive)
REMARK    1  A    between atoms: C_2  and  O_3
REMARK    2  A    between atoms: C_2  and  C_4
REMARK    3  A    between atoms: N_6  and  C_7
REMARK    4  A    between atoms: C_13  and  C_14
REMARK                            x       y       z     vdW  Elec       q    Type
REMARK                         _______ _______ _______ _____ _____    ______ ____
ROOT
ATOM      1  C   UNL     1       3.823   3.719  19.470  0.00  0.00    +0.000 A 
ATOM      2  C   UNL     1       4.376   4.596  18.614  0.00  0.00    +0.000 A 
ATOM      3  N   UNL     1       3.928   5.880  18.365  0.00  0.00    +0.000 N 
ATOM      4  C   UNL     1       2.859   6.416  19.149  0.00  0.00    +0.000 A 
ATOM      5  C   UNL     1       2.401   7.747  19.050  0.00  0.00    +0.000 A 
ATOM      6  F   UNL     1       2.928   8.547  18.110  0.00  0.00    +0.000 F 
ATOM      7  C   UNL     1       1.416   8.291  19.902  0.00  0.00    +0.000 A 
ATOM      8  C   UNL     1       0.850   7.416  20.842  0.00  0.00    +0.000 A 
ATOM      9  F   UNL     1      -0.072   7.851  21.715  0.00  0.00    +0.000 F 
ATOM     10  C   UNL     1       1.233   6.085  20.940  0.00  0.00    +0.000 A 
ATOM     11  C   UNL     1       2.234   5.596  20.102  0.00  0.00    +0.000 A 
ATOM     12  C   UNL     1       2.660   4.186  20.246  0.00  0.00    +0.000 A 
ATOM     13  O   UNL     1       2.076   3.418  21.008  0.00  0.00    +0.000 OA
ENDROOT
BRANCH   7  14
ATOM     14  C   UNL     1       1.049   9.723  19.853  0.00  0.00    +0.000 A 
ATOM     15  C   UNL     1       0.383  10.299  18.760  0.00  0.00    +0.000 A 
ATOM     16  C   UNL     1      -0.024  11.632  18.793  0.00  0.00    +0.000 A 
ATOM     17  C   UNL     1       0.262  12.380  19.921  0.00  0.00    +0.000 A 
ATOM     18  N   UNL     1       0.925  11.892  20.985  0.00  0.00    +0.000 NA
ATOM     19  C   UNL     1       1.296  10.589  20.924  0.00  0.00    +0.000 A 
ENDBRANCH   7  14
BRANCH   3  20
ATOM     20  C   UNL     1       4.685   6.734  17.424  0.00  0.00    +0.000 C 
ATOM     21  C   UNL     1       6.123   6.530  17.017  0.00  0.00    +0.000 C 
ATOM     22  C   UNL     1       5.029   6.198  16.054  0.00  0.00    +0.000 C 
ENDBRANCH   3  20
BRANCH   1  24
ATOM     23  O   UNL     1       5.101   2.020  20.533  0.00  0.00    +0.000 OA
ATOM     24  C   UNL     1       4.397   2.364  19.595  0.00  0.00    +0.000 C 
BRANCH  24  25
ATOM     25  O   UNL     1       4.081   1.525  18.585  0.00  0.00    +0.000 OA
ATOM     26  H   UNL     1       4.170   1.919  17.684  0.00  0.00    +0.000 HD
ENDBRANCH  24  25
ENDBRANCH   1  24
TORSDOF 4
ENDMDL
MODEL 5
REMARK VINA RESULT:      -7.1      2.257      3.856
REMARK  Name = 
REMARK  4 active torsions:
REMARK  status: ('A' for Active; 'I' for Inactive)
REMARK    1  A    between atoms: C_2  and  O_3
REMARK    2  A    between atoms: C_2  and  C_4
REMARK    3  A    between atoms: N_6  and  C_7
REMARK    4  A    between atoms: C_13  and  C_14
REMARK                            x       y       z     vdW  Elec       q    Type
REMARK                         _______ _______ _______ _____ _____    ______ ____
ROOT
ATOM      1  C   UNL     1       4.290   2.907  19.853  0.00  0.00    +0.000 A 
ATOM      2  C   UNL     1       4.908   3.687  18.949  0.00  0.00    +0.000 A 
ATOM      3  N   UNL     1       4.497   4.943  18.543  0.00  0.00    +0.000 N 
ATOM      4  C   UNL     1       3.390   5.567  19.199  0.00  0.00    +0.000 A 
ATOM      5  C   UNL     1       2.960   6.884  18.938  0.00  0.00    +0.000 A 
ATOM      6  F   UNL     1       3.556   7.580  17.955  0.00  0.00    +0.000 F 
ATOM      7  C   UNL     1       1.933   7.522  19.667  0.00  0.00    +0.000 A 
ATOM      8  C   UNL     1       1.297   6.754  20.653  0.00  0.00    +0.000 A 
ATOM      9  F   UNL     1       0.330   7.284  21.418  0.00  0.00    +0.000 F 
ATOM     10  C   UNL     1       1.652   5.436  20.910  0.00  0.00    +0.000 A 
ATOM     11  C   UNL     1       2.695   4.854  20.190  0.00  0.00    +0.000 A 
ATOM     12  C   UNL     1       3.089   3.462  20.503  0.00  0.00    +0.000 A 
ATOM     13  O   UNL     1       2.447   2.782  21.301  0.00  0.00    +0.000 OA
ENDROOT
BRANCH   7  14
ATOM     14  C   UNL     1       1.592   8.945  19.449  0.00  0.00    +0.000 A 
ATOM     15  C   UNL     1       1.673   9.561  18.191  0.00  0.00    +0.000 A 
ATOM     16  C   UNL     1       1.256  10.880  18.013  0.00  0.00    +0.000 A 
ATOM     17  C   UNL     1       0.780  11.574  19.111  0.00  0.00    +0.000 A 
ATOM     18  N   UNL     1       0.709  11.046  20.347  0.00  0.00    +0.000 NA
ATOM     19  C   UNL     1       1.112   9.759  20.482  0.00  0.00    +0.000 A 
ENDBRANCH   7  14
BRANCH   3  20
ATOM     20  C   UNL     1       5.324   5.689  17.569  0.00  0.00    +0.000 C 
ATOM     21  C   UNL     1       6.437   5.106  16.735  0.00  0.00    +0.000 C 
ATOM     22  C   UNL     1       5.130   5.439  16.092  0.00  0.00    +0.000 C 
ENDBRANCH   3  20
BRANCH   1  24
ATOM     23  O   UNL     1       5.384   1.288  21.205  0.00  0.00    +0.000 OA
ATOM     24  C   UNL     1       4.833   1.567  20.151  0.00  0.00    +0.000 C 
BRANCH  24  25
ATOM     25  O   UNL     1       4.674   0.664  19.159  0.00  0.00    +0.000 OA
ATOM     26  H   UNL     1       4.796   1.029  18.250  0.00  0.00    +0.000 HD
ENDBRANCH  24  25
ENDBRANCH   1  24
TORSDOF 4
ENDMDL
MODEL 6
REMARK VINA RESULT:      -7.1      3.154      6.619
REMARK  Name = 
REMARK  4 active torsions:
REMARK  status: ('A' for Active; 'I' for Inactive)
REMARK    1  A    between atoms: C_2  and  O_3
REMARK    2  A    between atoms: C_2  and  C_4
REMARK    3  A    between atoms: N_6  and  C_7
REMARK    4  A    between atoms: C_13  and  C_14
REMARK                            x       y       z     vdW  Elec       q    Type
REMARK                         _______ _______ _______ _____ _____    ______ ____
ROOT
ATOM      1  C   UNL     1       1.306  11.248  19.269  0.00  0.00    +0.000 A 
ATOM      2  C   UNL     1       0.976  10.636  20.419  0.00  0.00    +0.000 A 
ATOM      3  N   UNL     1       1.106   9.286  20.689  0.00  0.00    +0.000 N 
ATOM      4  C   UNL     1       1.756   8.439  19.738  0.00  0.00    +0.000 A 
ATOM      5  C   UNL     1       2.036   7.075  19.961  0.00  0.00    +0.000 A 
ATOM      6  F   UNL     1       1.595   6.497  21.090  0.00  0.00    +0.000 F 
ATOM      7  C   UNL     1       2.770   6.278  19.056  0.00  0.00    +0.000 A 
ATOM      8  C   UNL     1       3.173   6.897  17.863  0.00  0.00    +0.000 A 
ATOM      9  F   UNL     1       3.902   6.228  16.956  0.00  0.00    +0.000 F 
ATOM     10  C   UNL     1       2.875   8.223  17.578  0.00  0.00    +0.000 A 
ATOM     11  C   UNL     1       2.177   8.985  18.514  0.00  0.00    +0.000 A 
ATOM     12  C   UNL     1       1.902  10.408  18.214  0.00  0.00    +0.000 A 
ATOM     13  O   UNL     1       2.179  10.894  17.119  0.00  0.00    +0.000 OA
ENDROOT
BRANCH   7  14
ATOM     14  C   UNL     1       3.152   4.885  19.378  0.00  0.00    +0.000 A 
ATOM     15  C   UNL     1       2.208   3.865  19.571  0.00  0.00    +0.000 A 
ATOM     16  C   UNL     1       2.615   2.548  19.783  0.00  0.00    +0.000 A 
ATOM     17  C   UNL     1       3.970   2.274  19.820  0.00  0.00    +0.000 A 
ATOM     18  N   UNL     1       4.920   3.216  19.674  0.00  0.00    +0.000 NA
ATOM     19  C   UNL     1       4.491   4.484  19.457  0.00  0.00    +0.000 A 
ENDBRANCH   7  14
BRANCH   3  20
ATOM     20  C   UNL     1       0.738   8.784  22.030  0.00  0.00    +0.000 C 
ATOM     21  C   UNL     1       0.075   9.591  23.119  0.00  0.00    +0.000 C 
ATOM     22  C   UNL     1      -0.719   8.573  22.366  0.00  0.00    +0.000 C 
ENDBRANCH   3  20
BRANCH   1  24
ATOM     23  O   UNL     1       0.085  13.264  19.574  0.00  0.00    +0.000 OA
ATOM     24  C   UNL     1       1.069  12.697  19.121  0.00  0.00    +0.000 C 
BRANCH  24  25
ATOM     25  O   UNL     1       2.031  13.357  18.440  0.00  0.00    +0.000 OA
ATOM     26  H   UNL     1       2.138  13.070  17.502  0.00  0.00    +0.000 HD
ENDBRANCH  24  25
ENDBRANCH   1  24
TORSDOF 4
ENDMDL
MODEL 7
REMARK VINA RESULT:      -7.1      2.063      3.602
REMARK  Name = 
REMARK  4 active torsions:
REMARK  status: ('A' for Active; 'I' for Inactive)
REMARK    1  A    between atoms: C_2  and  O_3
REMARK    2  A    between atoms: C_2  and  C_4
REMARK    3  A    between atoms: N_6  and  C_7
REMARK    4  A    between atoms: C_13  and  C_14
REMARK                            x       y       z     vdW  Elec       q    Type
REMARK                         _______ _______ _______ _____ _____    ______ ____
ROOT
ATOM      1  C   UNL     1       3.621   3.681  19.175  0.00  0.00    +0.000 A 
ATOM      2  C   UNL     1       4.144   4.549  18.293  0.00  0.00    +0.000 A 
ATOM      3  N   UNL     1       3.724   5.850  18.086  0.00  0.00    +0.000 N 
ATOM      4  C   UNL     1       2.728   6.411  18.945  0.00  0.00    +0.000 A 
ATOM      5  C   UNL     1       2.308   7.757  18.889  0.00  0.00    +0.000 A 
ATOM      6  F   UNL     1       2.796   8.551  17.923  0.00  0.00    +0.000 F 
ATOM      7  C   UNL     1       1.400   8.322  19.810  0.00  0.00    +0.000 A 
ATOM      8  C   UNL     1       0.869   7.456  20.778  0.00  0.00    +0.000 A 
ATOM      9  F   UNL     1       0.022   7.910  21.715  0.00  0.00    +0.000 F 
ATOM     10  C   UNL     1       1.214   6.112  20.838  0.00  0.00    +0.000 A 
ATOM     11  C   UNL     1       2.141   5.600  19.930  0.00  0.00    +0.000 A 
ATOM     12  C   UNL     1       2.528   4.175  20.032  0.00  0.00    +0.000 A 
ATOM     13  O   UNL     1       1.972   3.418  20.824  0.00  0.00    +0.000 OA
ENDROOT
BRANCH   7  14
ATOM     14  C   UNL     1       1.078   9.766  19.799  0.00  0.00    +0.000 A 
ATOM     15  C   UNL     1       1.409  10.627  20.857  0.00  0.00    +0.000 A 
ATOM     16  C   UNL     1       1.167  11.997  20.765  0.00  0.00    +0.000 A 
ATOM     17  C   UNL     1       0.574  12.486  19.615  0.00  0.00    +0.000 A 
ATOM     18  N   UNL     1       0.206  11.705  18.583  0.00  0.00    +0.000 NA
ATOM     19  C   UNL     1       0.466  10.380  18.699  0.00  0.00    +0.000 A 
ENDBRANCH   7  14
BRANCH   3  20
ATOM     20  C   UNL     1       4.444   6.689  17.104  0.00  0.00    +0.000 C 
ATOM     21  C   UNL     1       5.943   6.801  16.977  0.00  0.00    +0.000 C 
ATOM     22  C   UNL     1       5.171   6.026  15.958  0.00  0.00    +0.000 C 
ENDBRANCH   3  20
BRANCH   1  24
ATOM     23  O   UNL     1       3.689   1.371  18.618  0.00  0.00    +0.000 OA
ATOM     24  C   UNL     1       4.157   2.307  19.249  0.00  0.00    +0.000 C 
BRANCH  24  25
ATOM     25  O   UNL     1       5.216   2.161  20.075  0.00  0.00    +0.000 OA
ATOM     26  H   UNL     1       5.038   1.609  20.874  0.00  0.00    +0.000 HD
ENDBRANCH  24  25
ENDBRANCH   1  24
TORSDOF 4
ENDMDL
MODEL 8
REMARK VINA RESULT:      -7.0      1.433      1.864
REMARK  Name = 
REMARK  4 active torsions:
REMARK  status: ('A' for Active; 'I' for Inactive)
REMARK    1  A    between atoms: C_2  and  O_3
REMARK    2  A    between atoms: C_2  and  C_4
REMARK    3  A    between atoms: N_6  and  C_7
REMARK    4  A    between atoms: C_13  and  C_14
REMARK                            x       y       z     vdW  Elec       q    Type
REMARK                         _______ _______ _______ _____ _____    ______ ____
ROOT
ATOM      1  C   UNL     1       4.740   4.745  16.383  0.00  0.00    +0.000 A 
ATOM      2  C   UNL     1       4.105   4.079  17.363  0.00  0.00    +0.000 A 
ATOM      3  N   UNL     1       3.393   4.646  18.403  0.00  0.00    +0.000 N 
ATOM      4  C   UNL     1       3.180   6.060  18.419  0.00  0.00    +0.000 A 
ATOM      5  C   UNL     1       2.379   6.725  19.371  0.00  0.00    +0.000 A 
ATOM      6  F   UNL     1       1.849   6.017  20.382  0.00  0.00    +0.000 F 
ATOM      7  C   UNL     1       2.095   8.106  19.314  0.00  0.00    +0.000 A 
ATOM      8  C   UNL     1       2.703   8.827  18.275  0.00  0.00    +0.000 A 
ATOM      9  F   UNL     1       2.467  10.139  18.121  0.00  0.00    +0.000 F 
ATOM     10  C   UNL     1       3.540   8.224  17.346  0.00  0.00    +0.000 A 
ATOM     11  C   UNL     1       3.768   6.850  17.418  0.00  0.00    +0.000 A 
ATOM     12  C   UNL     1       4.630   6.215  16.396  0.00  0.00    +0.000 A 
ATOM     13  O   UNL     1       5.230   6.888  15.560  0.00  0.00    +0.000 OA
ENDROOT
BRANCH   7  14
ATOM     14  C   UNL     1       1.151   8.747  20.257  0.00  0.00    +0.000 A 
ATOM     15  C   UNL     1       1.235   8.576  21.647  0.00  0.00    +0.000 A 
ATOM     16  C   UNL     1       0.381   9.271  22.504  0.00  0.00    +0.000 A 
ATOM     17  C   UNL     1      -0.564  10.114  21.951  0.00  0.00    +0.000 A 
ATOM     18  N   UNL     1      -0.712  10.293  20.625  0.00  0.00    +0.000 NA
ATOM     19  C   UNL     1       0.141   9.613  19.821  0.00  0.00    +0.000 A 
ENDBRANCH   7  14
BRANCH   3  20
ATOM     20  C   UNL     1       2.711   3.762  19.372  0.00  0.00    +0.000 C 
ATOM     21  C   UNL     1       2.668   2.256  19.307  0.00  0.00    +0.000 C 
ATOM     22  C   UNL     1       3.539   2.927  20.320  0.00  0.00    +0.000 C 
ENDBRANCH   3  20
BRANCH   1  24
ATOM     23  O   UNL     1       5.230   4.032  14.170  0.00  0.00    +0.000 OA
ATOM     24  C   UNL     1       5.495   3.993  15.362  0.00  0.00    +0.000 C 
BRANCH  24  25
ATOM     25  O   UNL     1       6.512   3.249  15.849  0.00  0.00    +0.000 OA
ATOM     26  H   UNL     1       7.096   2.853  15.159  0.00  0.00    +0.000 HD
ENDBRANCH  24  25
ENDBRANCH   1  24
TORSDOF 4
ENDMDL
MODEL 9
REMARK VINA RESULT:      -6.8      3.409      6.577
REMARK  Name = 
REMARK  4 active torsions:
REMARK  status: ('A' for Active; 'I' for Inactive)
REMARK    1  A    between atoms: C_2  and  O_3
REMARK    2  A    between atoms: C_2  and  C_4
REMARK    3  A    between atoms: N_6  and  C_7
REMARK    4  A    between atoms: C_13  and  C_14
REMARK                            x       y       z     vdW  Elec       q    Type
REMARK                         _______ _______ _______ _____ _____    ______ ____
ROOT
ATOM      1  C   UNL     1       1.196   7.676  20.882  0.00  0.00    +0.000 A 
ATOM      2  C   UNL     1       1.518   6.389  21.100  0.00  0.00    +0.000 A 
ATOM      3  N   UNL     1       2.229   5.573  20.240  0.00  0.00    +0.000 N 
ATOM      4  C   UNL     1       2.802   6.130  19.055  0.00  0.00    +0.000 A 
ATOM      5  C   UNL     1       3.634   5.413  18.170  0.00  0.00    +0.000 A 
ATOM      6  F   UNL     1       3.841   4.104  18.389  0.00  0.00    +0.000 F 
ATOM      7  C   UNL     1       4.275   6.005  17.060  0.00  0.00    +0.000 A 
ATOM      8  C   UNL     1       4.001   7.361  16.829  0.00  0.00    +0.000 A 
ATOM      9  F   UNL     1       4.589   8.017  15.816  0.00  0.00    +0.000 F 
ATOM     10  C   UNL     1       3.147   8.094  17.643  0.00  0.00    +0.000 A 
ATOM     11  C   UNL     1       2.560   7.480  18.750  0.00  0.00    +0.000 A 
ATOM     12  C   UNL     1       1.685   8.285  19.631  0.00  0.00    +0.000 A 
ATOM     13  O   UNL     1       1.383   9.442  19.347  0.00  0.00    +0.000 OA
ENDROOT
BRANCH   7  14
ATOM     14  C   UNL     1       5.239   5.252  16.226  0.00  0.00    +0.000 A 
ATOM     15  C   UNL     1       4.840   4.422  15.167  0.00  0.00    +0.000 A 
ATOM     16  C   UNL     1       5.785   3.804  14.349  0.00  0.00    +0.000 A 
ATOM     17  C   UNL     1       7.126   4.010  14.620  0.00  0.00    +0.000 A 
ATOM     18  N   UNL     1       7.567   4.769  15.640  0.00  0.00    +0.000 NA
ATOM     19  C   UNL     1       6.622   5.365  16.408  0.00  0.00    +0.000 A 
ENDBRANCH   7  14
BRANCH   3  20
ATOM     20  C   UNL     1       2.540   4.189  20.658  0.00  0.00    +0.000 C 
ATOM     21  C   UNL     1       1.853   3.432  21.767  0.00  0.00    +0.000 C 
ATOM     22  C   UNL     1       1.558   3.085  20.344  0.00  0.00    +0.000 C 
ENDBRANCH   3  20
BRANCH   1  24
ATOM     23  O   UNL     1      -0.788   8.174  22.091  0.00  0.00    +0.000 OA
ATOM     24  C   UNL     1       0.393   8.405  21.884  0.00  0.00    +0.000 C 
BRANCH  24  25
ATOM     25  O   UNL     1       1.071   9.357  22.562  0.00  0.00    +0.000 OA
ATOM     26  H   UNL     1       0.502   9.960  23.098  0.00  0.00    +0.000 HD
ENDBRANCH  24  25
ENDBRANCH   1  24
TORSDOF 4
ENDMDL
