MODEL 1
REMARK VINA RESULT:      -8.0      0.000      0.000
REMARK  Name = 
REMARK  11 active torsions:
REMARK  status: ('A' for Active; 'I' for Inactive)
REMARK    1  A    between atoms: C_1  and  O_2
REMARK    2  A    between atoms: O_2  and  C_3
REMARK    3  A    between atoms: C_3  and  C_5
REMARK    4  A    between atoms: C_8  and  N_9
REMARK    5  A    between atoms: C_10  and  C_12
REMARK    6  A    between atoms: C_12  and  C_13
REMARK    7  A    between atoms: N_16  and  C_17
REMARK    8  A    between atoms: C_21  and  O_22
REMARK    9  A    between atoms: O_22  and  C_23
REMARK   10  A    between atoms: N_27  and  C_28
REMARK   11  A    between atoms: C_28  and  C_29
REMARK                            x       y       z     vdW  Elec       q    Type
REMARK                         _______ _______ _______ _____ _____    ______ ____
ROOT
ATOM      1  C   UNL     1       1.214   8.530  20.621  0.00  0.00    +0.000 C 
ATOM      2  C   UNL     1       1.698   7.121  20.272  0.00  0.00    +0.000 C 
ATOM      3  O   UNL     1       1.593   6.163  21.029  0.00  0.00    +0.000 OA
ATOM      4  N   UNL     1       2.271   7.156  19.016  0.00  0.00    +0.000 N 
ATOM      5  C   UNL     1       2.050   8.399  18.452  0.00  0.00    +0.000 C 
ATOM      6  O   UNL     1       2.508   8.862  17.416  0.00  0.00    +0.000 OA
ATOM      7  N   UNL     1       1.193   9.106  19.290  0.00  0.00    +0.000 N 
ENDROOT
BRANCH   4   8
ATOM      8  C   UNL     1       2.964   6.082  18.388  0.00  0.00    +0.000 A 
ATOM      9  C   UNL     1       2.284   4.970  17.873  0.00  0.00    +0.000 A 
ATOM     10  C   UNL     1       2.982   3.899  17.305  0.00  0.00    +0.000 A 
ATOM     11  C   UNL     1       4.372   3.927  17.241  0.00  0.00    +0.000 A 
ATOM     12  C   UNL     1       5.075   5.028  17.724  0.00  0.00    +0.000 A 
ATOM     13  C   UNL     1       4.367   6.100  18.277  0.00  0.00    +0.000 A 
BRANCH  12  14
ATOM     14  O   UNL     1       6.436   4.947  17.610  0.00  0.00    +0.000 OA
ATOM     15  C   UNL     1       6.956   4.605  16.329  0.00  0.00    +0.000 C 
ENDBRANCH  12  14
ENDBRANCH   4   8
BRANCH   1  16
ATOM     16  C   UNL     1      -0.098   8.569  21.392  0.00  0.00    +0.000 C 
BRANCH  16  18
ATOM     17  N   UNL     1      -1.184  10.692  21.935  0.00  0.00    +0.000 N 
ATOM     18  C   UNL     1      -0.147   9.822  22.245  0.00  0.00    +0.000 C 
ATOM     19  O   UNL     1       0.714   9.980  23.107  0.00  0.00    +0.000 OA
ATOM     20  H   UNL     1      -1.834  10.410  21.220  0.00  0.00    +0.000 HD
BRANCH  17  24
ATOM     21  C   UNL     1      -2.029  14.376  23.879  0.00  0.00    +0.000 A 
ATOM     22  C   UNL     1      -2.903  13.287  24.026  0.00  0.00    +0.000 A 
ATOM     23  C   UNL     1      -2.622  12.076  23.394  0.00  0.00    +0.000 A 
ATOM     24  C   UNL     1      -1.481  11.907  22.609  0.00  0.00    +0.000 A 
ATOM     25  C   UNL     1      -0.609  12.997  22.462  0.00  0.00    +0.000 A 
ATOM     26  C   UNL     1      -0.878  14.224  23.094  0.00  0.00    +0.000 A 
BRANCH  21  27
ATOM     27  C   UNL     1      -2.365  15.647  24.578  0.00  0.00    +0.000 C 
ATOM     28  O   UNL     1      -3.506  16.052  24.739  0.00  0.00    +0.000 OA
BRANCH  27  30
ATOM     29  C   UNL     1      -0.956  16.077  26.394  0.00  0.00    +0.000 C 
ATOM     30  O   UNL     1      -1.235  16.256  25.006  0.00  0.00    +0.000 OA
ENDBRANCH  27  30
ENDBRANCH  21  27
ENDBRANCH  17  24
ENDBRANCH  16  18
ENDBRANCH   1  16
BRANCH   7  31
ATOM     31  C   UNL     1       0.763  10.465  18.996  0.00  0.00    +0.000 C 
BRANCH  31  32
ATOM     32  C   UNL     1      -0.619  10.482  18.465  0.00  0.00    +0.000 A 
ATOM     33  C   UNL     1      -1.249   9.810  17.438  0.00  0.00    +0.000 A 
ATOM     34  C   UNL     1      -2.560  10.339  17.363  0.00  0.00    +0.000 A 
ATOM     35  C   UNL     1      -2.662  11.256  18.383  0.00  0.00    +0.000 A 
ATOM     36  O   UNL     1      -1.494  11.336  19.069  0.00  0.00    +0.000 OA
ENDBRANCH  31  32
ENDBRANCH   7  31
TORSDOF 9
ENDMDL
MODEL 2
REMARK VINA RESULT:      -7.8      1.050      1.485
REMARK  Name = 
REMARK  11 active torsions:
REMARK  status: ('A' for Active; 'I' for Inactive)
REMARK    1  A    between atoms: C_1  and  O_2
REMARK    2  A    between atoms: O_2  and  C_3
REMARK    3  A    between atoms: C_3  and  C_5
REMARK    4  A    between atoms: C_8  and  N_9
REMARK    5  A    between atoms: C_10  and  C_12
REMARK    6  A    between atoms: C_12  and  C_13
REMARK    7  A    between atoms: N_16  and  C_17
REMARK    8  A    between atoms: C_21  and  O_22
REMARK    9  A    between atoms: O_22  and  C_23
REMARK   10  A    between atoms: N_27  and  C_28
REMARK   11  A    between atoms: C_28  and  C_29
REMARK                            x       y       z     vdW  Elec       q    Type
REMARK                         _______ _______ _______ _____ _____    ______ ____
ROOT
ATOM      1  C   UNL     1       1.096   8.940  20.503  0.00  0.00    +0.000 C 
ATOM      2  C   UNL     1       1.663   7.562  20.155  0.00  0.00    +0.000 C 
ATOM      3  O   UNL     1       1.652   6.611  20.929  0.00  0.00    +0.000 OA
ATOM      4  N   UNL     1       2.186   7.616  18.878  0.00  0.00    +0.000 N 
ATOM      5  C   UNL     1       1.859   8.831  18.306  0.00  0.00    +0.000 C 
ATOM      6  O   UNL     1       2.246   9.308  17.248  0.00  0.00    +0.000 OA
ATOM      7  N   UNL     1       0.986   9.492  19.166  0.00  0.00    +0.000 N 
ENDROOT
BRANCH   4   8
ATOM      8  C   UNL     1       2.928   6.582  18.239  0.00  0.00    +0.000 A 
ATOM      9  C   UNL     1       4.187   6.825  17.673  0.00  0.00    +0.000 A 
ATOM     10  C   UNL     1       4.882   5.813  17.003  0.00  0.00    +0.000 A 
ATOM     11  C   UNL     1       4.328   4.540  16.893  0.00  0.00    +0.000 A 
ATOM     12  C   UNL     1       3.089   4.263  17.465  0.00  0.00    +0.000 A 
ATOM     13  C   UNL     1       2.409   5.277  18.144  0.00  0.00    +0.000 A 
BRANCH  12  14
ATOM     14  O   UNL     1       2.643   2.980  17.294  0.00  0.00    +0.000 OA
ATOM     15  C   UNL     1       3.269   1.970  18.079  0.00  0.00    +0.000 C 
ENDBRANCH  12  14
ENDBRANCH   4   8
BRANCH   1  16
ATOM     16  C   UNL     1      -0.187   8.901  21.322  0.00  0.00    +0.000 C 
BRANCH  16  18
ATOM     17  N   UNL     1      -1.045  11.139  21.809  0.00  0.00    +0.000 N 
ATOM     18  C   UNL     1      -0.233  10.101  22.248  0.00  0.00    +0.000 C 
ATOM     19  O   UNL     1       0.441  10.077  23.275  0.00  0.00    +0.000 OA
ATOM     20  H   UNL     1      -1.563  11.000  20.958  0.00  0.00    +0.000 HD
BRANCH  17  24
ATOM     21  C   UNL     1      -1.762  14.811  23.825  0.00  0.00    +0.000 A 
ATOM     22  C   UNL     1      -2.642  13.731  23.996  0.00  0.00    +0.000 A 
ATOM     23  C   UNL     1      -2.403  12.524  23.340  0.00  0.00    +0.000 A 
ATOM     24  C   UNL     1      -1.298  12.350  22.508  0.00  0.00    +0.000 A 
ATOM     25  C   UNL     1      -0.419  13.431  22.336  0.00  0.00    +0.000 A 
ATOM     26  C   UNL     1      -0.646  14.654  22.991  0.00  0.00    +0.000 A 
BRANCH  21  27
ATOM     27  C   UNL     1      -2.053  16.079  24.550  0.00  0.00    +0.000 C 
ATOM     28  O   UNL     1      -2.260  17.147  23.995  0.00  0.00    +0.000 OA
BRANCH  27  30
ATOM     29  C   UNL     1      -0.883  16.275  26.566  0.00  0.00    +0.000 C 
ATOM     30  O   UNL     1      -2.066  15.860  25.886  0.00  0.00    +0.000 OA
ENDBRANCH  27  30
ENDBRANCH  21  27
ENDBRANCH  17  24
ENDBRANCH  16  18
ENDBRANCH   1  16
BRANCH   7  31
ATOM     31  C   UNL     1       0.453  10.813  18.870  0.00  0.00    +0.000 C 
BRANCH  31  32
ATOM     32  C   UNL     1      -0.879  10.717  18.232  0.00  0.00    +0.000 A 
ATOM     33  C   UNL     1      -1.489   9.762  17.445  0.00  0.00    +0.000 A 
ATOM     34  C   UNL     1      -2.739  10.302  17.061  0.00  0.00    +0.000 A 
ATOM     35  C   UNL     1      -2.837  11.524  17.684  0.00  0.00    +0.000 A 
ATOM     36  O   UNL     1      -1.720  11.777  18.412  0.00  0.00    +0.000 OA
ENDBRANCH  31  32
ENDBRANCH   7  31
TORSDOF 9
ENDMDL
MODEL 3
REMARK VINA RESULT:      -7.7      0.650      1.129
REMARK  Name = 
REMARK  11 active torsions:
REMARK  status: ('A' for Active; 'I' for Inactive)
REMARK    1  A    between atoms: C_1  and  O_2
REMARK    2  A    between atoms: O_2  and  C_3
REMARK    3  A    between atoms: C_3  and  C_5
REMARK    4  A    between atoms: C_8  and  N_9
REMARK    5  A    between atoms: C_10  and  C_12
REMARK    6  A    between atoms: C_12  and  C_13
REMARK    7  A    between atoms: N_16  and  C_17
REMARK    8  A    between atoms: C_21  and  O_22
REMARK    9  A    between atoms: O_22  and  C_23
REMARK   10  A    between atoms: N_27  and  C_28
REMARK   11  A    between atoms: C_28  and  C_29
REMARK                            x       y       z     vdW  Elec       q    Type
REMARK                         _______ _______ _______ _____ _____    ______ ____
ROOT
ATOM      1  C   UNL     1       1.138   8.740  20.606  0.00  0.00    +0.000 C 
ATOM      2  C   UNL     1       1.652   7.362  20.183  0.00  0.00    +0.000 C 
ATOM      3  O   UNL     1       1.557   6.360  20.885  0.00  0.00    +0.000 OA
ATOM      4  N   UNL     1       2.236   7.478  18.938  0.00  0.00    +0.000 N 
ATOM      5  C   UNL     1       1.998   8.746  18.443  0.00  0.00    +0.000 C 
ATOM      6  O   UNL     1       2.457   9.275  17.440  0.00  0.00    +0.000 OA
ATOM      7  N   UNL     1       1.120   9.390  19.310  0.00  0.00    +0.000 N 
ENDROOT
BRANCH   4   8
ATOM      8  C   UNL     1       2.955   6.454  18.258  0.00  0.00    +0.000 A 
ATOM      9  C   UNL     1       2.372   5.211  17.974  0.00  0.00    +0.000 A 
ATOM     10  C   UNL     1       3.106   4.197  17.351  0.00  0.00    +0.000 A 
ATOM     11  C   UNL     1       4.436   4.413  17.000  0.00  0.00    +0.000 A 
ATOM     12  C   UNL     1       5.036   5.645  17.249  0.00  0.00    +0.000 A 
ATOM     13  C   UNL     1       4.289   6.657  17.859  0.00  0.00    +0.000 A 
BRANCH  12  14
ATOM     14  O   UNL     1       6.346   5.744  16.863  0.00  0.00    +0.000 OA
ATOM     15  C   UNL     1       6.824   4.761  15.948  0.00  0.00    +0.000 C 
ENDBRANCH  12  14
ENDBRANCH   4   8
BRANCH   1  16
ATOM     16  C   UNL     1      -0.182   8.711  21.364  0.00  0.00    +0.000 C 
BRANCH  16  18
ATOM     17  N   UNL     1      -1.254  10.837  21.926  0.00  0.00    +0.000 N 
ATOM     18  C   UNL     1      -0.269   9.921  22.274  0.00  0.00    +0.000 C 
ATOM     19  O   UNL     1       0.521  10.011  23.211  0.00  0.00    +0.000 OA
ATOM     20  H   UNL     1      -1.849  10.610  21.146  0.00  0.00    +0.000 HD
BRANCH  17  24
ATOM     21  C   UNL     1      -2.262  14.339  24.113  0.00  0.00    +0.000 A 
ATOM     22  C   UNL     1      -1.049  14.273  23.411  0.00  0.00    +0.000 A 
ATOM     23  C   UNL     1      -0.721  13.127  22.687  0.00  0.00    +0.000 A 
ATOM     24  C   UNL     1      -1.575  12.025  22.635  0.00  0.00    +0.000 A 
ATOM     25  C   UNL     1      -2.787  12.091  23.339  0.00  0.00    +0.000 A 
ATOM     26  C   UNL     1      -3.132  13.240  24.072  0.00  0.00    +0.000 A 
BRANCH  21  27
ATOM     27  C   UNL     1      -2.574  15.585  24.866  0.00  0.00    +0.000 C 
ATOM     28  O   UNL     1      -3.290  16.476  24.438  0.00  0.00    +0.000 OA
BRANCH  27  30
ATOM     29  C   UNL     1      -1.037  16.625  26.290  0.00  0.00    +0.000 C 
ATOM     30  O   UNL     1      -1.965  15.563  26.075  0.00  0.00    +0.000 OA
ENDBRANCH  27  30
ENDBRANCH  21  27
ENDBRANCH  17  24
ENDBRANCH  16  18
ENDBRANCH   1  16
BRANCH   7  31
ATOM     31  C   UNL     1       0.667  10.756  19.089  0.00  0.00    +0.000 C 
BRANCH  31  32
ATOM     32  C   UNL     1      -0.637  10.776  18.390  0.00  0.00    +0.000 A 
ATOM     33  C   UNL     1      -1.709  11.644  18.405  0.00  0.00    +0.000 A 
ATOM     34  C   UNL     1      -2.707  11.057  17.591  0.00  0.00    +0.000 A 
ATOM     35  C   UNL     1      -2.160   9.901  17.087  0.00  0.00    +0.000 A 
ATOM     36  O   UNL     1      -0.896   9.731  17.552  0.00  0.00    +0.000 OA
ENDBRANCH  31  32
ENDBRANCH   7  31
TORSDOF 9
ENDMDL
MODEL 4
REMARK VINA RESULT:      -7.6      0.926      1.304
REMARK  Name = 
REMARK  11 active torsions:
REMARK  status: ('A' for Active; 'I' for Inactive)
REMARK    1  A    between atoms: C_1  and  O_2
REMARK    2  A    between atoms: O_2  and  C_3
REMARK    3  A    between atoms: C_3  and  C_5
REMARK    4  A    between atoms: C_8  and  N_9
REMARK    5  A    between atoms: C_10  and  C_12
REMARK    6  A    between atoms: C_12  and  C_13
REMARK    7  A    between atoms: N_16  and  C_17
REMARK    8  A    between atoms: C_21  and  O_22
REMARK    9  A    between atoms: O_22  and  C_23
REMARK   10  A    between atoms: N_27  and  C_28
REMARK   11  A    between atoms: C_28  and  C_29
REMARK                            x       y       z     vdW  Elec       q    Type
REMARK                         _______ _______ _______ _____ _____    ______ ____
ROOT
ATOM      1  C   UNL     1       1.004   8.999  20.592  0.00  0.00    +0.000 C 
ATOM      2  C   UNL     1       1.602   7.659  20.158  0.00  0.00    +0.000 C 
ATOM      3  O   UNL     1       1.596   6.656  20.864  0.00  0.00    +0.000 OA
ATOM      4  N   UNL     1       2.143   7.811  18.897  0.00  0.00    +0.000 N 
ATOM      5  C   UNL     1       1.803   9.058  18.406  0.00  0.00    +0.000 C 
ATOM      6  O   UNL     1       2.197   9.614  17.390  0.00  0.00    +0.000 OA
ATOM      7  N   UNL     1       0.905   9.641  19.295  0.00  0.00    +0.000 N 
ENDROOT
BRANCH   4   8
ATOM      8  C   UNL     1       2.914   6.837  18.200  0.00  0.00    +0.000 A 
ATOM      9  C   UNL     1       2.481   5.510  18.075  0.00  0.00    +0.000 A 
ATOM     10  C   UNL     1       3.273   4.553  17.432  0.00  0.00    +0.000 A 
ATOM     11  C   UNL     1       4.510   4.911  16.902  0.00  0.00    +0.000 A 
ATOM     12  C   UNL     1       4.956   6.227  16.990  0.00  0.00    +0.000 A 
ATOM     13  C   UNL     1       4.151   7.180  17.622  0.00  0.00    +0.000 A 
BRANCH  12  14
ATOM     14  O   UNL     1       6.184   6.465  16.435  0.00  0.00    +0.000 OA
ATOM     15  C   UNL     1       6.849   5.353  15.842  0.00  0.00    +0.000 C 
ENDBRANCH  12  14
ENDBRANCH   4   8
BRANCH   1  16
ATOM     16  C   UNL     1      -0.290   8.881  21.385  0.00  0.00    +0.000 C 
BRANCH  16  18
ATOM     17  N   UNL     1      -1.393  10.962  22.046  0.00  0.00    +0.000 N 
ATOM     18  C   UNL     1      -0.398  10.042  22.354  0.00  0.00    +0.000 C 
ATOM     19  O   UNL     1       0.386  10.095  23.298  0.00  0.00    +0.000 OA
ATOM     20  H   UNL     1      -1.981  10.767  21.253  0.00  0.00    +0.000 HD
BRANCH  17  24
ATOM     21  C   UNL     1      -2.359  14.448  24.276  0.00  0.00    +0.000 A 
ATOM     22  C   UNL     1      -3.257  13.371  24.232  0.00  0.00    +0.000 A 
ATOM     23  C   UNL     1      -2.937  12.224  23.506  0.00  0.00    +0.000 A 
ATOM     24  C   UNL     1      -1.733  12.109  22.813  0.00  0.00    +0.000 A 
ATOM     25  C   UNL     1      -0.836  13.188  22.856  0.00  0.00    +0.000 A 
ATOM     26  C   UNL     1      -1.144  14.350  23.584  0.00  0.00    +0.000 A 
BRANCH  21  27
ATOM     27  C   UNL     1      -2.739  15.651  25.069  0.00  0.00    +0.000 C 
ATOM     28  O   UNL     1      -1.991  16.210  25.856  0.00  0.00    +0.000 OA
BRANCH  27  30
ATOM     29  C   UNL     1      -4.112  16.987  23.728  0.00  0.00    +0.000 C 
ATOM     30  O   UNL     1      -4.007  16.022  24.773  0.00  0.00    +0.000 OA
ENDBRANCH  27  30
ENDBRANCH  21  27
ENDBRANCH  17  24
ENDBRANCH  16  18
ENDBRANCH   1  16
BRANCH   7  31
ATOM     31  C   UNL     1       0.352  10.971  19.083  0.00  0.00    +0.000 C 
BRANCH  31  32
ATOM     32  C   UNL     1      -0.924  10.902  18.336  0.00  0.00    +0.000 A 
ATOM     33  C   UNL     1      -1.953  11.798  18.129  0.00  0.00    +0.000 A 
ATOM     34  C   UNL     1      -2.948  11.099  17.404  0.00  0.00    +0.000 A 
ATOM     35  C   UNL     1      -2.439   9.844  17.166  0.00  0.00    +0.000 A 
ATOM     36  O   UNL     1      -1.202   9.721  17.712  0.00  0.00    +0.000 OA
ENDBRANCH  31  32
ENDBRANCH   7  31
TORSDOF 9
ENDMDL
MODEL 5
REMARK VINA RESULT:      -7.5      1.278      2.045
REMARK  Name = 
REMARK  11 active torsions:
REMARK  status: ('A' for Active; 'I' for Inactive)
REMARK    1  A    between atoms: C_1  and  O_2
REMARK    2  A    between atoms: O_2  and  C_3
REMARK    3  A    between atoms: C_3  and  C_5
REMARK    4  A    between atoms: C_8  and  N_9
REMARK    5  A    between atoms: C_10  and  C_12
REMARK    6  A    between atoms: C_12  and  C_13
REMARK    7  A    between atoms: N_16  and  C_17
REMARK    8  A    between atoms: C_21  and  O_22
REMARK    9  A    between atoms: O_22  and  C_23
REMARK   10  A    between atoms: N_27  and  C_28
REMARK   11  A    between atoms: C_28  and  C_29
REMARK                            x       y       z     vdW  Elec       q    Type
REMARK                         _______ _______ _______ _____ _____    ______ ____
ROOT
ATOM      1  C   UNL     1       1.020   8.921  20.549  0.00  0.00    +0.000 C 
ATOM      2  C   UNL     1       1.674   7.576  20.225  0.00  0.00    +0.000 C 
ATOM      3  O   UNL     1       1.709   6.634  21.011  0.00  0.00    +0.000 OA
ATOM      4  N   UNL     1       2.211   7.646  18.956  0.00  0.00    +0.000 N 
ATOM      5  C   UNL     1       1.821   8.833  18.364  0.00  0.00    +0.000 C 
ATOM      6  O   UNL     1       2.194   9.321  17.306  0.00  0.00    +0.000 OA
ATOM      7  N   UNL     1       0.897   9.450  19.204  0.00  0.00    +0.000 N 
ENDROOT
BRANCH   4   8
ATOM      8  C   UNL     1       3.024   6.652  18.340  0.00  0.00    +0.000 A 
ATOM      9  C   UNL     1       2.506   5.401  17.977  0.00  0.00    +0.000 A 
ATOM     10  C   UNL     1       3.328   4.416  17.420  0.00  0.00    +0.000 A 
ATOM     11  C   UNL     1       4.681   4.670  17.215  0.00  0.00    +0.000 A 
ATOM     12  C   UNL     1       5.220   5.911  17.543  0.00  0.00    +0.000 A 
ATOM     13  C   UNL     1       4.387   6.894  18.086  0.00  0.00    +0.000 A 
BRANCH  12  14
ATOM     14  O   UNL     1       6.560   6.049  17.299  0.00  0.00    +0.000 OA
ATOM     15  C   UNL     1       7.389   4.934  17.613  0.00  0.00    +0.000 C 
ENDBRANCH  12  14
ENDBRANCH   4   8
BRANCH   1  16
ATOM     16  C   UNL     1      -0.270   8.814  21.350  0.00  0.00    +0.000 C 
BRANCH  16  18
ATOM     17  N   UNL     1      -1.288  10.957  21.945  0.00  0.00    +0.000 N 
ATOM     18  C   UNL     1      -0.367   9.983  22.311  0.00  0.00    +0.000 C 
ATOM     19  O   UNL     1       0.362   9.994  23.300  0.00  0.00    +0.000 OA
ATOM     20  H   UNL     1      -1.839  10.793  21.119  0.00  0.00    +0.000 HD
BRANCH  17  24
ATOM     21  C   UNL     1      -2.286  14.394  24.238  0.00  0.00    +0.000 A 
ATOM     22  C   UNL     1      -1.076  14.349  23.528  0.00  0.00    +0.000 A 
ATOM     23  C   UNL     1      -0.752  13.224  22.770  0.00  0.00    +0.000 A 
ATOM     24  C   UNL     1      -1.606  12.124  22.690  0.00  0.00    +0.000 A 
ATOM     25  C   UNL     1      -2.814  12.169  23.402  0.00  0.00    +0.000 A 
ATOM     26  C   UNL     1      -3.156  13.296  24.170  0.00  0.00    +0.000 A 
BRANCH  21  27
ATOM     27  C   UNL     1      -2.594  15.617  25.028  0.00  0.00    +0.000 C 
ATOM     28  O   UNL     1      -3.518  16.375  24.774  0.00  0.00    +0.000 OA
BRANCH  27  30
ATOM     29  C   UNL     1      -1.271  17.074  26.292  0.00  0.00    +0.000 C 
ATOM     30  O   UNL     1      -1.720  15.741  26.054  0.00  0.00    +0.000 OA
ENDBRANCH  27  30
ENDBRANCH  21  27
ENDBRANCH  17  24
ENDBRANCH  16  18
ENDBRANCH   1  16
BRANCH   7  31
ATOM     31  C   UNL     1       0.289  10.733  18.885  0.00  0.00    +0.000 C 
BRANCH  31  32
ATOM     32  C   UNL     1       1.219  11.848  19.173  0.00  0.00    +0.000 A 
ATOM     33  C   UNL     1       2.064  12.608  18.390  0.00  0.00    +0.000 A 
ATOM     34  C   UNL     1       2.769  13.457  19.276  0.00  0.00    +0.000 A 
ATOM     35  C   UNL     1       2.270  13.202  20.532  0.00  0.00    +0.000 A 
ATOM     36  O   UNL     1       1.315  12.240  20.477  0.00  0.00    +0.000 OA
ENDBRANCH  31  32
ENDBRANCH   7  31
TORSDOF 9
ENDMDL
MODEL 6
REMARK VINA RESULT:      -7.4      1.990      9.975
REMARK  Name = 
REMARK  11 active torsions:
REMARK  status: ('A' for Active; 'I' for Inactive)
REMARK    1  A    between atoms: C_1  and  O_2
REMARK    2  A    between atoms: O_2  and  C_3
REMARK    3  A    between atoms: C_3  and  C_5
REMARK    4  A    between atoms: C_8  and  N_9
REMARK    5  A    between atoms: C_10  and  C_12
REMARK    6  A    between atoms: C_12  and  C_13
REMARK    7  A    between atoms: N_16  and  C_17
REMARK    8  A    between atoms: C_21  and  O_22
REMARK    9  A    between atoms: O_22  and  C_23
REMARK   10  A    between atoms: N_27  and  C_28
REMARK   11  A    between atoms: C_28  and  C_29
REMARK                            x       y       z     vdW  Elec       q    Type
REMARK                         _______ _______ _______ _____ _____    ______ ____
ROOT
ATOM      1  C   UNL     1      -0.223  10.802  21.265  0.00  0.00    +0.000 C 
ATOM      2  C   UNL     1      -0.664  11.409  22.599  0.00  0.00    +0.000 C 
ATOM      3  O   UNL     1      -0.546  10.834  23.676  0.00  0.00    +0.000 OA
ATOM      4  N   UNL     1      -1.217  12.649  22.352  0.00  0.00    +0.000 N 
ATOM      5  C   UNL     1      -1.020  12.977  21.024  0.00  0.00    +0.000 C 
ATOM      6  O   UNL     1      -1.473  13.922  20.392  0.00  0.00    +0.000 OA
ATOM      7  N   UNL     1      -0.196  12.007  20.458  0.00  0.00    +0.000 N 
ENDROOT
BRANCH   4   8
ATOM      8  C   UNL     1      -1.871  13.475  23.311  0.00  0.00    +0.000 A 
ATOM      9  C   UNL     1      -3.225  13.302  23.627  0.00  0.00    +0.000 A 
ATOM     10  C   UNL     1      -3.868  14.152  24.532  0.00  0.00    +0.000 A 
ATOM     11  C   UNL     1      -3.162  15.189  25.138  0.00  0.00    +0.000 A 
ATOM     12  C   UNL     1      -1.810  15.372  24.861  0.00  0.00    +0.000 A 
ATOM     13  C   UNL     1      -1.173  14.507  23.966  0.00  0.00    +0.000 A 
BRANCH  12  14
ATOM     14  O   UNL     1      -1.218  16.420  25.512  0.00  0.00    +0.000 OA
ATOM     15  C   UNL     1      -0.502  16.116  26.706  0.00  0.00    +0.000 C 
ENDBRANCH  12  14
ENDBRANCH   4   8
BRANCH   1  16
ATOM     16  C   UNL     1       1.074  10.009  21.335  0.00  0.00    +0.000 C 
BRANCH  16  18
ATOM     17  N   UNL     1       1.857   7.944  20.284  0.00  0.00    +0.000 N 
ATOM     18  C   UNL     1       0.808   8.568  20.947  0.00  0.00    +0.000 C 
ATOM     19  O   UNL     1      -0.284   8.077  21.222  0.00  0.00    +0.000 OA
ATOM     20  H   UNL     1       2.708   8.467  20.158  0.00  0.00    +0.000 HD
BRANCH  17  24
ATOM     21  C   UNL     1       2.006   3.916  18.937  0.00  0.00    +0.000 A 
ATOM     22  C   UNL     1       1.688   4.199  20.275  0.00  0.00    +0.000 A 
ATOM     23  C   UNL     1       1.632   5.521  20.715  0.00  0.00    +0.000 A 
ATOM     24  C   UNL     1       1.884   6.590  19.855  0.00  0.00    +0.000 A 
ATOM     25  C   UNL     1       2.204   6.306  18.519  0.00  0.00    +0.000 A 
ATOM     26  C   UNL     1       2.262   4.978  18.060  0.00  0.00    +0.000 A 
BRANCH  21  27
ATOM     27  C   UNL     1       2.048   2.490  18.509  0.00  0.00    +0.000 C 
ATOM     28  O   UNL     1       1.132   1.701  18.685  0.00  0.00    +0.000 OA
BRANCH  27  30
ATOM     29  C   UNL     1       3.980   1.172  18.502  0.00  0.00    +0.000 C 
ATOM     30  O   UNL     1       3.225   2.222  17.898  0.00  0.00    +0.000 OA
ENDBRANCH  27  30
ENDBRANCH  21  27
ENDBRANCH  17  24
ENDBRANCH  16  18
ENDBRANCH   1  16
BRANCH   7  31
ATOM     31  C   UNL     1       0.203  12.043  19.059  0.00  0.00    +0.000 C 
BRANCH  31  32
ATOM     32  C   UNL     1      -0.754  11.293  18.215  0.00  0.00    +0.000 A 
ATOM     33  C   UNL     1      -0.845   9.972  17.825  0.00  0.00    +0.000 A 
ATOM     34  C   UNL     1      -1.936   9.897  16.927  0.00  0.00    +0.000 A 
ATOM     35  C   UNL     1      -2.475  11.161  16.872  0.00  0.00    +0.000 A 
ATOM     36  O   UNL     1      -1.776  12.012  17.665  0.00  0.00    +0.000 OA
ENDBRANCH  31  32
ENDBRANCH   7  31
TORSDOF 9
ENDMDL
MODEL 7
REMARK VINA RESULT:      -7.4      1.534      2.521
REMARK  Name = 
REMARK  11 active torsions:
REMARK  status: ('A' for Active; 'I' for Inactive)
REMARK    1  A    between atoms: C_1  and  O_2
REMARK    2  A    between atoms: O_2  and  C_3
REMARK    3  A    between atoms: C_3  and  C_5
REMARK    4  A    between atoms: C_8  and  N_9
REMARK    5  A    between atoms: C_10  and  C_12
REMARK    6  A    between atoms: C_12  and  C_13
REMARK    7  A    between atoms: N_16  and  C_17
REMARK    8  A    between atoms: C_21  and  O_22
REMARK    9  A    between atoms: O_22  and  C_23
REMARK   10  A    between atoms: N_27  and  C_28
REMARK   11  A    between atoms: C_28  and  C_29
REMARK                            x       y       z     vdW  Elec       q    Type
REMARK                         _______ _______ _______ _____ _____    ______ ____
ROOT
ATOM      1  C   UNL     1       0.942   9.042  20.552  0.00  0.00    +0.000 C 
ATOM      2  C   UNL     1       1.522   7.659  20.245  0.00  0.00    +0.000 C 
ATOM      3  O   UNL     1       1.510   6.728  21.043  0.00  0.00    +0.000 OA
ATOM      4  N   UNL     1       2.057   7.684  18.973  0.00  0.00    +0.000 N 
ATOM      5  C   UNL     1       1.728   8.882  18.366  0.00  0.00    +0.000 C 
ATOM      6  O   UNL     1       2.122   9.334  17.300  0.00  0.00    +0.000 OA
ATOM      7  N   UNL     1       0.842   9.558  19.201  0.00  0.00    +0.000 N 
ENDROOT
BRANCH   4   8
ATOM      8  C   UNL     1       2.812   6.639  18.368  0.00  0.00    +0.000 A 
ATOM      9  C   UNL     1       4.164   6.808  18.036  0.00  0.00    +0.000 A 
ATOM     10  C   UNL     1       4.880   5.792  17.395  0.00  0.00    +0.000 A 
ATOM     11  C   UNL     1       4.253   4.589  17.079  0.00  0.00    +0.000 A 
ATOM     12  C   UNL     1       2.918   4.384  17.416  0.00  0.00    +0.000 A 
ATOM     13  C   UNL     1       2.215   5.400  18.069  0.00  0.00    +0.000 A 
BRANCH  12  14
ATOM     14  O   UNL     1       2.407   3.166  17.057  0.00  0.00    +0.000 OA
ATOM     15  C   UNL     1       2.807   2.043  17.837  0.00  0.00    +0.000 C 
ENDBRANCH  12  14
ENDBRANCH   4   8
BRANCH   1  16
ATOM     16  C   UNL     1      -0.348   9.015  21.359  0.00  0.00    +0.000 C 
BRANCH  16  18
ATOM     17  N   UNL     1      -1.318  11.182  21.949  0.00  0.00    +0.000 N 
ATOM     18  C   UNL     1      -0.386  10.210  22.292  0.00  0.00    +0.000 C 
ATOM     19  O   UNL     1       0.393  10.241  23.241  0.00  0.00    +0.000 OA
ATOM     20  H   UNL     1      -1.913  11.002  21.157  0.00  0.00    +0.000 HD
BRANCH  17  24
ATOM     21  C   UNL     1      -2.166  14.686  24.199  0.00  0.00    +0.000 A 
ATOM     22  C   UNL     1      -1.021  14.630  23.389  0.00  0.00    +0.000 A 
ATOM     23  C   UNL     1      -0.746  13.483  22.645  0.00  0.00    +0.000 A 
ATOM     24  C   UNL     1      -1.587  12.371  22.678  0.00  0.00    +0.000 A 
ATOM     25  C   UNL     1      -2.731  12.428  23.490  0.00  0.00    +0.000 A 
ATOM     26  C   UNL     1      -3.021  13.577  24.245  0.00  0.00    +0.000 A 
BRANCH  21  27
ATOM     27  C   UNL     1      -2.422  15.934  24.971  0.00  0.00    +0.000 C 
ATOM     28  O   UNL     1      -3.539  16.368  25.209  0.00  0.00    +0.000 OA
BRANCH  27  30
ATOM     29  C   UNL     1      -0.835  16.107  26.680  0.00  0.00    +0.000 C 
ATOM     30  O   UNL     1      -1.252  16.485  25.369  0.00  0.00    +0.000 OA
ENDBRANCH  27  30
ENDBRANCH  21  27
ENDBRANCH  17  24
ENDBRANCH  16  18
ENDBRANCH   1  16
BRANCH   7  31
ATOM     31  C   UNL     1       0.303  10.868  18.865  0.00  0.00    +0.000 C 
BRANCH  31  32
ATOM     32  C   UNL     1       1.274  11.939  19.181  0.00  0.00    +0.000 A 
ATOM     33  C   UNL     1       1.663  12.554  20.353  0.00  0.00    +0.000 A 
ATOM     34  C   UNL     1       2.564  13.581  19.983  0.00  0.00    +0.000 A 
ATOM     35  C   UNL     1       2.711  13.490  18.619  0.00  0.00    +0.000 A 
ATOM     36  O   UNL     1       1.946  12.483  18.125  0.00  0.00    +0.000 OA
ENDBRANCH  31  32
ENDBRANCH   7  31
TORSDOF 9
ENDMDL
MODEL 8
REMARK VINA RESULT:      -7.4      1.532      2.588
REMARK  Name = 
REMARK  11 active torsions:
REMARK  status: ('A' for Active; 'I' for Inactive)
REMARK    1  A    between atoms: C_1  and  O_2
REMARK    2  A    between atoms: O_2  and  C_3
REMARK    3  A    between atoms: C_3  and  C_5
REMARK    4  A    between atoms: C_8  and  N_9
REMARK    5  A    between atoms: C_10  and  C_12
REMARK    6  A    between atoms: C_12  and  C_13
REMARK    7  A    between atoms: N_16  and  C_17
REMARK    8  A    between atoms: C_21  and  O_22
REMARK    9  A    between atoms: O_22  and  C_23
REMARK   10  A    between atoms: N_27  and  C_28
REMARK   11  A    between atoms: C_28  and  C_29
REMARK                            x       y       z     vdW  Elec       q    Type
REMARK                         _______ _______ _______ _____ _____    ______ ____
ROOT
ATOM      1  C   UNL     1       1.076   8.980  20.482  0.00  0.00    +0.000 C 
ATOM      2  C   UNL     1       1.734   7.644  20.133  0.00  0.00    +0.000 C 
ATOM      3  O   UNL     1       1.800   6.698  20.911  0.00  0.00    +0.000 OA
ATOM      4  N   UNL     1       2.235   7.727  18.849  0.00  0.00    +0.000 N 
ATOM      5  C   UNL     1       1.817   8.913  18.276  0.00  0.00    +0.000 C 
ATOM      6  O   UNL     1       2.155   9.411  17.211  0.00  0.00    +0.000 OA
ATOM      7  N   UNL     1       0.911   9.516  19.145  0.00  0.00    +0.000 N 
ENDROOT
BRANCH   4   8
ATOM      8  C   UNL     1       3.040   6.745  18.205  0.00  0.00    +0.000 A 
ATOM      9  C   UNL     1       4.166   7.098  17.450  0.00  0.00    +0.000 A 
ATOM     10  C   UNL     1       4.918   6.127  16.780  0.00  0.00    +0.000 A 
ATOM     11  C   UNL     1       4.553   4.786  16.858  0.00  0.00    +0.000 A 
ATOM     12  C   UNL     1       3.453   4.401  17.619  0.00  0.00    +0.000 A 
ATOM     13  C   UNL     1       2.717   5.378  18.297  0.00  0.00    +0.000 A 
BRANCH  12  14
ATOM     14  O   UNL     1       3.188   3.058  17.624  0.00  0.00    +0.000 OA
ATOM     15  C   UNL     1       1.895   2.658  18.069  0.00  0.00    +0.000 C 
ENDBRANCH  12  14
ENDBRANCH   4   8
BRANCH   1  16
ATOM     16  C   UNL     1      -0.190   8.856  21.319  0.00  0.00    +0.000 C 
BRANCH  16  18
ATOM     17  N   UNL     1      -1.213  11.002  21.892  0.00  0.00    +0.000 N 
ATOM     18  C   UNL     1      -0.288  10.035  22.266  0.00  0.00    +0.000 C 
ATOM     19  O   UNL     1       0.443  10.060  23.253  0.00  0.00    +0.000 OA
ATOM     20  H   UNL     1      -1.766  10.828  21.069  0.00  0.00    +0.000 HD
BRANCH  17  24
ATOM     21  C   UNL     1      -2.214  14.462  24.149  0.00  0.00    +0.000 A 
ATOM     22  C   UNL     1      -1.015  14.419  23.422  0.00  0.00    +0.000 A 
ATOM     23  C   UNL     1      -0.690  13.287  22.676  0.00  0.00    +0.000 A 
ATOM     24  C   UNL     1      -1.532  12.177  22.625  0.00  0.00    +0.000 A 
ATOM     25  C   UNL     1      -2.731  12.220  23.354  0.00  0.00    +0.000 A 
ATOM     26  C   UNL     1      -3.073  13.355  24.110  0.00  0.00    +0.000 A 
BRANCH  21  27
ATOM     27  C   UNL     1      -2.524  15.694  24.927  0.00  0.00    +0.000 C 
ATOM     28  O   UNL     1      -2.060  15.934  26.030  0.00  0.00    +0.000 OA
BRANCH  27  30
ATOM     29  C   UNL     1      -4.590  16.788  24.894  0.00  0.00    +0.000 C 
ATOM     30  O   UNL     1      -3.367  16.488  24.226  0.00  0.00    +0.000 OA
ENDBRANCH  27  30
ENDBRANCH  21  27
ENDBRANCH  17  24
ENDBRANCH  16  18
ENDBRANCH   1  16
BRANCH   7  31
ATOM     31  C   UNL     1       0.282  10.795  18.850  0.00  0.00    +0.000 C 
BRANCH  31  32
ATOM     32  C   UNL     1       1.213  11.917  19.109  0.00  0.00    +0.000 A 
ATOM     33  C   UNL     1       2.010  12.696  18.296  0.00  0.00    +0.000 A 
ATOM     34  C   UNL     1       2.749  13.542  19.157  0.00  0.00    +0.000 A 
ATOM     35  C   UNL     1       2.315  13.265  20.432  0.00  0.00    +0.000 A 
ATOM     36  O   UNL     1       1.369  12.292  20.411  0.00  0.00    +0.000 OA
ENDBRANCH  31  32
ENDBRANCH   7  31
TORSDOF 9
ENDMDL
MODEL 9
REMARK VINA RESULT:      -7.4      0.881      1.483
REMARK  Name = 
REMARK  11 active torsions:
REMARK  status: ('A' for Active; 'I' for Inactive)
REMARK    1  A    between atoms: C_1  and  O_2
REMARK    2  A    between atoms: O_2  and  C_3
REMARK    3  A    between atoms: C_3  and  C_5
REMARK    4  A    between atoms: C_8  and  N_9
REMARK    5  A    between atoms: C_10  and  C_12
REMARK    6  A    between atoms: C_12  and  C_13
REMARK    7  A    between atoms: N_16  and  C_17
REMARK    8  A    between atoms: C_21  and  O_22
REMARK    9  A    between atoms: O_22  and  C_23
REMARK   10  A    between atoms: N_27  and  C_28
REMARK   11  A    between atoms: C_28  and  C_29
REMARK                            x       y       z     vdW  Elec       q    Type
REMARK                         _______ _______ _______ _____ _____    ______ ____
ROOT
ATOM      1  C   UNL     1       1.201   8.790  20.421  0.00  0.00    +0.000 C 
ATOM      2  C   UNL     1       1.623   7.329  20.254  0.00  0.00    +0.000 C 
ATOM      3  O   UNL     1       1.428   6.467  21.105  0.00  0.00    +0.000 OA
ATOM      4  N   UNL     1       2.257   7.194  19.036  0.00  0.00    +0.000 N 
ATOM      5  C   UNL     1       2.134   8.375  18.328  0.00  0.00    +0.000 C 
ATOM      6  O   UNL     1       2.667   8.697  17.275  0.00  0.00    +0.000 OA
ATOM      7  N   UNL     1       1.277   9.214  19.036  0.00  0.00    +0.000 N 
ENDROOT
BRANCH   4   8
ATOM      8  C   UNL     1       2.920   6.024  18.568  0.00  0.00    +0.000 A 
ATOM      9  C   UNL     1       2.230   5.012  17.886  0.00  0.00    +0.000 A 
ATOM     10  C   UNL     1       2.883   3.845  17.477  0.00  0.00    +0.000 A 
ATOM     11  C   UNL     1       4.239   3.674  17.742  0.00  0.00    +0.000 A 
ATOM     12  C   UNL     1       4.957   4.672  18.398  0.00  0.00    +0.000 A 
ATOM     13  C   UNL     1       4.298   5.841  18.789  0.00  0.00    +0.000 A 
BRANCH  12  14
ATOM     14  O   UNL     1       6.281   4.396  18.605  0.00  0.00    +0.000 OA
ATOM     15  C   UNL     1       7.120   5.493  18.958  0.00  0.00    +0.000 C 
ENDBRANCH  12  14
ENDBRANCH   4   8
BRANCH   1  16
ATOM     16  C   UNL     1      -0.143   8.980  21.110  0.00  0.00    +0.000 C 
BRANCH  16  18
ATOM     17  N   UNL     1      -1.367  10.932  21.933  0.00  0.00    +0.000 N 
ATOM     18  C   UNL     1      -0.137  10.286  21.879  0.00  0.00    +0.000 C 
ATOM     19  O   UNL     1       0.920  10.677  22.368  0.00  0.00    +0.000 OA
ATOM     20  H   UNL     1      -2.155  10.472  21.510  0.00  0.00    +0.000 HD
BRANCH  17  24
ATOM     21  C   UNL     1      -2.243  14.497  24.073  0.00  0.00    +0.000 A 
ATOM     22  C   UNL     1      -1.038  14.381  23.364  0.00  0.00    +0.000 A 
ATOM     23  C   UNL     1      -0.753  13.214  22.656  0.00  0.00    +0.000 A 
ATOM     24  C   UNL     1      -1.643  12.141  22.627  0.00  0.00    +0.000 A 
ATOM     25  C   UNL     1      -2.847  12.257  23.338  0.00  0.00    +0.000 A 
ATOM     26  C   UNL     1      -3.149  13.428  24.055  0.00  0.00    +0.000 A 
BRANCH  21  27
ATOM     27  C   UNL     1      -2.508  15.764  24.809  0.00  0.00    +0.000 C 
ATOM     28  O   UNL     1      -1.674  16.641  24.976  0.00  0.00    +0.000 OA
BRANCH  27  30
ATOM     29  C   UNL     1      -4.487  17.004  24.943  0.00  0.00    +0.000 C 
ATOM     30  O   UNL     1      -3.792  15.794  25.239  0.00  0.00    +0.000 OA
ENDBRANCH  27  30
ENDBRANCH  21  27
ENDBRANCH  17  24
ENDBRANCH  16  18
ENDBRANCH   1  16
BRANCH   7  31
ATOM     31  C   UNL     1       0.938  10.552  18.573  0.00  0.00    +0.000 C 
BRANCH  31  32
ATOM     32  C   UNL     1      -0.488  10.633  18.184  0.00  0.00    +0.000 A 
ATOM     33  C   UNL     1      -1.501  11.526  18.469  0.00  0.00    +0.000 A 
ATOM     34  C   UNL     1      -2.674  10.997  17.878  0.00  0.00    +0.000 A 
ATOM     35  C   UNL     1      -2.291   9.850  17.225  0.00  0.00    +0.000 A 
ATOM     36  O   UNL     1      -0.961   9.630  17.389  0.00  0.00    +0.000 OA
ENDBRANCH  31  32
ENDBRANCH   7  31
TORSDOF 9
ENDMDL
