MODEL 1
REMARK VINA RESULT:      -7.0      0.000      0.000
REMARK  Name = 
REMARK  8 active torsions:
REMARK  status: ('A' for Active; 'I' for Inactive)
REMARK    1  A    between atoms: C_1  and  O_2
REMARK    2  A    between atoms: O_2  and  C_3
REMARK    3  A    between atoms: C_5  and  C_6
REMARK    4  A    between atoms: C_6  and  O_8
REMARK    5  A    between atoms: C_15  and  O_16
REMARK    6  A    between atoms: O_16  and  C_17
REMARK    7  A    between atoms: C_20  and  O_21
REMARK    8  A    between atoms: O_21  and  C_22
REMARK                            x       y       z     vdW  Elec       q    Type
REMARK                         _______ _______ _______ _____ _____    ______ ____
ROOT
ATOM      1  C   UNL     1       2.905   6.879  18.672  0.00  0.00    +0.000 A 
ATOM      2  C   UNL     1       2.975   5.591  19.221  0.00  0.00    +0.000 A 
ATOM      3  C   UNL     1       2.206   5.259  20.339  0.00  0.00    +0.000 A 
ATOM      4  C   UNL     1       1.450   6.241  20.983  0.00  0.00    +0.000 A 
ATOM      5  C   UNL     1       1.407   7.539  20.453  0.00  0.00    +0.000 A 
ATOM      6  C   UNL     1       2.102   7.858  19.294  0.00  0.00    +0.000 A 
ATOM      7  C   UNL     1       1.761   9.145  18.660  0.00  0.00    +0.000 C 
ATOM      8  O   UNL     1       1.700   9.168  17.442  0.00  0.00    +0.000 OA
ATOM      9  C   UNL     1       1.295  10.294  19.501  0.00  0.00    +0.000 A 
ATOM     10  C   UNL     1       1.418  11.641  19.106  0.00  0.00    +0.000 A 
ATOM     11  C   UNL     1       0.933  12.640  19.954  0.00  0.00    +0.000 A 
ATOM     12  C   UNL     1       0.368  12.327  21.184  0.00  0.00    +0.000 A 
ATOM     13  C   UNL     1       0.254  11.000  21.622  0.00  0.00    +0.000 A 
ATOM     14  C   UNL     1       0.694   9.973  20.756  0.00  0.00    +0.000 A 
ATOM     15  C   UNL     1       0.493   8.531  21.035  0.00  0.00    +0.000 C 
ATOM     16  O   UNL     1      -0.468   8.104  21.656  0.00  0.00    +0.000 OA
ENDROOT
BRANCH   1  18
ATOM     17  C   UNL     1       4.794   6.406  17.335  0.00  0.00    +0.000 C 
ATOM     18  O   UNL     1       3.645   7.223  17.572  0.00  0.00    +0.000 OA
ENDBRANCH   1  18
BRANCH   3  19
ATOM     19  C   UNL     1       2.170   3.875  20.860  0.00  0.00    +0.000 C 
ATOM     20  O   UNL     1       2.217   3.614  22.046  0.00  0.00    +0.000 OA
BRANCH  19  21
ATOM     21  O   UNL     1       2.025   2.941  19.891  0.00  0.00    +0.000 OA
ATOM     22  H   UNL     1       1.365   3.138  19.207  0.00  0.00    +0.000 HD
ENDBRANCH  19  21
ENDBRANCH   3  19
BRANCH  10  23
ATOM     23  O   UNL     1       2.109  12.186  18.059  0.00  0.00    +0.000 OA
ATOM     24  C   UNL     1       2.778  13.427  18.235  0.00  0.00    +0.000 C 
ENDBRANCH  10  23
BRANCH  13  25
ATOM     25  O   UNL     1      -0.284  10.996  22.876  0.00  0.00    +0.000 OA
ATOM     26  C   UNL     1      -1.602  11.410  23.169  0.00  0.00    +0.000 C 
ENDBRANCH  13  25
TORSDOF 5
ENDMDL
MODEL 2
REMARK VINA RESULT:      -6.7      1.625      6.404
REMARK  Name = 
REMARK  8 active torsions:
REMARK  status: ('A' for Active; 'I' for Inactive)
REMARK    1  A    between atoms: C_1  and  O_2
REMARK    2  A    between atoms: O_2  and  C_3
REMARK    3  A    between atoms: C_5  and  C_6
REMARK    4  A    between atoms: C_6  and  O_8
REMARK    5  A    between atoms: C_15  and  O_16
REMARK    6  A    between atoms: O_16  and  C_17
REMARK    7  A    between atoms: C_20  and  O_21
REMARK    8  A    between atoms: O_21  and  C_22
REMARK                            x       y       z     vdW  Elec       q    Type
REMARK                         _______ _______ _______ _____ _____    ______ ____
ROOT
ATOM      1  C   UNL     1       1.901   8.999  18.710  0.00  0.00    +0.000 A 
ATOM      2  C   UNL     1       1.005   9.503  19.662  0.00  0.00    +0.000 A 
ATOM      3  C   UNL     1       0.634   8.725  20.761  0.00  0.00    +0.000 A 
ATOM      4  C   UNL     1       1.064   7.400  20.856  0.00  0.00    +0.000 A 
ATOM      5  C   UNL     1       1.933   6.884  19.884  0.00  0.00    +0.000 A 
ATOM      6  C   UNL     1       2.375   7.675  18.833  0.00  0.00    +0.000 A 
ATOM      7  C   UNL     1       3.502   7.144  18.043  0.00  0.00    +0.000 C 
ATOM      8  O   UNL     1       4.360   7.938  17.691  0.00  0.00    +0.000 OA
ATOM      9  C   UNL     1       3.678   5.665  17.890  0.00  0.00    +0.000 A 
ATOM     10  C   UNL     1       4.369   5.076  16.812  0.00  0.00    +0.000 A 
ATOM     11  C   UNL     1       4.495   3.685  16.770  0.00  0.00    +0.000 A 
ATOM     12  C   UNL     1       3.925   2.882  17.750  0.00  0.00    +0.000 A 
ATOM     13  C   UNL     1       3.206   3.431  18.822  0.00  0.00    +0.000 A 
ATOM     14  C   UNL     1       3.111   4.838  18.907  0.00  0.00    +0.000 A 
ATOM     15  C   UNL     1       2.511   5.545  20.064  0.00  0.00    +0.000 C 
ATOM     16  O   UNL     1       2.557   5.108  21.203  0.00  0.00    +0.000 OA
ENDROOT
BRANCH   1  18
ATOM     17  C   UNL     1       2.305  11.160  17.846  0.00  0.00    +0.000 C 
ATOM     18  O   UNL     1       2.285   9.747  17.629  0.00  0.00    +0.000 OA
ENDBRANCH   1  18
BRANCH   3  19
ATOM     19  C   UNL     1      -0.212   9.280  21.841  0.00  0.00    +0.000 C 
ATOM     20  O   UNL     1      -0.359  10.473  22.020  0.00  0.00    +0.000 OA
BRANCH  19  21
ATOM     21  O   UNL     1      -0.844   8.329  22.569  0.00  0.00    +0.000 OA
ATOM     22  H   UNL     1      -0.912   7.453  22.155  0.00  0.00    +0.000 HD
ENDBRANCH  19  21
ENDBRANCH   3  19
BRANCH  10  23
ATOM     23  O   UNL     1       4.824   5.639  15.652  0.00  0.00    +0.000 OA
ATOM     24  C   UNL     1       5.741   4.919  14.840  0.00  0.00    +0.000 C 
ENDBRANCH  10  23
BRANCH  13  25
ATOM     25  O   UNL     1       2.719   2.414  19.590  0.00  0.00    +0.000 OA
ATOM     26  C   UNL     1       1.350   2.074  19.671  0.00  0.00    +0.000 C 
ENDBRANCH  13  25
TORSDOF 5
ENDMDL
MODEL 3
REMARK VINA RESULT:      -6.6      2.915      6.587
REMARK  Name = 
REMARK  8 active torsions:
REMARK  status: ('A' for Active; 'I' for Inactive)
REMARK    1  A    between atoms: C_1  and  O_2
REMARK    2  A    between atoms: O_2  and  C_3
REMARK    3  A    between atoms: C_5  and  C_6
REMARK    4  A    between atoms: C_6  and  O_8
REMARK    5  A    between atoms: C_15  and  O_16
REMARK    6  A    between atoms: O_16  and  C_17
REMARK    7  A    between atoms: C_20  and  O_21
REMARK    8  A    between atoms: O_21  and  C_22
REMARK                            x       y       z     vdW  Elec       q    Type
REMARK                         _______ _______ _______ _____ _____    ______ ____
ROOT
ATOM      1  C   UNL     1       5.685   6.718  16.700  0.00  0.00    +0.000 A 
ATOM      2  C   UNL     1       6.436   6.119  15.680  0.00  0.00    +0.000 A 
ATOM      3  C   UNL     1       6.034   4.898  15.133  0.00  0.00    +0.000 A 
ATOM      4  C   UNL     1       4.946   4.214  15.679  0.00  0.00    +0.000 A 
ATOM      5  C   UNL     1       4.215   4.798  16.724  0.00  0.00    +0.000 A 
ATOM      6  C   UNL     1       4.556   6.049  17.218  0.00  0.00    +0.000 A 
ATOM      7  C   UNL     1       3.564   6.699  18.096  0.00  0.00    +0.000 C 
ATOM      8  O   UNL     1       3.397   7.899  17.956  0.00  0.00    +0.000 OA
ATOM      9  C   UNL     1       2.659   5.864  18.948  0.00  0.00    +0.000 A 
ATOM     10  C   UNL     1       2.058   6.338  20.132  0.00  0.00    +0.000 A 
ATOM     11  C   UNL     1       1.211   5.487  20.847  0.00  0.00    +0.000 A 
ATOM     12  C   UNL     1       0.985   4.181  20.428  0.00  0.00    +0.000 A 
ATOM     13  C   UNL     1       1.588   3.666  19.272  0.00  0.00    +0.000 A 
ATOM     14  C   UNL     1       2.407   4.529  18.509  0.00  0.00    +0.000 A 
ATOM     15  C   UNL     1       2.979   4.155  17.193  0.00  0.00    +0.000 C 
ATOM     16  O   UNL     1       2.418   3.398  16.418  0.00  0.00    +0.000 OA
ENDROOT
BRANCH   1  18
ATOM     17  C   UNL     1       7.452   8.047  17.532  0.00  0.00    +0.000 C 
ATOM     18  O   UNL     1       6.057   7.919  17.244  0.00  0.00    +0.000 OA
ENDBRANCH   1  18
BRANCH   3  19
ATOM     19  C   UNL     1       6.740   4.308  13.975  0.00  0.00    +0.000 C 
ATOM     20  O   UNL     1       7.645   4.873  13.393  0.00  0.00    +0.000 OA
BRANCH  19  21
ATOM     21  O   UNL     1       6.314   3.060  13.666  0.00  0.00    +0.000 OA
ATOM     22  H   UNL     1       6.886   2.332  13.960  0.00  0.00    +0.000 HD
ENDBRANCH  19  21
ENDBRANCH   3  19
BRANCH  10  23
ATOM     23  O   UNL     1       2.291   7.490  20.831  0.00  0.00    +0.000 OA
ATOM     24  C   UNL     1       1.209   8.365  21.117  0.00  0.00    +0.000 C 
ENDBRANCH  10  23
BRANCH  13  25
ATOM     25  O   UNL     1       1.233   2.356  19.137  0.00  0.00    +0.000 OA
ATOM     26  C   UNL     1       2.148   1.281  19.190  0.00  0.00    +0.000 C 
ENDBRANCH  13  25
TORSDOF 5
ENDMDL
MODEL 4
REMARK VINA RESULT:      -6.6      1.591      2.119
REMARK  Name = 
REMARK  8 active torsions:
REMARK  status: ('A' for Active; 'I' for Inactive)
REMARK    1  A    between atoms: C_1  and  O_2
REMARK    2  A    between atoms: O_2  and  C_3
REMARK    3  A    between atoms: C_5  and  C_6
REMARK    4  A    between atoms: C_6  and  O_8
REMARK    5  A    between atoms: C_15  and  O_16
REMARK    6  A    between atoms: O_16  and  C_17
REMARK    7  A    between atoms: C_20  and  O_21
REMARK    8  A    between atoms: O_21  and  C_22
REMARK                            x       y       z     vdW  Elec       q    Type
REMARK                         _______ _______ _______ _____ _____    ______ ____
ROOT
ATOM      1  C   UNL     1       4.290   6.109  17.662  0.00  0.00    +0.000 A 
ATOM      2  C   UNL     1       4.698   4.815  18.011  0.00  0.00    +0.000 A 
ATOM      3  C   UNL     1       4.102   4.156  19.090  0.00  0.00    +0.000 A 
ATOM      4  C   UNL     1       3.179   4.828  19.895  0.00  0.00    +0.000 A 
ATOM      5  C   UNL     1       2.797   6.136  19.565  0.00  0.00    +0.000 A 
ATOM      6  C   UNL     1       3.320   6.769  18.446  0.00  0.00    +0.000 A 
ATOM      7  C   UNL     1       2.645   8.010  18.021  0.00  0.00    +0.000 C 
ATOM      8  O   UNL     1       2.501   8.184  16.821  0.00  0.00    +0.000 OA
ATOM      9  C   UNL     1       1.975   8.884  19.036  0.00  0.00    +0.000 A 
ATOM     10  C   UNL     1       1.751  10.262  18.842  0.00  0.00    +0.000 A 
ATOM     11  C   UNL     1       1.100  10.987  19.842  0.00  0.00    +0.000 A 
ATOM     12  C   UNL     1       0.705  10.380  21.028  0.00  0.00    +0.000 A 
ATOM     13  C   UNL     1       0.936   9.019  21.269  0.00  0.00    +0.000 A 
ATOM     14  C   UNL     1       1.550   8.258  20.247  0.00  0.00    +0.000 A 
ATOM     15  C   UNL     1       1.713   6.786  20.314  0.00  0.00    +0.000 C 
ATOM     16  O   UNL     1       0.923   6.058  20.893  0.00  0.00    +0.000 OA
ENDROOT
BRANCH   1  18
ATOM     17  C   UNL     1       5.419   5.929  15.595  0.00  0.00    +0.000 C 
ATOM     18  O   UNL     1       4.855   6.770  16.604  0.00  0.00    +0.000 OA
ENDBRANCH   1  18
BRANCH   3  19
ATOM     19  C   UNL     1       4.428   2.747  19.401  0.00  0.00    +0.000 C 
ATOM     20  O   UNL     1       4.900   2.396  20.465  0.00  0.00    +0.000 OA
BRANCH  19  21
ATOM     21  O   UNL     1       4.099   1.888  18.407  0.00  0.00    +0.000 OA
ATOM     22  H   UNL     1       4.657   1.924  17.613  0.00  0.00    +0.000 HD
ENDBRANCH  19  21
ENDBRANCH   3  19
BRANCH  10  23
ATOM     23  O   UNL     1       2.225  11.097  17.867  0.00  0.00    +0.000 OA
ATOM     24  C   UNL     1       2.467  12.462  18.176  0.00  0.00    +0.000 C 
ENDBRANCH  10  23
BRANCH  13  25
ATOM     25  O   UNL     1       0.497   8.713  22.523  0.00  0.00    +0.000 OA
ATOM     26  C   UNL     1      -0.253   9.594  23.333  0.00  0.00    +0.000 C 
ENDBRANCH  13  25
TORSDOF 5
ENDMDL
MODEL 5
REMARK VINA RESULT:      -6.5      2.468      7.181
REMARK  Name = 
REMARK  8 active torsions:
REMARK  status: ('A' for Active; 'I' for Inactive)
REMARK    1  A    between atoms: C_1  and  O_2
REMARK    2  A    between atoms: O_2  and  C_3
REMARK    3  A    between atoms: C_5  and  C_6
REMARK    4  A    between atoms: C_6  and  O_8
REMARK    5  A    between atoms: C_15  and  O_16
REMARK    6  A    between atoms: O_16  and  C_17
REMARK    7  A    between atoms: C_20  and  O_21
REMARK    8  A    between atoms: O_21  and  C_22
REMARK                            x       y       z     vdW  Elec       q    Type
REMARK                         _______ _______ _______ _____ _____    ______ ____
ROOT
ATOM      1  C   UNL     1       1.308   5.301  20.431  0.00  0.00    +0.000 A 
ATOM      2  C   UNL     1       0.920   6.407  21.200  0.00  0.00    +0.000 A 
ATOM      3  C   UNL     1       1.368   7.688  20.868  0.00  0.00    +0.000 A 
ATOM      4  C   UNL     1       2.296   7.858  19.839  0.00  0.00    +0.000 A 
ATOM      5  C   UNL     1       2.711   6.746  19.091  0.00  0.00    +0.000 A 
ATOM      6  C   UNL     1       2.208   5.481  19.358  0.00  0.00    +0.000 A 
ATOM      7  C   UNL     1       2.472   4.444  18.343  0.00  0.00    +0.000 C 
ATOM      8  O   UNL     1       1.568   3.663  18.094  0.00  0.00    +0.000 OA
ATOM      9  C   UNL     1       3.716   4.509  17.512  0.00  0.00    +0.000 A 
ATOM     10  C   UNL     1       4.300   3.380  16.904  0.00  0.00    +0.000 A 
ATOM     11  C   UNL     1       5.451   3.549  16.130  0.00  0.00    +0.000 A 
ATOM     12  C   UNL     1       6.040   4.799  15.983  0.00  0.00    +0.000 A 
ATOM     13  C   UNL     1       5.504   5.940  16.595  0.00  0.00    +0.000 A 
ATOM     14  C   UNL     1       4.311   5.796  17.341  0.00  0.00    +0.000 A 
ATOM     15  C   UNL     1       3.564   6.943  17.910  0.00  0.00    +0.000 C 
ATOM     16  O   UNL     1       3.540   8.044  17.385  0.00  0.00    +0.000 OA
ENDROOT
BRANCH   1  18
ATOM     17  C   UNL     1       1.748   3.283  21.575  0.00  0.00    +0.000 C 
ATOM     18  O   UNL     1       0.874   4.038  20.733  0.00  0.00    +0.000 OA
ENDBRANCH   1  18
BRANCH   3  19
ATOM     19  C   UNL     1       0.875   8.882  21.589  0.00  0.00    +0.000 C 
ATOM     20  O   UNL     1      -0.172   9.436  21.314  0.00  0.00    +0.000 OA
BRANCH  19  21
ATOM     21  O   UNL     1       1.676   9.259  22.613  0.00  0.00    +0.000 OA
ATOM     22  H   UNL     1       2.256  10.019  22.441  0.00  0.00    +0.000 HD
ENDBRANCH  19  21
ENDBRANCH   3  19
BRANCH  10  23
ATOM     23  O   UNL     1       4.021   2.052  17.075  0.00  0.00    +0.000 OA
ATOM     24  C   UNL     1       4.084   1.488  18.378  0.00  0.00    +0.000 C 
ENDBRANCH  10  23
BRANCH  13  25
ATOM     25  O   UNL     1       6.312   7.005  16.325  0.00  0.00    +0.000 OA
ATOM     26  C   UNL     1       7.262   7.524  17.232  0.00  0.00    +0.000 C 
ENDBRANCH  13  25
TORSDOF 5
ENDMDL
MODEL 6
REMARK VINA RESULT:      -6.4      2.665      6.162
REMARK  Name = 
REMARK  8 active torsions:
REMARK  status: ('A' for Active; 'I' for Inactive)
REMARK    1  A    between atoms: C_1  and  O_2
REMARK    2  A    between atoms: O_2  and  C_3
REMARK    3  A    between atoms: C_5  and  C_6
REMARK    4  A    between atoms: C_6  and  O_8
REMARK    5  A    between atoms: C_15  and  O_16
REMARK    6  A    between atoms: O_16  and  C_17
REMARK    7  A    between atoms: C_20  and  O_21
REMARK    8  A    between atoms: O_21  and  C_22
REMARK                            x       y       z     vdW  Elec       q    Type
REMARK                         _______ _______ _______ _____ _____    ______ ____
ROOT
ATOM      1  C   UNL     1       4.705   3.408  17.057  0.00  0.00    +0.000 A 
ATOM      2  C   UNL     1       5.412   3.342  15.849  0.00  0.00    +0.000 A 
ATOM      3  C   UNL     1       5.752   4.513  15.167  0.00  0.00    +0.000 A 
ATOM      4  C   UNL     1       5.289   5.747  15.626  0.00  0.00    +0.000 A 
ATOM      5  C   UNL     1       4.551   5.810  16.817  0.00  0.00    +0.000 A 
ATOM      6  C   UNL     1       4.280   4.661  17.547  0.00  0.00    +0.000 A 
ATOM      7  C   UNL     1       3.766   4.861  18.915  0.00  0.00    +0.000 C 
ATOM      8  O   UNL     1       4.187   4.116  19.785  0.00  0.00    +0.000 OA
ATOM      9  C   UNL     1       2.942   6.070  19.236  0.00  0.00    +0.000 A 
ATOM     10  C   UNL     1       2.023   6.119  20.303  0.00  0.00    +0.000 A 
ATOM     11  C   UNL     1       1.316   7.302  20.532  0.00  0.00    +0.000 A 
ATOM     12  C   UNL     1       1.482   8.409  19.708  0.00  0.00    +0.000 A 
ATOM     13  C   UNL     1       2.366   8.388  18.620  0.00  0.00    +0.000 A 
ATOM     14  C   UNL     1       3.126   7.216  18.403  0.00  0.00    +0.000 A 
ATOM     15  C   UNL     1       4.199   7.119  17.385  0.00  0.00    +0.000 C 
ATOM     16  O   UNL     1       4.886   8.071  17.054  0.00  0.00    +0.000 OA
ENDROOT
BRANCH   1  18
ATOM     17  C   UNL     1       2.995   1.890  17.649  0.00  0.00    +0.000 C 
ATOM     18  O   UNL     1       4.369   2.273  17.746  0.00  0.00    +0.000 OA
ENDBRANCH   1  18
BRANCH   3  19
ATOM     19  C   UNL     1       6.602   4.474  13.957  0.00  0.00    +0.000 C 
ATOM     20  O   UNL     1       7.446   5.315  13.714  0.00  0.00    +0.000 OA
BRANCH  19  21
ATOM     21  O   UNL     1       6.383   3.386  13.182  0.00  0.00    +0.000 OA
ATOM     22  H   UNL     1       5.863   3.537  12.376  0.00  0.00    +0.000 HD
ENDBRANCH  19  21
ENDBRANCH   3  19
BRANCH  10  23
ATOM     23  O   UNL     1       1.554   5.112  21.100  0.00  0.00    +0.000 OA
ATOM     24  C   UNL     1       0.867   4.017  20.510  0.00  0.00    +0.000 C 
ENDBRANCH  10  23
BRANCH  13  25
ATOM     25  O   UNL     1       2.283   9.581  17.963  0.00  0.00    +0.000 OA
ATOM     26  C   UNL     1       1.513  10.677  18.414  0.00  0.00    +0.000 C 
ENDBRANCH  13  25
TORSDOF 5
ENDMDL
MODEL 7
REMARK VINA RESULT:      -6.2      4.689      7.193
REMARK  Name = 
REMARK  8 active torsions:
REMARK  status: ('A' for Active; 'I' for Inactive)
REMARK    1  A    between atoms: C_1  and  O_2
REMARK    2  A    between atoms: O_2  and  C_3
REMARK    3  A    between atoms: C_5  and  C_6
REMARK    4  A    between atoms: C_6  and  O_8
REMARK    5  A    between atoms: C_15  and  O_16
REMARK    6  A    between atoms: O_16  and  C_17
REMARK    7  A    between atoms: C_20  and  O_21
REMARK    8  A    between atoms: O_21  and  C_22
REMARK                            x       y       z     vdW  Elec       q    Type
REMARK                         _______ _______ _______ _____ _____    ______ ____
ROOT
ATOM      1  C   UNL     1      -1.497  10.945  18.177  0.00  0.00    +0.000 A 
ATOM      2  C   UNL     1      -1.778  10.436  16.902  0.00  0.00    +0.000 A 
ATOM      3  C   UNL     1      -3.051  10.588  16.348  0.00  0.00    +0.000 A 
ATOM      4  C   UNL     1      -4.082  11.146  17.108  0.00  0.00    +0.000 A 
ATOM      5  C   UNL     1      -3.809  11.623  18.398  0.00  0.00    +0.000 A 
ATOM      6  C   UNL     1      -2.527  11.553  18.926  0.00  0.00    +0.000 A 
ATOM      7  C   UNL     1      -2.280  12.339  20.150  0.00  0.00    +0.000 C 
ATOM      8  O   UNL     1      -1.209  12.918  20.235  0.00  0.00    +0.000 OA
ATOM      9  C   UNL     1      -3.394  12.582  21.121  0.00  0.00    +0.000 A 
ATOM     10  C   UNL     1      -3.182  12.862  22.486  0.00  0.00    +0.000 A 
ATOM     11  C   UNL     1      -4.288  13.095  23.307  0.00  0.00    +0.000 A 
ATOM     12  C   UNL     1      -5.582  13.021  22.806  0.00  0.00    +0.000 A 
ATOM     13  C   UNL     1      -5.833  12.717  21.461  0.00  0.00    +0.000 A 
ATOM     14  C   UNL     1      -4.724  12.528  20.605  0.00  0.00    +0.000 A 
ATOM     15  C   UNL     1      -4.849  12.351  19.138  0.00  0.00    +0.000 C 
ATOM     16  O   UNL     1      -5.738  12.869  18.482  0.00  0.00    +0.000 OA
ENDROOT
BRANCH   1  18
ATOM     17  C   UNL     1       0.578   9.818  18.136  0.00  0.00    +0.000 C 
ATOM     18  O   UNL     1      -0.254  10.814  18.736  0.00  0.00    +0.000 OA
ENDBRANCH   1  18
BRANCH   3  19
ATOM     19  C   UNL     1      -3.336  10.170  14.957  0.00  0.00    +0.000 C 
ATOM     20  O   UNL     1      -2.465   9.975  14.133  0.00  0.00    +0.000 OA
BRANCH  19  21
ATOM     21  O   UNL     1      -4.654   9.975  14.716  0.00  0.00    +0.000 OA
ATOM     22  H   UNL     1      -4.905   9.082  14.427  0.00  0.00    +0.000 HD
ENDBRANCH  19  21
ENDBRANCH   3  19
BRANCH  10  23
ATOM     23  O   UNL     1      -2.035  12.785  23.227  0.00  0.00    +0.000 OA
ATOM     24  C   UNL     1      -1.359  13.980  23.593  0.00  0.00    +0.000 C 
ENDBRANCH  10  23
BRANCH  13  25
ATOM     25  O   UNL     1      -7.182  12.658  21.267  0.00  0.00    +0.000 OA
ATOM     26  C   UNL     1      -7.910  11.454  21.151  0.00  0.00    +0.000 C 
ENDBRANCH  13  25
TORSDOF 5
ENDMDL
MODEL 8
REMARK VINA RESULT:      -6.2      3.706      6.364
REMARK  Name = 
REMARK  8 active torsions:
REMARK  status: ('A' for Active; 'I' for Inactive)
REMARK    1  A    between atoms: C_1  and  O_2
REMARK    2  A    between atoms: O_2  and  C_3
REMARK    3  A    between atoms: C_5  and  C_6
REMARK    4  A    between atoms: C_6  and  O_8
REMARK    5  A    between atoms: C_15  and  O_16
REMARK    6  A    between atoms: O_16  and  C_17
REMARK    7  A    between atoms: C_20  and  O_21
REMARK    8  A    between atoms: O_21  and  C_22
REMARK                            x       y       z     vdW  Elec       q    Type
REMARK                         _______ _______ _______ _____ _____    ______ ____
ROOT
ATOM      1  C   UNL     1       0.066  10.603  21.342  0.00  0.00    +0.000 A 
ATOM      2  C   UNL     1       0.955   9.838  20.573  0.00  0.00    +0.000 A 
ATOM      3  C   UNL     1       0.769   9.718  19.194  0.00  0.00    +0.000 A 
ATOM      4  C   UNL     1      -0.368  10.262  18.592  0.00  0.00    +0.000 A 
ATOM      5  C   UNL     1      -1.275  10.998  19.368  0.00  0.00    +0.000 A 
ATOM      6  C   UNL     1      -1.056  11.195  20.724  0.00  0.00    +0.000 A 
ATOM      7  C   UNL     1      -1.895  12.215  21.381  0.00  0.00    +0.000 C 
ATOM      8  O   UNL     1      -1.355  12.937  22.204  0.00  0.00    +0.000 OA
ATOM      9  C   UNL     1      -3.281  12.481  20.879  0.00  0.00    +0.000 A 
ATOM     10  C   UNL     1      -4.301  13.030  21.682  0.00  0.00    +0.000 A 
ATOM     11  C   UNL     1      -5.557  13.259  21.114  0.00  0.00    +0.000 A 
ATOM     12  C   UNL     1      -5.819  12.925  19.791  0.00  0.00    +0.000 A 
ATOM     13  C   UNL     1      -4.837  12.351  18.971  0.00  0.00    +0.000 A 
ATOM     14  C   UNL     1      -3.547  12.158  19.514  0.00  0.00    +0.000 A 
ATOM     15  C   UNL     1      -2.385  11.703  18.712  0.00  0.00    +0.000 C 
ATOM     16  O   UNL     1      -2.252  11.971  17.529  0.00  0.00    +0.000 OA
ENDROOT
BRANCH   1  18
ATOM     17  C   UNL     1      -0.086   9.581  23.466  0.00  0.00    +0.000 C 
ATOM     18  O   UNL     1       0.234  10.741  22.693  0.00  0.00    +0.000 OA
ENDBRANCH   1  18
BRANCH   3  19
ATOM     19  C   UNL     1       1.760   9.020  18.346  0.00  0.00    +0.000 C 
ATOM     20  O   UNL     1       2.170   7.902  18.590  0.00  0.00    +0.000 OA
BRANCH  19  21
ATOM     21  O   UNL     1       2.120   9.727  17.249  0.00  0.00    +0.000 OA
ATOM     22  H   UNL     1       1.439   9.821  16.563  0.00  0.00    +0.000 HD
ENDBRANCH  19  21
ENDBRANCH   3  19
BRANCH  10  23
ATOM     23  O   UNL     1      -4.334  13.241  23.033  0.00  0.00    +0.000 OA
ATOM     24  C   UNL     1      -5.543  13.018  23.745  0.00  0.00    +0.000 C 
ENDBRANCH  10  23
BRANCH  13  25
ATOM     25  O   UNL     1      -5.386  12.080  17.752  0.00  0.00    +0.000 OA
ATOM     26  C   UNL     1      -6.447  12.820  17.183  0.00  0.00    +0.000 C 
ENDBRANCH  13  25
TORSDOF 5
ENDMDL
MODEL 9
REMARK VINA RESULT:      -6.1      1.338      7.195
REMARK  Name = 
REMARK  8 active torsions:
REMARK  status: ('A' for Active; 'I' for Inactive)
REMARK    1  A    between atoms: C_1  and  O_2
REMARK    2  A    between atoms: O_2  and  C_3
REMARK    3  A    between atoms: C_5  and  C_6
REMARK    4  A    between atoms: C_6  and  O_8
REMARK    5  A    between atoms: C_15  and  O_16
REMARK    6  A    between atoms: O_16  and  C_17
REMARK    7  A    between atoms: C_20  and  O_21
REMARK    8  A    between atoms: O_21  and  C_22
REMARK                            x       y       z     vdW  Elec       q    Type
REMARK                         _______ _______ _______ _____ _____    ______ ____
ROOT
ATOM      1  C   UNL     1       0.711   9.441  21.124  0.00  0.00    +0.000 A 
ATOM      2  C   UNL     1       0.502  10.777  20.754  0.00  0.00    +0.000 A 
ATOM      3  C   UNL     1       0.912  11.231  19.498  0.00  0.00    +0.000 A 
ATOM      4  C   UNL     1       1.633  10.387  18.651  0.00  0.00    +0.000 A 
ATOM      5  C   UNL     1       1.872   9.060  19.037  0.00  0.00    +0.000 A 
ATOM      6  C   UNL     1       1.396   8.574  20.247  0.00  0.00    +0.000 A 
ATOM      7  C   UNL     1       1.438   7.111  20.426  0.00  0.00    +0.000 C 
ATOM      8  O   UNL     1       0.484   6.589  20.979  0.00  0.00    +0.000 OA
ATOM      9  C   UNL     1       2.504   6.304  19.751  0.00  0.00    +0.000 A 
ATOM     10  C   UNL     1       2.935   5.046  20.220  0.00  0.00    +0.000 A 
ATOM     11  C   UNL     1       3.923   4.363  19.507  0.00  0.00    +0.000 A 
ATOM     12  C   UNL     1       4.505   4.917  18.373  0.00  0.00    +0.000 A 
ATOM     13  C   UNL     1       4.122   6.178  17.894  0.00  0.00    +0.000 A 
ATOM     14  C   UNL     1       3.089   6.862  18.574  0.00  0.00    +0.000 A 
ATOM     15  C   UNL     1       2.491   8.128  18.085  0.00  0.00    +0.000 C 
ATOM     16  O   UNL     1       2.396   8.400  16.899  0.00  0.00    +0.000 OA
ENDROOT
BRANCH   1  18
ATOM     17  C   UNL     1      -0.412   9.911  23.149  0.00  0.00    +0.000 C 
ATOM     18  O   UNL     1       0.310   8.973  22.347  0.00  0.00    +0.000 OA
ENDBRANCH   1  18
BRANCH   3  19
ATOM     19  C   UNL     1       0.593  12.601  19.038  0.00  0.00    +0.000 C 
ATOM     20  O   UNL     1       1.146  13.591  19.476  0.00  0.00    +0.000 OA
BRANCH  19  21
ATOM     21  O   UNL     1      -0.331  12.633  18.049  0.00  0.00    +0.000 OA
ATOM     22  H   UNL     1      -1.204  12.272  18.272  0.00  0.00    +0.000 HD
ENDBRANCH  19  21
ENDBRANCH   3  19
BRANCH  10  23
ATOM     23  O   UNL     1       2.660   4.411  21.399  0.00  0.00    +0.000 OA
ATOM     24  C   UNL     1       1.853   3.242  21.390  0.00  0.00    +0.000 C 
ENDBRANCH  10  23
BRANCH  13  25
ATOM     25  O   UNL     1       4.891   6.489  16.811  0.00  0.00    +0.000 OA
ATOM     26  C   UNL     1       5.256   5.561  15.811  0.00  0.00    +0.000 C 
ENDBRANCH  13  25
TORSDOF 5
ENDMDL
