MODEL 1
REMARK VINA RESULT:      -9.2      0.000      0.000
REMARK  Name = 
REMARK  6 active torsions:
REMARK  status: ('A' for Active; 'I' for Inactive)
REMARK    1  A    between atoms: C_1  and  C_2
REMARK    2  A    between atoms: C_6  and  C_7
REMARK    3  A    between atoms: C_7  and  C_9
REMARK    4  A    between atoms: C_18  and  C_19
REMARK    5  A    between atoms: C_19  and  C_20
REMARK    6  A    between atoms: C_20  and  O_22
REMARK                            x       y       z     vdW  Elec       q    Type
REMARK                         _______ _______ _______ _____ _____    ______ ____
ROOT
ATOM      1  C   UNL     1       5.573   4.287  16.702  0.00  0.00    +0.000 A 
ATOM      2  N   UNL     1       4.858   3.127  16.889  0.00  0.00    +0.000 N 
ATOM      3  C   UNL     1       3.658   3.363  17.497  0.00  0.00    +0.000 A 
ATOM      4  C   UNL     1       2.633   2.470  17.825  0.00  0.00    +0.000 A 
ATOM      5  C   UNL     1       1.513   2.999  18.459  0.00  0.00    +0.000 A 
ATOM      6  F   UNL     1       0.500   2.180  18.776  0.00  0.00    +0.000 F 
ATOM      7  C   UNL     1       1.419   4.350  18.768  0.00  0.00    +0.000 A 
ATOM      8  C   UNL     1       2.458   5.228  18.426  0.00  0.00    +0.000 A 
ATOM      9  C   UNL     1       3.599   4.729  17.761  0.00  0.00    +0.000 A 
ATOM     10  C   UNL     1       4.795   5.322  17.224  0.00  0.00    +0.000 A 
ATOM     11  H   UNL     1       5.192   2.216  16.595  0.00  0.00    +0.000 HD
ENDROOT
BRANCH   1  12
ATOM     12  C   UNL     1       6.888   4.343  16.067  0.00  0.00    +0.000 C 
ATOM     13  O   UNL     1       7.922   4.326  16.742  0.00  0.00    +0.000 OA
BRANCH  12  19
ATOM     14  C   UNL     1       5.435   2.778  11.512  0.00  0.00    +0.000 C 
ATOM     15  C   UNL     1       6.282   3.654  12.386  0.00  0.00    +0.000 A 
ATOM     16  C   UNL     1       7.170   4.574  11.827  0.00  0.00    +0.000 A 
ATOM     17  C   UNL     1       7.933   5.358  12.673  0.00  0.00    +0.000 A 
ATOM     18  N   UNL     1       7.868   5.289  14.020  0.00  0.00    +0.000 NA
ATOM     19  C   UNL     1       6.991   4.394  14.558  0.00  0.00    +0.000 A 
ATOM     20  C   UNL     1       6.193   3.561  13.780  0.00  0.00    +0.000 A 
ENDBRANCH  12  19
ENDBRANCH   1  12
BRANCH  10  21
ATOM     21  C   UNL     1       5.104   6.788  17.189  0.00  0.00    +0.000 C 
BRANCH  21  22
ATOM     22  C   UNL     1       6.533   7.106  17.555  0.00  0.00    +0.000 C 
ATOM     23  O   UNL     1       7.249   7.869  16.916  0.00  0.00    +0.000 OA
BRANCH  22  24
ATOM     24  O   UNL     1       6.977   6.455  18.656  0.00  0.00    +0.000 OA
ATOM     25  H   UNL     1       6.323   6.456  19.398  0.00  0.00    +0.000 HD
ENDBRANCH  22  24
ENDBRANCH  21  22
ENDBRANCH  10  21
TORSDOF 5
ENDMDL
MODEL 2
REMARK VINA RESULT:      -8.8      0.839      1.152
REMARK  Name = 
REMARK  6 active torsions:
REMARK  status: ('A' for Active; 'I' for Inactive)
REMARK    1  A    between atoms: C_1  and  C_2
REMARK    2  A    between atoms: C_6  and  C_7
REMARK    3  A    between atoms: C_7  and  C_9
REMARK    4  A    between atoms: C_18  and  C_19
REMARK    5  A    between atoms: C_19  and  C_20
REMARK    6  A    between atoms: C_20  and  O_22
REMARK                            x       y       z     vdW  Elec       q    Type
REMARK                         _______ _______ _______ _____ _____    ______ ____
ROOT
ATOM      1  C   UNL     1       5.763   4.250  16.945  0.00  0.00    +0.000 A 
ATOM      2  N   UNL     1       4.796   3.301  16.707  0.00  0.00    +0.000 N 
ATOM      3  C   UNL     1       3.700   3.482  17.502  0.00  0.00    +0.000 A 
ATOM      4  C   UNL     1       2.499   2.766  17.543  0.00  0.00    +0.000 A 
ATOM      5  C   UNL     1       1.552   3.175  18.477  0.00  0.00    +0.000 A 
ATOM      6  F   UNL     1       0.381   2.526  18.537  0.00  0.00    +0.000 F 
ATOM      7  C   UNL     1       1.790   4.234  19.342  0.00  0.00    +0.000 A 
ATOM      8  C   UNL     1       3.000   4.939  19.281  0.00  0.00    +0.000 A 
ATOM      9  C   UNL     1       3.975   4.567  18.330  0.00  0.00    +0.000 A 
ATOM     10  C   UNL     1       5.266   5.079  17.952  0.00  0.00    +0.000 A 
ATOM     11  H   UNL     1       4.896   2.569  16.012  0.00  0.00    +0.000 HD
ENDROOT
BRANCH   1  12
ATOM     12  C   UNL     1       7.039   4.312  16.235  0.00  0.00    +0.000 C 
ATOM     13  O   UNL     1       8.110   4.268  16.847  0.00  0.00    +0.000 OA
BRANCH  12  19
ATOM     14  C   UNL     1       5.271   2.920  11.736  0.00  0.00    +0.000 C 
ATOM     15  C   UNL     1       6.194   3.747  12.581  0.00  0.00    +0.000 A 
ATOM     16  C   UNL     1       7.075   4.657  11.994  0.00  0.00    +0.000 A 
ATOM     17  C   UNL     1       7.910   5.394  12.813  0.00  0.00    +0.000 A 
ATOM     18  N   UNL     1       7.923   5.288  14.159  0.00  0.00    +0.000 NA
ATOM     19  C   UNL     1       7.053   4.403  14.725  0.00  0.00    +0.000 A 
ATOM     20  C   UNL     1       6.185   3.616  13.974  0.00  0.00    +0.000 A 
ENDBRANCH  12  19
ENDBRANCH   1  12
BRANCH  10  21
ATOM     21  C   UNL     1       5.914   6.310  18.508  0.00  0.00    +0.000 C 
BRANCH  21  22
ATOM     22  C   UNL     1       7.188   6.024  19.266  0.00  0.00    +0.000 C 
ATOM     23  O   UNL     1       7.274   5.203  20.172  0.00  0.00    +0.000 OA
BRANCH  22  24
ATOM     24  O   UNL     1       8.244   6.773  18.870  0.00  0.00    +0.000 OA
ATOM     25  H   UNL     1       8.176   7.719  19.152  0.00  0.00    +0.000 HD
ENDBRANCH  22  24
ENDBRANCH  21  22
ENDBRANCH  10  21
TORSDOF 5
ENDMDL
MODEL 3
REMARK VINA RESULT:      -8.7      2.413      3.313
REMARK  Name = 
REMARK  6 active torsions:
REMARK  status: ('A' for Active; 'I' for Inactive)
REMARK    1  A    between atoms: C_1  and  C_2
REMARK    2  A    between atoms: C_6  and  C_7
REMARK    3  A    between atoms: C_7  and  C_9
REMARK    4  A    between atoms: C_18  and  C_19
REMARK    5  A    between atoms: C_19  and  C_20
REMARK    6  A    between atoms: C_20  and  O_22
REMARK                            x       y       z     vdW  Elec       q    Type
REMARK                         _______ _______ _______ _____ _____    ______ ____
ROOT
ATOM      1  C   UNL     1       5.630   5.357  16.678  0.00  0.00    +0.000 A 
ATOM      2  N   UNL     1       5.353   6.701  16.778  0.00  0.00    +0.000 N 
ATOM      3  C   UNL     1       4.135   6.927  17.353  0.00  0.00    +0.000 A 
ATOM      4  C   UNL     1       3.507   8.137  17.667  0.00  0.00    +0.000 A 
ATOM      5  C   UNL     1       2.244   8.061  18.246  0.00  0.00    +0.000 A 
ATOM      6  F   UNL     1       1.614   9.196  18.577  0.00  0.00    +0.000 F 
ATOM      7  C   UNL     1       1.624   6.842  18.488  0.00  0.00    +0.000 A 
ATOM      8  C   UNL     1       2.274   5.641  18.168  0.00  0.00    +0.000 A 
ATOM      9  C   UNL     1       3.567   5.680  17.601  0.00  0.00    +0.000 A 
ATOM     10  C   UNL     1       4.528   4.684  17.210  0.00  0.00    +0.000 A 
ATOM     11  H   UNL     1       5.993   7.424  16.467  0.00  0.00    +0.000 HD
ENDROOT
BRANCH   1  12
ATOM     12  C   UNL     1       6.865   4.817  16.114  0.00  0.00    +0.000 C 
ATOM     13  O   UNL     1       7.794   4.459  16.842  0.00  0.00    +0.000 OA
BRANCH  12  19
ATOM     14  C   UNL     1       5.517   2.653  11.777  0.00  0.00    +0.000 C 
ATOM     15  C   UNL     1       6.343   3.642  12.545  0.00  0.00    +0.000 A 
ATOM     16  C   UNL     1       7.243   4.483  11.888  0.00  0.00    +0.000 A 
ATOM     17  C   UNL     1       7.986   5.375  12.638  0.00  0.00    +0.000 A 
ATOM     18  N   UNL     1       7.889   5.486  13.980  0.00  0.00    +0.000 NA
ATOM     19  C   UNL     1       7.001   4.667  14.614  0.00  0.00    +0.000 A 
ATOM     20  C   UNL     1       6.222   3.735  13.936  0.00  0.00    +0.000 A 
ENDBRANCH  12  19
ENDBRANCH   1  12
BRANCH  10  21
ATOM     21  C   UNL     1       4.381   3.205  17.399  0.00  0.00    +0.000 C 
BRANCH  21  22
ATOM     22  C   UNL     1       4.231   2.800  18.845  0.00  0.00    +0.000 C 
ATOM     23  O   UNL     1       3.197   2.348  19.324  0.00  0.00    +0.000 OA
BRANCH  22  24
ATOM     24  O   UNL     1       5.344   2.997  19.590  0.00  0.00    +0.000 OA
ATOM     25  H   UNL     1       5.180   2.918  20.562  0.00  0.00    +0.000 HD
ENDBRANCH  22  24
ENDBRANCH  21  22
ENDBRANCH  10  21
TORSDOF 5
ENDMDL
MODEL 4
REMARK VINA RESULT:      -8.6      1.542      1.930
REMARK  Name = 
REMARK  6 active torsions:
REMARK  status: ('A' for Active; 'I' for Inactive)
REMARK    1  A    between atoms: C_1  and  C_2
REMARK    2  A    between atoms: C_6  and  C_7
REMARK    3  A    between atoms: C_7  and  C_9
REMARK    4  A    between atoms: C_18  and  C_19
REMARK    5  A    between atoms: C_19  and  C_20
REMARK    6  A    between atoms: C_20  and  O_22
REMARK                            x       y       z     vdW  Elec       q    Type
REMARK                         _______ _______ _______ _____ _____    ______ ____
ROOT
ATOM      1  C   UNL     1       5.058   5.023  16.759  0.00  0.00    +0.000 A 
ATOM      2  N   UNL     1       3.723   4.736  16.928  0.00  0.00    +0.000 N 
ATOM      3  C   UNL     1       3.503   3.980  18.044  0.00  0.00    +0.000 A 
ATOM      4  C   UNL     1       2.299   3.516  18.584  0.00  0.00    +0.000 A 
ATOM      5  C   UNL     1       2.381   2.746  19.740  0.00  0.00    +0.000 A 
ATOM      6  F   UNL     1       1.250   2.295  20.300  0.00  0.00    +0.000 F 
ATOM      7  C   UNL     1       3.602   2.437  20.326  0.00  0.00    +0.000 A 
ATOM      8  C   UNL     1       4.796   2.917  19.769  0.00  0.00    +0.000 A 
ATOM      9  C   UNL     1       4.748   3.721  18.609  0.00  0.00    +0.000 A 
ATOM     10  C   UNL     1       5.732   4.412  17.819  0.00  0.00    +0.000 A 
ATOM     11  H   UNL     1       3.001   5.065  16.296  0.00  0.00    +0.000 HD
ENDROOT
BRANCH   1  12
ATOM     12  C   UNL     1       5.589   5.823  15.658  0.00  0.00    +0.000 C 
ATOM     13  O   UNL     1       5.594   7.056  15.712  0.00  0.00    +0.000 OA
BRANCH  12  19
ATOM     14  C   UNL     1       5.166   2.591  11.826  0.00  0.00    +0.000 C 
ATOM     15  C   UNL     1       5.954   3.602  12.605  0.00  0.00    +0.000 A 
ATOM     16  C   UNL     1       7.242   3.963  12.206  0.00  0.00    +0.000 A 
ATOM     17  C   UNL     1       7.933   4.895  12.958  0.00  0.00    +0.000 A 
ATOM     18  N   UNL     1       7.430   5.486  14.063  0.00  0.00    +0.000 NA
ATOM     19  C   UNL     1       6.168   5.134  14.441  0.00  0.00    +0.000 A 
ATOM     20  C   UNL     1       5.408   4.198  13.747  0.00  0.00    +0.000 A 
ENDBRANCH  12  19
ENDBRANCH   1  12
BRANCH  10  21
ATOM     21  C   UNL     1       7.196   4.498  18.124  0.00  0.00    +0.000 C 
BRANCH  21  22
ATOM     22  C   UNL     1       7.569   5.726  18.920  0.00  0.00    +0.000 C 
ATOM     23  O   UNL     1       7.763   6.829  18.423  0.00  0.00    +0.000 OA
BRANCH  22  24
ATOM     24  O   UNL     1       7.695   5.502  20.249  0.00  0.00    +0.000 OA
ATOM     25  H   UNL     1       8.338   4.781  20.463  0.00  0.00    +0.000 HD
ENDBRANCH  22  24
ENDBRANCH  21  22
ENDBRANCH  10  21
TORSDOF 5
ENDMDL
MODEL 5
REMARK VINA RESULT:      -8.6      3.818      5.293
REMARK  Name = 
REMARK  6 active torsions:
REMARK  status: ('A' for Active; 'I' for Inactive)
REMARK    1  A    between atoms: C_1  and  C_2
REMARK    2  A    between atoms: C_6  and  C_7
REMARK    3  A    between atoms: C_7  and  C_9
REMARK    4  A    between atoms: C_18  and  C_19
REMARK    5  A    between atoms: C_19  and  C_20
REMARK    6  A    between atoms: C_20  and  O_22
REMARK                            x       y       z     vdW  Elec       q    Type
REMARK                         _______ _______ _______ _____ _____    ______ ____
ROOT
ATOM      1  C   UNL     1       2.994   5.268  18.837  0.00  0.00    +0.000 A 
ATOM      2  N   UNL     1       2.800   6.419  18.108  0.00  0.00    +0.000 N 
ATOM      3  C   UNL     1       2.181   7.388  18.845  0.00  0.00    +0.000 A 
ATOM      4  C   UNL     1       1.844   8.699  18.491  0.00  0.00    +0.000 A 
ATOM      5  C   UNL     1       1.199   9.467  19.455  0.00  0.00    +0.000 A 
ATOM      6  F   UNL     1       0.873  10.733  19.163  0.00  0.00    +0.000 F 
ATOM      7  C   UNL     1       0.888   8.955  20.708  0.00  0.00    +0.000 A 
ATOM      8  C   UNL     1       1.239   7.640  21.042  0.00  0.00    +0.000 A 
ATOM      9  C   UNL     1       1.916   6.839  20.096  0.00  0.00    +0.000 A 
ATOM     10  C   UNL     1       2.464   5.509  20.107  0.00  0.00    +0.000 A 
ATOM     11  H   UNL     1       3.098   6.521  17.144  0.00  0.00    +0.000 HD
ENDROOT
BRANCH   1  12
ATOM     12  C   UNL     1       3.641   4.068  18.312  0.00  0.00    +0.000 C 
ATOM     13  O   UNL     1       3.114   2.958  18.429  0.00  0.00    +0.000 OA
BRANCH  12  19
ATOM     14  C   UNL     1       6.341   4.073  14.067  0.00  0.00    +0.000 C 
ATOM     15  C   UNL     1       6.247   4.203  15.559  0.00  0.00    +0.000 A 
ATOM     16  C   UNL     1       7.382   4.472  16.324  0.00  0.00    +0.000 A 
ATOM     17  C   UNL     1       7.247   4.578  17.696  0.00  0.00    +0.000 A 
ATOM     18  N   UNL     1       6.072   4.440  18.346  0.00  0.00    +0.000 NA
ATOM     19  C   UNL     1       4.965   4.185  17.590  0.00  0.00    +0.000 A 
ATOM     20  C   UNL     1       5.014   4.054  16.206  0.00  0.00    +0.000 A 
ENDBRANCH  12  19
ENDBRANCH   1  12
BRANCH  10  21
ATOM     21  C   UNL     1       2.502   4.588  21.288  0.00  0.00    +0.000 C 
BRANCH  21  22
ATOM     22  C   UNL     1       1.457   3.499  21.230  0.00  0.00    +0.000 C 
ATOM     23  O   UNL     1       1.432   2.536  21.989  0.00  0.00    +0.000 OA
BRANCH  22  24
ATOM     24  O   UNL     1       0.546   3.663  20.243  0.00  0.00    +0.000 OA
ATOM     25  H   UNL     1       0.552   2.927  19.582  0.00  0.00    +0.000 HD
ENDBRANCH  22  24
ENDBRANCH  21  22
ENDBRANCH  10  21
TORSDOF 5
ENDMDL
MODEL 6
REMARK VINA RESULT:      -8.5      1.207      1.396
REMARK  Name = 
REMARK  6 active torsions:
REMARK  status: ('A' for Active; 'I' for Inactive)
REMARK    1  A    between atoms: C_1  and  C_2
REMARK    2  A    between atoms: C_6  and  C_7
REMARK    3  A    between atoms: C_7  and  C_9
REMARK    4  A    between atoms: C_18  and  C_19
REMARK    5  A    between atoms: C_19  and  C_20
REMARK    6  A    between atoms: C_20  and  O_22
REMARK                            x       y       z     vdW  Elec       q    Type
REMARK                         _______ _______ _______ _____ _____    ______ ____
ROOT
ATOM      1  C   UNL     1       5.481   4.208  17.043  0.00  0.00    +0.000 A 
ATOM      2  N   UNL     1       4.801   3.012  17.027  0.00  0.00    +0.000 N 
ATOM      3  C   UNL     1       3.587   3.109  17.645  0.00  0.00    +0.000 A 
ATOM      4  C   UNL     1       2.587   2.145  17.806  0.00  0.00    +0.000 A 
ATOM      5  C   UNL     1       1.444   2.530  18.499  0.00  0.00    +0.000 A 
ATOM      6  F   UNL     1       0.455   1.640  18.661  0.00  0.00    +0.000 F 
ATOM      7  C   UNL     1       1.304   3.808  19.023  0.00  0.00    +0.000 A 
ATOM      8  C   UNL     1       2.317   4.760  18.846  0.00  0.00    +0.000 A 
ATOM      9  C   UNL     1       3.482   4.411  18.127  0.00  0.00    +0.000 A 
ATOM     10  C   UNL     1       4.664   5.120  17.714  0.00  0.00    +0.000 A 
ATOM     11  H   UNL     1       5.167   2.172  16.593  0.00  0.00    +0.000 HD
ENDROOT
BRANCH   1  12
ATOM     12  C   UNL     1       6.800   4.405  16.447  0.00  0.00    +0.000 C 
ATOM     13  O   UNL     1       7.808   4.505  17.152  0.00  0.00    +0.000 OA
BRANCH  12  19
ATOM     14  C   UNL     1       5.405   2.925  11.846  0.00  0.00    +0.000 C 
ATOM     15  C   UNL     1       6.261   3.764  12.748  0.00  0.00    +0.000 A 
ATOM     16  C   UNL     1       7.197   4.653  12.217  0.00  0.00    +0.000 A 
ATOM     17  C   UNL     1       7.968   5.402  13.088  0.00  0.00    +0.000 A 
ATOM     18  N   UNL     1       7.865   5.328  14.432  0.00  0.00    +0.000 NA
ATOM     19  C   UNL     1       6.942   4.462  14.942  0.00  0.00    +0.000 A 
ATOM     20  C   UNL     1       6.134   3.665  14.138  0.00  0.00    +0.000 A 
ENDBRANCH  12  19
ENDBRANCH   1  12
BRANCH  10  21
ATOM     21  C   UNL     1       4.926   6.580  17.924  0.00  0.00    +0.000 C 
BRANCH  21  22
ATOM     22  C   UNL     1       4.035   7.472  17.093  0.00  0.00    +0.000 C 
ATOM     23  O   UNL     1       3.111   8.133  17.552  0.00  0.00    +0.000 OA
BRANCH  22  24
ATOM     24  O   UNL     1       4.331   7.469  15.772  0.00  0.00    +0.000 OA
ATOM     25  H   UNL     1       3.529   7.454  15.194  0.00  0.00    +0.000 HD
ENDBRANCH  22  24
ENDBRANCH  21  22
ENDBRANCH  10  21
TORSDOF 5
ENDMDL
MODEL 7
REMARK VINA RESULT:      -8.3      3.860      7.179
REMARK  Name = 
REMARK  6 active torsions:
REMARK  status: ('A' for Active; 'I' for Inactive)
REMARK    1  A    between atoms: C_1  and  C_2
REMARK    2  A    between atoms: C_6  and  C_7
REMARK    3  A    between atoms: C_7  and  C_9
REMARK    4  A    between atoms: C_18  and  C_19
REMARK    5  A    between atoms: C_19  and  C_20
REMARK    6  A    between atoms: C_20  and  O_22
REMARK                            x       y       z     vdW  Elec       q    Type
REMARK                         _______ _______ _______ _____ _____    ______ ____
ROOT
ATOM      1  C   UNL     1       3.814   5.277  18.364  0.00  0.00    +0.000 A 
ATOM      2  N   UNL     1       4.970   5.921  17.990  0.00  0.00    +0.000 N 
ATOM      3  C   UNL     1       5.505   5.385  16.853  0.00  0.00    +0.000 A 
ATOM      4  C   UNL     1       6.639   5.772  16.132  0.00  0.00    +0.000 A 
ATOM      5  C   UNL     1       6.955   5.022  15.002  0.00  0.00    +0.000 A 
ATOM      6  F   UNL     1       8.025   5.370  14.274  0.00  0.00    +0.000 F 
ATOM      7  C   UNL     1       6.192   3.930  14.614  0.00  0.00    +0.000 A 
ATOM      8  C   UNL     1       5.056   3.562  15.350  0.00  0.00    +0.000 A 
ATOM      9  C   UNL     1       4.692   4.314  16.489  0.00  0.00    +0.000 A 
ATOM     10  C   UNL     1       3.599   4.268  17.423  0.00  0.00    +0.000 A 
ATOM     11  H   UNL     1       5.358   6.706  18.501  0.00  0.00    +0.000 HD
ENDROOT
BRANCH   1  12
ATOM     12  C   UNL     1       3.019   5.640  19.535  0.00  0.00    +0.000 C 
ATOM     13  O   UNL     1       2.934   4.885  20.506  0.00  0.00    +0.000 OA
BRANCH  12  19
ATOM     14  C   UNL     1       0.341   9.121  21.989  0.00  0.00    +0.000 C 
ATOM     15  C   UNL     1       1.043   8.641  20.753  0.00  0.00    +0.000 A 
ATOM     16  C   UNL     1       1.089   9.433  19.605  0.00  0.00    +0.000 A 
ATOM     17  C   UNL     1       1.744   8.946  18.489  0.00  0.00    +0.000 A 
ATOM     18  N   UNL     1       2.350   7.740  18.443  0.00  0.00    +0.000 NA
ATOM     19  C   UNL     1       2.307   6.976  19.572  0.00  0.00    +0.000 A 
ATOM     20  C   UNL     1       1.662   7.386  20.735  0.00  0.00    +0.000 A 
ENDBRANCH  12  19
ENDBRANCH   1  12
BRANCH  10  21
ATOM     21  C   UNL     1       2.426   3.339  17.350  0.00  0.00    +0.000 C 
BRANCH  21  22
ATOM     22  C   UNL     1       2.618   2.070  18.144  0.00  0.00    +0.000 C 
ATOM     23  O   UNL     1       3.667   1.437  18.176  0.00  0.00    +0.000 OA
BRANCH  22  24
ATOM     24  O   UNL     1       1.513   1.667  18.814  0.00  0.00    +0.000 OA
ATOM     25  H   UNL     1       1.016   0.949  18.349  0.00  0.00    +0.000 HD
ENDBRANCH  22  24
ENDBRANCH  21  22
ENDBRANCH  10  21
TORSDOF 5
ENDMDL
MODEL 8
REMARK VINA RESULT:      -8.1      4.024      5.801
REMARK  Name = 
REMARK  6 active torsions:
REMARK  status: ('A' for Active; 'I' for Inactive)
REMARK    1  A    between atoms: C_1  and  C_2
REMARK    2  A    between atoms: C_6  and  C_7
REMARK    3  A    between atoms: C_7  and  C_9
REMARK    4  A    between atoms: C_18  and  C_19
REMARK    5  A    between atoms: C_19  and  C_20
REMARK    6  A    between atoms: C_20  and  O_22
REMARK                            x       y       z     vdW  Elec       q    Type
REMARK                         _______ _______ _______ _____ _____    ______ ____
ROOT
ATOM      1  C   UNL     1       2.690   5.929  18.555  0.00  0.00    +0.000 A 
ATOM      2  N   UNL     1       2.386   7.146  17.992  0.00  0.00    +0.000 N 
ATOM      3  C   UNL     1       1.858   8.011  18.909  0.00  0.00    +0.000 A 
ATOM      4  C   UNL     1       1.459   9.343  18.753  0.00  0.00    +0.000 A 
ATOM      5  C   UNL     1       0.939   9.981  19.874  0.00  0.00    +0.000 A 
ATOM      6  F   UNL     1       0.560  11.263  19.772  0.00  0.00    +0.000 F 
ATOM      7  C   UNL     1       0.805   9.326  21.091  0.00  0.00    +0.000 A 
ATOM      8  C   UNL     1       1.216   7.992  21.226  0.00  0.00    +0.000 A 
ATOM      9  C   UNL     1       1.770   7.320  20.114  0.00  0.00    +0.000 A 
ATOM     10  C   UNL     1       2.332   6.013  19.902  0.00  0.00    +0.000 A 
ATOM     11  H   UNL     1       2.550   7.363  17.015  0.00  0.00    +0.000 HD
ENDROOT
BRANCH   1  12
ATOM     12  C   UNL     1       3.277   4.812  17.817  0.00  0.00    +0.000 C 
ATOM     13  O   UNL     1       2.574   3.894  17.387  0.00  0.00    +0.000 OA
BRANCH  12  19
ATOM     14  C   UNL     1       8.006   5.779  19.236  0.00  0.00    +0.000 C 
ATOM     15  C   UNL     1       7.023   5.240  18.240  0.00  0.00    +0.000 A 
ATOM     16  C   UNL     1       7.460   4.667  17.044  0.00  0.00    +0.000 A 
ATOM     17  C   UNL     1       6.516   4.188  16.154  0.00  0.00    +0.000 A 
ATOM     18  N   UNL     1       5.185   4.237  16.376  0.00  0.00    +0.000 NA
ATOM     19  C   UNL     1       4.767   4.791  17.551  0.00  0.00    +0.000 A 
ATOM     20  C   UNL     1       5.648   5.305  18.496  0.00  0.00    +0.000 A 
ENDBRANCH  12  19
ENDBRANCH   1  12
BRANCH  10  21
ATOM     21  C   UNL     1       2.540   4.969  20.956  0.00  0.00    +0.000 C 
BRANCH  21  22
ATOM     22  C   UNL     1       1.488   3.886  20.940  0.00  0.00    +0.000 C 
ATOM     23  O   UNL     1       0.558   3.849  20.143  0.00  0.00    +0.000 OA
BRANCH  22  24
ATOM     24  O   UNL     1       1.646   2.952  21.908  0.00  0.00    +0.000 OA
ATOM     25  H   UNL     1       2.582   2.650  22.008  0.00  0.00    +0.000 HD
ENDBRANCH  22  24
ENDBRANCH  21  22
ENDBRANCH  10  21
TORSDOF 5
ENDMDL
MODEL 9
REMARK VINA RESULT:      -8.1      3.587      4.780
REMARK  Name = 
REMARK  6 active torsions:
REMARK  status: ('A' for Active; 'I' for Inactive)
REMARK    1  A    between atoms: C_1  and  C_2
REMARK    2  A    between atoms: C_6  and  C_7
REMARK    3  A    between atoms: C_7  and  C_9
REMARK    4  A    between atoms: C_18  and  C_19
REMARK    5  A    between atoms: C_19  and  C_20
REMARK    6  A    between atoms: C_20  and  O_22
REMARK                            x       y       z     vdW  Elec       q    Type
REMARK                         _______ _______ _______ _____ _____    ______ ____
ROOT
ATOM      1  C   UNL     1       3.340   4.946  18.387  0.00  0.00    +0.000 A 
ATOM      2  N   UNL     1       3.111   6.195  17.860  0.00  0.00    +0.000 N 
ATOM      3  C   UNL     1       2.471   7.012  18.748  0.00  0.00    +0.000 A 
ATOM      4  C   UNL     1       2.096   8.353  18.618  0.00  0.00    +0.000 A 
ATOM      5  C   UNL     1       1.438   8.933  19.698  0.00  0.00    +0.000 A 
ATOM      6  F   UNL     1       1.076  10.221  19.620  0.00  0.00    +0.000 F 
ATOM      7  C   UNL     1       1.149   8.212  20.849  0.00  0.00    +0.000 A 
ATOM      8  C   UNL     1       1.538   6.869  20.960  0.00  0.00    +0.000 A 
ATOM      9  C   UNL     1       2.229   6.255  19.892  0.00  0.00    +0.000 A 
ATOM     10  C   UNL     1       2.813   4.958  19.680  0.00  0.00    +0.000 A 
ATOM     11  H   UNL     1       3.400   6.465  16.926  0.00  0.00    +0.000 HD
ENDROOT
BRANCH   1  12
ATOM     12  C   UNL     1       4.016   3.867  17.669  0.00  0.00    +0.000 C 
ATOM     13  O   UNL     1       3.668   2.692  17.811  0.00  0.00    +0.000 OA
BRANCH  12  19
ATOM     14  C   UNL     1       6.106   3.637  13.099  0.00  0.00    +0.000 C 
ATOM     15  C   UNL     1       6.129   4.094  14.527  0.00  0.00    +0.000 A 
ATOM     16  C   UNL     1       7.184   4.870  15.010  0.00  0.00    +0.000 A 
ATOM     17  C   UNL     1       7.165   5.265  16.335  0.00  0.00    +0.000 A 
ATOM     18  N   UNL     1       6.176   4.945  17.197  0.00  0.00    +0.000 NA
ATOM     19  C   UNL     1       5.144   4.194  16.715  0.00  0.00    +0.000 A 
ATOM     20  C   UNL     1       5.090   3.748  15.398  0.00  0.00    +0.000 A 
ENDBRANCH  12  19
ENDBRANCH   1  12
BRANCH  10  21
ATOM     21  C   UNL     1       2.883   3.855  20.692  0.00  0.00    +0.000 C 
BRANCH  21  22
ATOM     22  C   UNL     1       1.572   3.131  20.879  0.00  0.00    +0.000 C 
ATOM     23  O   UNL     1       0.717   3.030  20.007  0.00  0.00    +0.000 OA
BRANCH  22  24
ATOM     24  O   UNL     1       1.403   2.609  22.117  0.00  0.00    +0.000 OA
ATOM     25  H   UNL     1       1.387   3.296  22.829  0.00  0.00    +0.000 HD
ENDBRANCH  22  24
ENDBRANCH  21  22
ENDBRANCH  10  21
TORSDOF 5
ENDMDL
