MODEL 1
REMARK VINA RESULT:      -7.2      0.000      0.000
REMARK  Name = 
REMARK  3 active torsions:
REMARK  status: ('A' for Active; 'I' for Inactive)
REMARK    1  A    between atoms: C_2  and  C_3
REMARK    2  A    between atoms: C_14  and  C_15
REMARK    3  A    between atoms: N_20  and  C_21
REMARK                            x       y       z     vdW  Elec       q    Type
REMARK                         _______ _______ _______ _____ _____    ______ ____
ROOT
ATOM      1  O   UNL     1       7.257  12.684  17.106  0.00  0.00    +0.000 OA
ATOM      2  C   UNL     1       8.025  13.468  17.650  0.00  0.00    +0.000 C 
ATOM      3  N   UNL     1       7.673  14.794  17.941  0.00  0.00    +0.000 N 
ATOM      4  C   UNL     1       8.532  15.852  18.474  0.00  0.00    +0.000 C 
ATOM      5  C   UNL     1       8.025  16.255  19.863  0.00  0.00    +0.000 C 
ATOM      6  C   UNL     1       6.561  16.710  19.792  0.00  0.00    +0.000 C 
ATOM      7  C   UNL     1       5.679  15.651  19.101  0.00  0.00    +0.000 C 
ATOM      8  C   UNL     1       6.285  15.227  17.750  0.00  0.00    +0.000 C 
ENDROOT
BRANCH   7   9
ATOM      9  C   UNL     1       4.250  16.144  18.870  0.00  0.00    +0.000 C 
ATOM     10  O   UNL     1       4.006  16.946  17.967  0.00  0.00    +0.000 OA
ATOM     11  N   UNL     1       3.251  15.647  19.687  0.00  0.00    +0.000 N 
ATOM     12  C   UNL     1       1.838  15.785  19.300  0.00  0.00    +0.000 C 
ATOM     13  C   UNL     1       1.117  14.415  19.265  0.00  0.00    +0.000 C 
ATOM     14  N   UNL     1       1.404  13.609  20.471  0.00  0.00    +0.000 N 
ATOM     15  C   UNL     1       2.819  13.509  20.859  0.00  0.00    +0.000 C 
ATOM     16  C   UNL     1       3.433  14.917  20.944  0.00  0.00    +0.000 C 
BRANCH  14  17
ATOM     17  C   UNL     1       0.415  13.179  21.337  0.00  0.00    +0.000 A 
ATOM     18  C   UNL     1       0.045  11.822  21.394  0.00  0.00    +0.000 A 
ATOM     19  C   UNL     1      -0.953  11.365  22.260  0.00  0.00    +0.000 A 
ATOM     20  C   UNL     1      -1.609  12.260  23.095  0.00  0.00    +0.000 A 
ATOM     21  C   UNL     1      -1.268  13.607  23.059  0.00  0.00    +0.000 A 
ATOM     22  C   UNL     1      -0.270  14.055  22.187  0.00  0.00    +0.000 A 
ENDBRANCH  14  17
ENDBRANCH   7   9
BRANCH   2  23
ATOM     23  C   UNL     1       9.375  12.947  18.025  0.00  0.00    +0.000 A 
ATOM     24  C   UNL     1      10.414  12.982  17.081  0.00  0.00    +0.000 A 
ATOM     25  C   UNL     1      11.687  12.503  17.421  0.00  0.00    +0.000 A 
ATOM     26  C   UNL     1      11.934  12.026  18.707  0.00  0.00    +0.000 A 
ATOM     27  C   UNL     1      10.894  11.970  19.619  0.00  0.00    +0.000 A 
ATOM     28  F   UNL     1      11.117  11.540  20.868  0.00  0.00    +0.000 F 
ATOM     29  C   UNL     1       9.615  12.365  19.264  0.00  0.00    +0.000 A 
ENDBRANCH   2  23
TORSDOF 3
ENDMDL
MODEL 2
REMARK VINA RESULT:      -6.7      7.934      9.334
REMARK  Name = 
REMARK  3 active torsions:
REMARK  status: ('A' for Active; 'I' for Inactive)
REMARK    1  A    between atoms: C_2  and  C_3
REMARK    2  A    between atoms: C_14  and  C_15
REMARK    3  A    between atoms: N_20  and  C_21
REMARK                            x       y       z     vdW  Elec       q    Type
REMARK                         _______ _______ _______ _____ _____    ______ ____
ROOT
ATOM      1  O   UNL     1       5.272   6.930  15.642  0.00  0.00    +0.000 OA
ATOM      2  C   UNL     1       5.495   5.727  15.696  0.00  0.00    +0.000 C 
ATOM      3  N   UNL     1       5.271   4.968  16.854  0.00  0.00    +0.000 N 
ATOM      4  C   UNL     1       5.605   3.562  17.082  0.00  0.00    +0.000 C 
ATOM      5  C   UNL     1       4.311   2.765  17.275  0.00  0.00    +0.000 C 
ATOM      6  C   UNL     1       3.494   3.338  18.441  0.00  0.00    +0.000 C 
ATOM      7  C   UNL     1       3.262   4.853  18.271  0.00  0.00    +0.000 C 
ATOM      8  C   UNL     1       4.589   5.585  17.996  0.00  0.00    +0.000 C 
ENDROOT
BRANCH   7   9
ATOM      9  C   UNL     1       2.593   5.481  19.494  0.00  0.00    +0.000 C 
ATOM     10  O   UNL     1       2.723   4.969  20.607  0.00  0.00    +0.000 OA
ATOM     11  N   UNL     1       1.863   6.642  19.312  0.00  0.00    +0.000 N 
ATOM     12  C   UNL     1       1.509   7.485  20.465  0.00  0.00    +0.000 C 
ATOM     13  C   UNL     1       1.995   8.944  20.277  0.00  0.00    +0.000 C 
ATOM     14  N   UNL     1       1.661   9.470  18.937  0.00  0.00    +0.000 N 
ATOM     15  C   UNL     1       1.994   8.598  17.800  0.00  0.00    +0.000 C 
ATOM     16  C   UNL     1       1.408   7.195  18.034  0.00  0.00    +0.000 C 
BRANCH  14  17
ATOM     17  C   UNL     1       0.863  10.583  18.747  0.00  0.00    +0.000 A 
ATOM     18  C   UNL     1      -0.519  10.451  18.520  0.00  0.00    +0.000 A 
ATOM     19  C   UNL     1      -1.345  11.562  18.324  0.00  0.00    +0.000 A 
ATOM     20  C   UNL     1      -0.804  12.841  18.349  0.00  0.00    +0.000 A 
ATOM     21  C   UNL     1       0.559  13.004  18.567  0.00  0.00    +0.000 A 
ATOM     22  C   UNL     1       1.378  11.885  18.760  0.00  0.00    +0.000 A 
ENDBRANCH  14  17
ENDBRANCH   7   9
BRANCH   2  23
ATOM     23  C   UNL     1       6.000   5.071  14.452  0.00  0.00    +0.000 A 
ATOM     24  C   UNL     1       7.291   5.373  13.989  0.00  0.00    +0.000 A 
ATOM     25  C   UNL     1       7.780   4.760  12.827  0.00  0.00    +0.000 A 
ATOM     26  C   UNL     1       7.003   3.823  12.149  0.00  0.00    +0.000 A 
ATOM     27  C   UNL     1       5.721   3.556  12.599  0.00  0.00    +0.000 A 
ATOM     28  F   UNL     1       4.967   2.640  11.978  0.00  0.00    +0.000 F 
ATOM     29  C   UNL     1       5.201   4.219  13.699  0.00  0.00    +0.000 A 
ENDBRANCH   2  23
TORSDOF 3
ENDMDL
MODEL 3
REMARK VINA RESULT:      -6.6      1.286      1.739
REMARK  Name = 
REMARK  3 active torsions:
REMARK  status: ('A' for Active; 'I' for Inactive)
REMARK    1  A    between atoms: C_2  and  C_3
REMARK    2  A    between atoms: C_14  and  C_15
REMARK    3  A    between atoms: N_20  and  C_21
REMARK                            x       y       z     vdW  Elec       q    Type
REMARK                         _______ _______ _______ _____ _____    ______ ____
ROOT
ATOM      1  O   UNL     1       7.317  13.615  17.532  0.00  0.00    +0.000 OA
ATOM      2  C   UNL     1       8.224  14.193  18.117  0.00  0.00    +0.000 C 
ATOM      3  N   UNL     1       8.085  15.489  18.637  0.00  0.00    +0.000 N 
ATOM      4  C   UNL     1       9.119  16.326  19.246  0.00  0.00    +0.000 C 
ATOM      5  C   UNL     1       8.770  16.560  20.719  0.00  0.00    +0.000 C 
ATOM      6  C   UNL     1       7.384  17.206  20.849  0.00  0.00    +0.000 C 
ATOM      7  C   UNL     1       6.316  16.397  20.087  0.00  0.00    +0.000 C 
ATOM      8  C   UNL     1       6.763  16.123  18.638  0.00  0.00    +0.000 C 
ENDROOT
BRANCH   7   9
ATOM      9  C   UNL     1       4.959  17.102  20.061  0.00  0.00    +0.000 C 
ATOM     10  O   UNL     1       4.893  18.321  19.896  0.00  0.00    +0.000 OA
ATOM     11  N   UNL     1       3.822  16.329  20.209  0.00  0.00    +0.000 N 
ATOM     12  C   UNL     1       2.504  16.868  19.835  0.00  0.00    +0.000 C 
ATOM     13  C   UNL     1       1.783  15.958  18.810  0.00  0.00    +0.000 C 
ATOM     14  N   UNL     1       1.836  14.533  19.203  0.00  0.00    +0.000 N 
ATOM     15  C   UNL     1       3.156  14.022  19.603  0.00  0.00    +0.000 C 
ATOM     16  C   UNL     1       3.764  14.942  20.676  0.00  0.00    +0.000 C 
BRANCH  14  17
ATOM     17  C   UNL     1       0.701  13.777  19.432  0.00  0.00    +0.000 A 
ATOM     18  C   UNL     1       0.354  13.370  20.733  0.00  0.00    +0.000 A 
ATOM     19  C   UNL     1      -0.787  12.604  20.988  0.00  0.00    +0.000 A 
ATOM     20  C   UNL     1      -1.614  12.222  19.939  0.00  0.00    +0.000 A 
ATOM     21  C   UNL     1      -1.296  12.606  18.642  0.00  0.00    +0.000 A 
ATOM     22  C   UNL     1      -0.150  13.370  18.396  0.00  0.00    +0.000 A 
ENDBRANCH  14  17
ENDBRANCH   7   9
BRANCH   2  23
ATOM     23  C   UNL     1       9.508  13.448  18.287  0.00  0.00    +0.000 A 
ATOM     24  C   UNL     1      10.424  13.400  17.223  0.00  0.00    +0.000 A 
ATOM     25  C   UNL     1      11.635  12.710  17.371  0.00  0.00    +0.000 A 
ATOM     26  C   UNL     1      11.951  12.103  18.585  0.00  0.00    +0.000 A 
ATOM     27  C   UNL     1      11.028  12.133  19.616  0.00  0.00    +0.000 A 
ATOM     28  F   UNL     1      11.322  11.578  20.799  0.00  0.00    +0.000 F 
ATOM     29  C   UNL     1       9.795  12.741  19.450  0.00  0.00    +0.000 A 
ENDBRANCH   2  23
TORSDOF 3
ENDMDL
MODEL 4
REMARK VINA RESULT:      -6.6      1.203      1.482
REMARK  Name = 
REMARK  3 active torsions:
REMARK  status: ('A' for Active; 'I' for Inactive)
REMARK    1  A    between atoms: C_2  and  C_3
REMARK    2  A    between atoms: C_14  and  C_15
REMARK    3  A    between atoms: N_20  and  C_21
REMARK                            x       y       z     vdW  Elec       q    Type
REMARK                         _______ _______ _______ _____ _____    ______ ____
ROOT
ATOM      1  O   UNL     1       6.840  12.575  16.739  0.00  0.00    +0.000 OA
ATOM      2  C   UNL     1       7.521  13.242  17.508  0.00  0.00    +0.000 C 
ATOM      3  N   UNL     1       7.088  14.470  18.030  0.00  0.00    +0.000 N 
ATOM      4  C   UNL     1       7.848  15.409  18.855  0.00  0.00    +0.000 C 
ATOM      5  C   UNL     1       7.196  15.501  20.239  0.00  0.00    +0.000 C 
ATOM      6  C   UNL     1       5.728  15.932  20.115  0.00  0.00    +0.000 C 
ATOM      7  C   UNL     1       4.959  15.023  19.135  0.00  0.00    +0.000 C 
ATOM      8  C   UNL     1       5.708  14.905  17.793  0.00  0.00    +0.000 C 
ENDROOT
BRANCH   7   9
ATOM      9  C   UNL     1       3.540  15.525  18.867  0.00  0.00    +0.000 C 
ATOM     10  O   UNL     1       3.317  16.294  17.930  0.00  0.00    +0.000 OA
ATOM     11  N   UNL     1       2.525  15.073  19.690  0.00  0.00    +0.000 N 
ATOM     12  C   UNL     1       1.118  15.214  19.280  0.00  0.00    +0.000 C 
ATOM     13  C   UNL     1       0.380  13.852  19.290  0.00  0.00    +0.000 C 
ATOM     14  N   UNL     1       0.642  13.091  20.530  0.00  0.00    +0.000 N 
ATOM     15  C   UNL     1       2.051  12.989  20.939  0.00  0.00    +0.000 C 
ATOM     16  C   UNL     1       2.683  14.391  20.977  0.00  0.00    +0.000 C 
BRANCH  14  17
ATOM     17  C   UNL     1      -0.363  12.707  21.400  0.00  0.00    +0.000 A 
ATOM     18  C   UNL     1      -0.290  11.486  22.094  0.00  0.00    +0.000 A 
ATOM     19  C   UNL     1      -1.294  11.077  22.977  0.00  0.00    +0.000 A 
ATOM     20  C   UNL     1      -2.403  11.885  23.187  0.00  0.00    +0.000 A 
ATOM     21  C   UNL     1      -2.505  13.097  22.513  0.00  0.00    +0.000 A 
ATOM     22  C   UNL     1      -1.496  13.496  21.630  0.00  0.00    +0.000 A 
ENDBRANCH  14  17
ENDBRANCH   7   9
BRANCH   2  23
ATOM     23  C   UNL     1       8.848  12.682  17.903  0.00  0.00    +0.000 A 
ATOM     24  C   UNL     1       8.920  11.749  18.950  0.00  0.00    +0.000 A 
ATOM     25  C   UNL     1      10.157  11.210  19.327  0.00  0.00    +0.000 A 
ATOM     26  C   UNL     1      11.315  11.569  18.640  0.00  0.00    +0.000 A 
ATOM     27  C   UNL     1      11.236  12.512  17.628  0.00  0.00    +0.000 A 
ATOM     28  F   UNL     1      12.332  12.852  16.938  0.00  0.00    +0.000 F 
ATOM     29  C   UNL     1      10.029  13.109  17.306  0.00  0.00    +0.000 A 
ENDBRANCH   2  23
TORSDOF 3
ENDMDL
MODEL 5
REMARK VINA RESULT:      -6.5      0.890      1.287
REMARK  Name = 
REMARK  3 active torsions:
REMARK  status: ('A' for Active; 'I' for Inactive)
REMARK    1  A    between atoms: C_2  and  C_3
REMARK    2  A    between atoms: C_14  and  C_15
REMARK    3  A    between atoms: N_20  and  C_21
REMARK                            x       y       z     vdW  Elec       q    Type
REMARK                         _______ _______ _______ _____ _____    ______ ____
ROOT
ATOM      1  O   UNL     1       7.247  13.558  17.507  0.00  0.00    +0.000 OA
ATOM      2  C   UNL     1       8.123  14.109  18.161  0.00  0.00    +0.000 C 
ATOM      3  N   UNL     1       7.939  15.358  18.773  0.00  0.00    +0.000 N 
ATOM      4  C   UNL     1       8.935  16.168  19.474  0.00  0.00    +0.000 C 
ATOM      5  C   UNL     1       8.539  16.281  20.950  0.00  0.00    +0.000 C 
ATOM      6  C   UNL     1       7.135  16.886  21.086  0.00  0.00    +0.000 C 
ATOM      7  C   UNL     1       6.108  16.115  20.233  0.00  0.00    +0.000 C 
ATOM      8  C   UNL     1       6.602  15.962  18.782  0.00  0.00    +0.000 C 
ENDROOT
BRANCH   7   9
ATOM      9  C   UNL     1       4.736  16.790  20.220  0.00  0.00    +0.000 C 
ATOM     10  O   UNL     1       4.588  17.889  19.682  0.00  0.00    +0.000 OA
ATOM     11  N   UNL     1       3.677  16.123  20.807  0.00  0.00    +0.000 N 
ATOM     12  C   UNL     1       2.292  16.528  20.518  0.00  0.00    +0.000 C 
ATOM     13  C   UNL     1       1.448  15.342  19.987  0.00  0.00    +0.000 C 
ATOM     14  N   UNL     1       1.632  14.124  20.804  0.00  0.00    +0.000 N 
ATOM     15  C   UNL     1       3.023  13.755  21.109  0.00  0.00    +0.000 C 
ATOM     16  C   UNL     1       3.762  14.966  21.701  0.00  0.00    +0.000 C 
BRANCH  14  17
ATOM     17  C   UNL     1       0.588  13.499  21.462  0.00  0.00    +0.000 A 
ATOM     18  C   UNL     1      -0.182  14.190  22.415  0.00  0.00    +0.000 A 
ATOM     19  C   UNL     1      -1.241  13.579  23.094  0.00  0.00    +0.000 A 
ATOM     20  C   UNL     1      -1.555  12.251  22.833  0.00  0.00    +0.000 A 
ATOM     21  C   UNL     1      -0.811  11.541  21.899  0.00  0.00    +0.000 A 
ATOM     22  C   UNL     1       0.249  12.161  21.228  0.00  0.00    +0.000 A 
ENDBRANCH  14  17
ENDBRANCH   7   9
BRANCH   2  23
ATOM     23  C   UNL     1       9.419  13.381  18.314  0.00  0.00    +0.000 A 
ATOM     24  C   UNL     1      10.324  13.351  17.239  0.00  0.00    +0.000 A 
ATOM     25  C   UNL     1      11.546  12.677  17.370  0.00  0.00    +0.000 A 
ATOM     26  C   UNL     1      11.883  12.066  18.577  0.00  0.00    +0.000 A 
ATOM     27  C   UNL     1      10.970  12.078  19.619  0.00  0.00    +0.000 A 
ATOM     28  F   UNL     1      11.285  11.520  20.794  0.00  0.00    +0.000 F 
ATOM     29  C   UNL     1       9.728  12.671  19.468  0.00  0.00    +0.000 A 
ENDBRANCH   2  23
TORSDOF 3
ENDMDL
MODEL 6
REMARK VINA RESULT:      -6.5      1.683      2.098
REMARK  Name = 
REMARK  3 active torsions:
REMARK  status: ('A' for Active; 'I' for Inactive)
REMARK    1  A    between atoms: C_2  and  C_3
REMARK    2  A    between atoms: C_14  and  C_15
REMARK    3  A    between atoms: N_20  and  C_21
REMARK                            x       y       z     vdW  Elec       q    Type
REMARK                         _______ _______ _______ _____ _____    ______ ____
ROOT
ATOM      1  O   UNL     1       7.095  13.747  17.425  0.00  0.00    +0.000 OA
ATOM      2  C   UNL     1       7.926  14.151  18.230  0.00  0.00    +0.000 C 
ATOM      3  N   UNL     1       7.756  15.334  18.963  0.00  0.00    +0.000 N 
ATOM      4  C   UNL     1       8.717  15.979  19.858  0.00  0.00    +0.000 C 
ATOM      5  C   UNL     1       8.164  15.959  21.286  0.00  0.00    +0.000 C 
ATOM      6  C   UNL     1       6.797  16.654  21.345  0.00  0.00    +0.000 C 
ATOM      7  C   UNL     1       5.825  16.066  20.303  0.00  0.00    +0.000 C 
ATOM      8  C   UNL     1       6.470  16.037  18.904  0.00  0.00    +0.000 C 
ENDROOT
BRANCH   7   9
ATOM      9  C   UNL     1       4.512  16.845  20.226  0.00  0.00    +0.000 C 
ATOM     10  O   UNL     1       4.520  18.069  20.084  0.00  0.00    +0.000 OA
ATOM     11  N   UNL     1       3.328  16.133  20.300  0.00  0.00    +0.000 N 
ATOM     12  C   UNL     1       2.062  16.751  19.874  0.00  0.00    +0.000 C 
ATOM     13  C   UNL     1       1.345  15.903  18.795  0.00  0.00    +0.000 C 
ATOM     14  N   UNL     1       1.301  14.470  19.159  0.00  0.00    +0.000 N 
ATOM     15  C   UNL     1       2.570  13.879  19.612  0.00  0.00    +0.000 C 
ATOM     16  C   UNL     1       3.172  14.743  20.733  0.00  0.00    +0.000 C 
BRANCH  14  17
ATOM     17  C   UNL     1       0.116  13.773  19.315  0.00  0.00    +0.000 A 
ATOM     18  C   UNL     1      -0.346  12.901  18.312  0.00  0.00    +0.000 A 
ATOM     19  C   UNL     1      -1.541  12.188  18.447  0.00  0.00    +0.000 A 
ATOM     20  C   UNL     1      -2.307  12.332  19.596  0.00  0.00    +0.000 A 
ATOM     21  C   UNL     1      -1.879  13.189  20.603  0.00  0.00    +0.000 A 
ATOM     22  C   UNL     1      -0.683  13.901  20.457  0.00  0.00    +0.000 A 
ENDBRANCH  14  17
ENDBRANCH   7   9
BRANCH   2  23
ATOM     23  C   UNL     1       9.145  13.310  18.429  0.00  0.00    +0.000 A 
ATOM     24  C   UNL     1       9.201  12.425  19.519  0.00  0.00    +0.000 A 
ATOM     25  C   UNL     1      10.336  11.625  19.715  0.00  0.00    +0.000 A 
ATOM     26  C   UNL     1      11.394  11.678  18.810  0.00  0.00    +0.000 A 
ATOM     27  C   UNL     1      11.339  12.575  17.757  0.00  0.00    +0.000 A 
ATOM     28  F   UNL     1      12.333  12.623  16.861  0.00  0.00    +0.000 F 
ATOM     29  C   UNL     1      10.257  13.427  17.604  0.00  0.00    +0.000 A 
ENDBRANCH   2  23
TORSDOF 3
ENDMDL
MODEL 7
REMARK VINA RESULT:      -6.5      7.121      9.866
REMARK  Name = 
REMARK  3 active torsions:
REMARK  status: ('A' for Active; 'I' for Inactive)
REMARK    1  A    between atoms: C_2  and  C_3
REMARK    2  A    between atoms: C_14  and  C_15
REMARK    3  A    between atoms: N_20  and  C_21
REMARK                            x       y       z     vdW  Elec       q    Type
REMARK                         _______ _______ _______ _____ _____    ______ ____
ROOT
ATOM      1  O   UNL     1       1.009  14.511  22.244  0.00  0.00    +0.000 OA
ATOM      2  C   UNL     1      -0.174  14.798  22.372  0.00  0.00    +0.000 C 
ATOM      3  N   UNL     1      -1.121  14.571  21.362  0.00  0.00    +0.000 N 
ATOM      4  C   UNL     1      -2.528  14.973  21.346  0.00  0.00    +0.000 C 
ATOM      5  C   UNL     1      -3.407  13.719  21.346  0.00  0.00    +0.000 C 
ATOM      6  C   UNL     1      -3.071  12.825  20.144  0.00  0.00    +0.000 C 
ATOM      7  C   UNL     1      -1.562  12.515  20.082  0.00  0.00    +0.000 C 
ATOM      8  C   UNL     1      -0.731  13.810  20.171  0.00  0.00    +0.000 C 
ENDROOT
BRANCH   7   9
ATOM      9  C   UNL     1      -1.174  11.764  18.808  0.00  0.00    +0.000 C 
ATOM     10  O   UNL     1      -1.340  12.283  17.703  0.00  0.00    +0.000 OA
ATOM     11  N   UNL     1      -0.616  10.505  18.940  0.00  0.00    +0.000 N 
ATOM     12  C   UNL     1       0.104   9.890  17.814  0.00  0.00    +0.000 C 
ATOM     13  C   UNL     1       1.543   9.479  18.211  0.00  0.00    +0.000 C 
ATOM     14  N   UNL     1       1.576   8.755  19.500  0.00  0.00    +0.000 N 
ATOM     15  C   UNL     1       0.823   9.371  20.605  0.00  0.00    +0.000 C 
ATOM     16  C   UNL     1      -0.613   9.674  20.147  0.00  0.00    +0.000 C 
BRANCH  14  17
ATOM     17  C   UNL     1       2.057   7.464  19.622  0.00  0.00    +0.000 A 
ATOM     18  C   UNL     1       1.627   6.630  20.671  0.00  0.00    +0.000 A 
ATOM     19  C   UNL     1       2.101   5.323  20.816  0.00  0.00    +0.000 A 
ATOM     20  C   UNL     1       3.023   4.816  19.910  0.00  0.00    +0.000 A 
ATOM     21  C   UNL     1       3.469   5.617  18.864  0.00  0.00    +0.000 A 
ATOM     22  C   UNL     1       2.991   6.925  18.730  0.00  0.00    +0.000 A 
ENDBRANCH  14  17
ENDBRANCH   7   9
BRANCH   2  23
ATOM     23  C   UNL     1      -0.595  15.389  23.678  0.00  0.00    +0.000 A 
ATOM     24  C   UNL     1      -0.042  16.613  24.091  0.00  0.00    +0.000 A 
ATOM     25  C   UNL     1      -0.432  17.182  25.311  0.00  0.00    +0.000 A 
ATOM     26  C   UNL     1      -1.395  16.555  26.100  0.00  0.00    +0.000 A 
ATOM     27  C   UNL     1      -1.910  15.335  25.696  0.00  0.00    +0.000 A 
ATOM     28  F   UNL     1      -2.855  14.729  26.426  0.00  0.00    +0.000 F 
ATOM     29  C   UNL     1      -1.469  14.727  24.533  0.00  0.00    +0.000 A 
ENDBRANCH   2  23
TORSDOF 3
ENDMDL
MODEL 8
REMARK VINA RESULT:      -6.5      7.497      9.009
REMARK  Name = 
REMARK  3 active torsions:
REMARK  status: ('A' for Active; 'I' for Inactive)
REMARK    1  A    between atoms: C_2  and  C_3
REMARK    2  A    between atoms: C_14  and  C_15
REMARK    3  A    between atoms: N_20  and  C_21
REMARK                            x       y       z     vdW  Elec       q    Type
REMARK                         _______ _______ _______ _____ _____    ______ ____
ROOT
ATOM      1  O   UNL     1       5.186   7.120  15.937  0.00  0.00    +0.000 OA
ATOM      2  C   UNL     1       5.380   5.914  16.019  0.00  0.00    +0.000 C 
ATOM      3  N   UNL     1       5.081   5.176  17.174  0.00  0.00    +0.000 N 
ATOM      4  C   UNL     1       5.374   3.766  17.437  0.00  0.00    +0.000 C 
ATOM      5  C   UNL     1       4.055   2.998  17.573  0.00  0.00    +0.000 C 
ATOM      6  C   UNL     1       3.191   3.604  18.687  0.00  0.00    +0.000 C 
ATOM      7  C   UNL     1       2.999   5.121  18.484  0.00  0.00    +0.000 C 
ATOM      8  C   UNL     1       4.353   5.822  18.270  0.00  0.00    +0.000 C 
ENDROOT
BRANCH   7   9
ATOM      9  C   UNL     1       2.280   5.779  19.662  0.00  0.00    +0.000 C 
ATOM     10  O   UNL     1       2.288   5.247  20.774  0.00  0.00    +0.000 OA
ATOM     11  N   UNL     1       1.647   6.989  19.444  0.00  0.00    +0.000 N 
ATOM     12  C   UNL     1       1.262   7.842  20.580  0.00  0.00    +0.000 C 
ATOM     13  C   UNL     1       1.858   9.266  20.455  0.00  0.00    +0.000 C 
ATOM     14  N   UNL     1       1.665   9.829  19.101  0.00  0.00    +0.000 N 
ATOM     15  C   UNL     1       2.027   8.949  17.979  0.00  0.00    +0.000 C 
ATOM     16  C   UNL     1       1.332   7.587  18.144  0.00  0.00    +0.000 C 
BRANCH  14  17
ATOM     17  C   UNL     1       0.961  10.996  18.869  0.00  0.00    +0.000 A 
ATOM     18  C   UNL     1       1.625  12.233  18.775  0.00  0.00    +0.000 A 
ATOM     19  C   UNL     1       0.934  13.426  18.542  0.00  0.00    +0.000 A 
ATOM     20  C   UNL     1      -0.447  13.410  18.397  0.00  0.00    +0.000 A 
ATOM     21  C   UNL     1      -1.131  12.203  18.487  0.00  0.00    +0.000 A 
ATOM     22  C   UNL     1      -0.431  11.015  18.724  0.00  0.00    +0.000 A 
ENDBRANCH  14  17
ENDBRANCH   7   9
BRANCH   2  23
ATOM     23  C   UNL     1       5.936   5.230  14.812  0.00  0.00    +0.000 A 
ATOM     24  C   UNL     1       5.195   4.209  14.195  0.00  0.00    +0.000 A 
ATOM     25  C   UNL     1       5.700   3.564  13.058  0.00  0.00    +0.000 A 
ATOM     26  C   UNL     1       6.922   3.958  12.515  0.00  0.00    +0.000 A 
ATOM     27  C   UNL     1       7.657   4.945  13.149  0.00  0.00    +0.000 A 
ATOM     28  F   UNL     1       8.820   5.356  12.629  0.00  0.00    +0.000 F 
ATOM     29  C   UNL     1       7.201   5.530  14.319  0.00  0.00    +0.000 A 
ENDBRANCH   2  23
TORSDOF 3
ENDMDL
MODEL 9
REMARK VINA RESULT:      -6.5      6.098      8.177
REMARK  Name = 
REMARK  3 active torsions:
REMARK  status: ('A' for Active; 'I' for Inactive)
REMARK    1  A    between atoms: C_2  and  C_3
REMARK    2  A    between atoms: C_14  and  C_15
REMARK    3  A    between atoms: N_20  and  C_21
REMARK                            x       y       z     vdW  Elec       q    Type
REMARK                         _______ _______ _______ _____ _____    ______ ____
ROOT
ATOM      1  O   UNL     1       1.459  10.389  18.802  0.00  0.00    +0.000 OA
ATOM      2  C   UNL     1       1.445   9.634  19.767  0.00  0.00    +0.000 C 
ATOM      3  N   UNL     1       1.088  10.060  21.055  0.00  0.00    +0.000 N 
ATOM      4  C   UNL     1       1.145   9.293  22.300  0.00  0.00    +0.000 C 
ATOM      5  C   UNL     1      -0.277   9.102  22.836  0.00  0.00    +0.000 C 
ATOM      6  C   UNL     1      -0.959  10.460  23.051  0.00  0.00    +0.000 C 
ATOM      7  C   UNL     1      -0.896  11.325  21.777  0.00  0.00    +0.000 C 
ATOM      8  C   UNL     1       0.546  11.410  21.241  0.00  0.00    +0.000 C 
ENDROOT
BRANCH   7   9
ATOM      9  C   UNL     1      -1.422  12.742  22.009  0.00  0.00    +0.000 C 
ATOM     10  O   UNL     1      -2.003  13.028  23.057  0.00  0.00    +0.000 OA
ATOM     11  N   UNL     1      -1.206  13.686  21.020  0.00  0.00    +0.000 N 
ATOM     12  C   UNL     1      -1.350  15.120  21.319  0.00  0.00    +0.000 C 
ATOM     13  C   UNL     1      -0.066  15.910  20.965  0.00  0.00    +0.000 C 
ATOM     14  N   UNL     1       0.449  15.555  19.625  0.00  0.00    +0.000 N 
ATOM     15  C   UNL     1       0.556  14.116  19.336  0.00  0.00    +0.000 C 
ATOM     16  C   UNL     1      -0.783  13.425  19.643  0.00  0.00    +0.000 C 
BRANCH  14  17
ATOM     17  C   UNL     1       0.590  16.480  18.607  0.00  0.00    +0.000 A 
ATOM     18  C   UNL     1      -0.525  17.176  18.105  0.00  0.00    +0.000 A 
ATOM     19  C   UNL     1      -0.407  18.114  17.075  0.00  0.00    +0.000 A 
ATOM     20  C   UNL     1       0.837  18.378  16.518  0.00  0.00    +0.000 A 
ATOM     21  C   UNL     1       1.957  17.704  16.990  0.00  0.00    +0.000 A 
ATOM     22  C   UNL     1       1.828  16.765  18.019  0.00  0.00    +0.000 A 
ENDBRANCH  14  17
ENDBRANCH   7   9
BRANCH   2  23
ATOM     23  C   UNL     1       1.805   8.206  19.519  0.00  0.00    +0.000 A 
ATOM     24  C   UNL     1       2.324   7.832  18.269  0.00  0.00    +0.000 A 
ATOM     25  C   UNL     1       2.672   6.497  18.024  0.00  0.00    +0.000 A 
ATOM     26  C   UNL     1       2.539   5.543  19.032  0.00  0.00    +0.000 A 
ATOM     27  C   UNL     1       1.999   5.918  20.250  0.00  0.00    +0.000 A 
ATOM     28  F   UNL     1       1.887   5.023  21.240  0.00  0.00    +0.000 F 
ATOM     29  C   UNL     1       1.577   7.218  20.471  0.00  0.00    +0.000 A 
ENDBRANCH   2  23
TORSDOF 3
ENDMDL
