MODEL 1
REMARK VINA RESULT:      -7.1      0.000      0.000
REMARK  Name = 
REMARK  8 active torsions:
REMARK  status: ('A' for Active; 'I' for Inactive)
REMARK    1  A    between atoms: C_1  and  N_2
REMARK    2  A    between atoms: N_2  and  C_3
REMARK    3  A    between atoms: N_2  and  C_4
REMARK    4  A    between atoms: C_4  and  C_5
REMARK    5  A    between atoms: C_5  and  C_6
REMARK    6  A    between atoms: C_6  and  O_7
REMARK    7  A    between atoms: O_7  and  C_8
REMARK    8  A    between atoms: C_13  and  C_14
REMARK                            x       y       z     vdW  Elec       q    Type
REMARK                         _______ _______ _______ _____ _____    ______ ____
ROOT
ATOM      1  C   UNL     1       2.338   7.113  19.613  0.00  0.00    +0.000 A 
ATOM      2  C   UNL     1       1.432   8.027  20.192  0.00  0.00    +0.000 A 
ATOM      3  C   UNL     1       1.059   9.201  19.536  0.00  0.00    +0.000 A 
ATOM      4  C   UNL     1       1.590   9.494  18.291  0.00  0.00    +0.000 A 
ATOM      5  C   UNL     1       2.489   8.608  17.702  0.00  0.00    +0.000 A 
ATOM      6  C   UNL     1       2.870   7.408  18.342  0.00  0.00    +0.000 A 
ENDROOT
BRANCH   6   7
ATOM      7  C   UNL     1       3.790   6.506  17.588  0.00  0.00    +0.000 A 
ATOM      8  N   UNL     1       3.616   5.225  17.379  0.00  0.00    +0.000 NA
ATOM      9  C   UNL     1       4.676   4.887  16.596  0.00  0.00    +0.000 A 
ATOM     10  C   UNL     1       5.055   3.753  15.995  0.00  0.00    +0.000 A 
ATOM     11  C   UNL     1       6.255   3.738  15.151  0.00  0.00    +0.000 A 
ATOM     12  C   UNL     1       6.985   4.861  14.995  0.00  0.00    +0.000 A 
ATOM     13  N   UNL     1       6.635   6.039  15.617  0.00  0.00    +0.000 N 
ATOM     14  C   UNL     1       5.502   6.090  16.383  0.00  0.00    +0.000 A 
ATOM     15  N   UNL     1       4.941   7.075  17.012  0.00  0.00    +0.000 NA
ATOM     16  H   UNL     1       7.166   6.881  15.450  0.00  0.00    +0.000 HD
ENDBRANCH   6   7
BRANCH   1  17
ATOM     17  O   UNL     1       2.711   5.950  20.249  0.00  0.00    +0.000 OA
BRANCH  17  18
ATOM     18  C   UNL     1       1.658   5.223  20.894  0.00  0.00    +0.000 C 
BRANCH  18  19
ATOM     19  C   UNL     1       1.172   4.072  20.019  0.00  0.00    +0.000 C 
BRANCH  19  20
ATOM     20  C   UNL     1       1.771   2.731  20.479  0.00  0.00    +0.000 C 
BRANCH  20  22
ATOM     21  C   UNL     1       2.077   2.323  18.096  0.00  0.00    +0.000 C 
ATOM     22  N   UNL     1       2.555   2.024  19.448  0.00  0.00    +0.000 NA
ATOM     23  C   UNL     1       3.975   2.370  19.558  0.00  0.00    +0.000 C 
ENDBRANCH  20  22
ENDBRANCH  19  20
ENDBRANCH  18  19
ENDBRANCH  17  18
ENDBRANCH   1  17
TORSDOF 6
ENDMDL
MODEL 2
REMARK VINA RESULT:      -6.9      2.079      5.941
REMARK  Name = 
REMARK  8 active torsions:
REMARK  status: ('A' for Active; 'I' for Inactive)
REMARK    1  A    between atoms: C_1  and  N_2
REMARK    2  A    between atoms: N_2  and  C_3
REMARK    3  A    between atoms: N_2  and  C_4
REMARK    4  A    between atoms: C_4  and  C_5
REMARK    5  A    between atoms: C_5  and  C_6
REMARK    6  A    between atoms: C_6  and  O_7
REMARK    7  A    between atoms: O_7  and  C_8
REMARK    8  A    between atoms: C_13  and  C_14
REMARK                            x       y       z     vdW  Elec       q    Type
REMARK                         _______ _______ _______ _____ _____    ______ ____
ROOT
ATOM      1  C   UNL     1       4.092   4.504  19.071  0.00  0.00    +0.000 A 
ATOM      2  C   UNL     1       4.348   3.140  18.816  0.00  0.00    +0.000 A 
ATOM      3  C   UNL     1       3.441   2.345  18.115  0.00  0.00    +0.000 A 
ATOM      4  C   UNL     1       2.251   2.890  17.663  0.00  0.00    +0.000 A 
ATOM      5  C   UNL     1       1.976   4.235  17.907  0.00  0.00    +0.000 A 
ATOM      6  C   UNL     1       2.886   5.060  18.602  0.00  0.00    +0.000 A 
ENDROOT
BRANCH   6   7
ATOM      7  C   UNL     1       2.512   6.498  18.749  0.00  0.00    +0.000 A 
ATOM      8  N   UNL     1       2.611   7.420  17.824  0.00  0.00    +0.000 NA
ATOM      9  C   UNL     1       2.087   8.524  18.422  0.00  0.00    +0.000 A 
ATOM     10  C   UNL     1       1.847   9.774  18.007  0.00  0.00    +0.000 A 
ATOM     11  C   UNL     1       1.203  10.733  18.909  0.00  0.00    +0.000 A 
ATOM     12  C   UNL     1       0.869  10.363  20.162  0.00  0.00    +0.000 A 
ATOM     13  N   UNL     1       1.121   9.092  20.629  0.00  0.00    +0.000 N 
ATOM     14  C   UNL     1       1.692   8.166  19.797  0.00  0.00    +0.000 A 
ATOM     15  N   UNL     1       1.972   6.914  19.980  0.00  0.00    +0.000 NA
ATOM     16  H   UNL     1       0.821   8.819  21.553  0.00  0.00    +0.000 HD
ENDBRANCH   6   7
BRANCH   1  17
ATOM     17  O   UNL     1       4.982   5.300  19.758  0.00  0.00    +0.000 OA
BRANCH  17  18
ATOM     18  C   UNL     1       6.302   5.383  19.208  0.00  0.00    +0.000 C 
BRANCH  18  19
ATOM     19  C   UNL     1       6.321   6.257  17.959  0.00  0.00    +0.000 C 
BRANCH  19  20
ATOM     20  C   UNL     1       7.205   5.641  16.860  0.00  0.00    +0.000 C 
BRANCH  20  22
ATOM     21  C   UNL     1       6.679   4.343  14.866  0.00  0.00    +0.000 C 
ATOM     22  N   UNL     1       6.608   5.657  15.511  0.00  0.00    +0.000 NA
ATOM     23  C   UNL     1       5.214   6.103  15.574  0.00  0.00    +0.000 C 
ENDBRANCH  20  22
ENDBRANCH  19  20
ENDBRANCH  18  19
ENDBRANCH  17  18
ENDBRANCH   1  17
TORSDOF 6
ENDMDL
MODEL 3
REMARK VINA RESULT:      -6.9      1.710      5.194
REMARK  Name = 
REMARK  8 active torsions:
REMARK  status: ('A' for Active; 'I' for Inactive)
REMARK    1  A    between atoms: C_1  and  N_2
REMARK    2  A    between atoms: N_2  and  C_3
REMARK    3  A    between atoms: N_2  and  C_4
REMARK    4  A    between atoms: C_4  and  C_5
REMARK    5  A    between atoms: C_5  and  C_6
REMARK    6  A    between atoms: C_6  and  O_7
REMARK    7  A    between atoms: O_7  and  C_8
REMARK    8  A    between atoms: C_13  and  C_14
REMARK                            x       y       z     vdW  Elec       q    Type
REMARK                         _______ _______ _______ _____ _____    ______ ____
ROOT
ATOM      1  C   UNL     1       4.434   4.603  16.898  0.00  0.00    +0.000 A 
ATOM      2  C   UNL     1       5.515   3.974  16.245  0.00  0.00    +0.000 A 
ATOM      3  C   UNL     1       6.747   4.612  16.091  0.00  0.00    +0.000 A 
ATOM      4  C   UNL     1       6.924   5.897  16.576  0.00  0.00    +0.000 A 
ATOM      5  C   UNL     1       5.868   6.539  17.220  0.00  0.00    +0.000 A 
ATOM      6  C   UNL     1       4.618   5.907  17.399  0.00  0.00    +0.000 A 
ENDROOT
BRANCH   6   7
ATOM      7  C   UNL     1       3.582   6.667  18.160  0.00  0.00    +0.000 A 
ATOM      8  N   UNL     1       3.149   6.388  19.364  0.00  0.00    +0.000 NA
ATOM      9  C   UNL     1       2.279   7.401  19.628  0.00  0.00    +0.000 A 
ATOM     10  C   UNL     1       1.547   7.733  20.697  0.00  0.00    +0.000 A 
ATOM     11  C   UNL     1       0.733   8.954  20.676  0.00  0.00    +0.000 A 
ATOM     12  C   UNL     1       0.709   9.730  19.573  0.00  0.00    +0.000 A 
ATOM     13  N   UNL     1       1.434   9.405  18.448  0.00  0.00    +0.000 N 
ATOM     14  C   UNL     1       2.228   8.290  18.452  0.00  0.00    +0.000 A 
ATOM     15  N   UNL     1       3.032   7.812  17.555  0.00  0.00    +0.000 NA
ATOM     16  H   UNL     1       1.441  10.023  17.650  0.00  0.00    +0.000 HD
ENDBRANCH   6   7
BRANCH   1  17
ATOM     17  O   UNL     1       3.215   3.982  17.059  0.00  0.00    +0.000 OA
BRANCH  17  18
ATOM     18  C   UNL     1       3.261   2.606  17.454  0.00  0.00    +0.000 C 
BRANCH  18  19
ATOM     19  C   UNL     1       3.208   2.470  18.972  0.00  0.00    +0.000 C 
BRANCH  19  20
ATOM     20  C   UNL     1       1.822   1.993  19.442  0.00  0.00    +0.000 C 
BRANCH  20  22
ATOM     21  C   UNL     1       2.311   2.770  21.698  0.00  0.00    +0.000 C 
ATOM     22  N   UNL     1       1.306   2.688  20.636  0.00  0.00    +0.000 NA
ATOM     23  C   UNL     1       0.845   4.034  20.286  0.00  0.00    +0.000 C 
ENDBRANCH  20  22
ENDBRANCH  19  20
ENDBRANCH  18  19
ENDBRANCH  17  18
ENDBRANCH   1  17
TORSDOF 6
ENDMDL
MODEL 4
REMARK VINA RESULT:      -6.8      1.687      4.669
REMARK  Name = 
REMARK  8 active torsions:
REMARK  status: ('A' for Active; 'I' for Inactive)
REMARK    1  A    between atoms: C_1  and  N_2
REMARK    2  A    between atoms: N_2  and  C_3
REMARK    3  A    between atoms: N_2  and  C_4
REMARK    4  A    between atoms: C_4  and  C_5
REMARK    5  A    between atoms: C_5  and  C_6
REMARK    6  A    between atoms: C_6  and  O_7
REMARK    7  A    between atoms: O_7  and  C_8
REMARK    8  A    between atoms: C_13  and  C_14
REMARK                            x       y       z     vdW  Elec       q    Type
REMARK                         _______ _______ _______ _____ _____    ______ ____
ROOT
ATOM      1  C   UNL     1       2.733   5.036  19.856  0.00  0.00    +0.000 A 
ATOM      2  C   UNL     1       1.851   4.769  20.924  0.00  0.00    +0.000 A 
ATOM      3  C   UNL     1       1.364   3.484  21.165  0.00  0.00    +0.000 A 
ATOM      4  C   UNL     1       1.735   2.438  20.337  0.00  0.00    +0.000 A 
ATOM      5  C   UNL     1       2.601   2.680  19.272  0.00  0.00    +0.000 A 
ATOM      6  C   UNL     1       3.117   3.970  19.019  0.00  0.00    +0.000 A 
ENDROOT
BRANCH   6   7
ATOM      7  C   UNL     1       4.086   4.097  17.890  0.00  0.00    +0.000 A 
ATOM      8  N   UNL     1       3.808   3.974  16.616  0.00  0.00    +0.000 NA
ATOM      9  C   UNL     1       4.995   4.243  16.007  0.00  0.00    +0.000 A 
ATOM     10  C   UNL     1       5.376   4.339  14.728  0.00  0.00    +0.000 A 
ATOM     11  C   UNL     1       6.756   4.711  14.402  0.00  0.00    +0.000 A 
ATOM     12  C   UNL     1       7.646   4.940  15.389  0.00  0.00    +0.000 A 
ATOM     13  N   UNL     1       7.292   4.830  16.716  0.00  0.00    +0.000 N 
ATOM     14  C   UNL     1       6.002   4.516  17.049  0.00  0.00    +0.000 A 
ATOM     15  N   UNL     1       5.422   4.410  18.204  0.00  0.00    +0.000 NA
ATOM     16  H   UNL     1       7.959   5.051  17.441  0.00  0.00    +0.000 HD
ENDBRANCH   6   7
BRANCH   1  17
ATOM     17  O   UNL     1       3.224   6.300  19.610  0.00  0.00    +0.000 OA
BRANCH  17  18
ATOM     18  C   UNL     1       2.243   7.320  19.385  0.00  0.00    +0.000 C 
BRANCH  18  19
ATOM     19  C   UNL     1       2.374   7.904  17.982  0.00  0.00    +0.000 C 
BRANCH  19  20
ATOM     20  C   UNL     1       1.915   9.374  17.946  0.00  0.00    +0.000 C 
BRANCH  20  22
ATOM     21  C   UNL     1       1.037  10.826  19.694  0.00  0.00    +0.000 C 
ATOM     22  N   UNL     1       0.769   9.680  18.822  0.00  0.00    +0.000 NA
ATOM     23  C   UNL     1      -0.432   9.938  18.022  0.00  0.00    +0.000 C 
ENDBRANCH  20  22
ENDBRANCH  19  20
ENDBRANCH  18  19
ENDBRANCH  17  18
ENDBRANCH   1  17
TORSDOF 6
ENDMDL
MODEL 5
REMARK VINA RESULT:      -6.8      1.766      5.190
REMARK  Name = 
REMARK  8 active torsions:
REMARK  status: ('A' for Active; 'I' for Inactive)
REMARK    1  A    between atoms: C_1  and  N_2
REMARK    2  A    between atoms: N_2  and  C_3
REMARK    3  A    between atoms: N_2  and  C_4
REMARK    4  A    between atoms: C_4  and  C_5
REMARK    5  A    between atoms: C_5  and  C_6
REMARK    6  A    between atoms: C_6  and  O_7
REMARK    7  A    between atoms: O_7  and  C_8
REMARK    8  A    between atoms: C_13  and  C_14
REMARK                            x       y       z     vdW  Elec       q    Type
REMARK                         _______ _______ _______ _____ _____    ______ ____
ROOT
ATOM      1  C   UNL     1       4.019   4.869  17.235  0.00  0.00    +0.000 A 
ATOM      2  C   UNL     1       5.083   4.103  16.713  0.00  0.00    +0.000 A 
ATOM      3  C   UNL     1       6.317   4.678  16.409  0.00  0.00    +0.000 A 
ATOM      4  C   UNL     1       6.515   6.034  16.609  0.00  0.00    +0.000 A 
ATOM      5  C   UNL     1       5.477   6.811  17.120  0.00  0.00    +0.000 A 
ATOM      6  C   UNL     1       4.224   6.247  17.447  0.00  0.00    +0.000 A 
ENDROOT
BRANCH   6   7
ATOM      7  C   UNL     1       3.210   7.163  18.046  0.00  0.00    +0.000 A 
ATOM      8  N   UNL     1       2.741   7.103  19.268  0.00  0.00    +0.000 NA
ATOM      9  C   UNL     1       1.913   8.181  19.341  0.00  0.00    +0.000 A 
ATOM     10  C   UNL     1       1.176   8.714  20.322  0.00  0.00    +0.000 A 
ATOM     11  C   UNL     1       0.420   9.948  20.082  0.00  0.00    +0.000 A 
ATOM     12  C   UNL     1       0.453  10.534  18.867  0.00  0.00    +0.000 A 
ATOM     13  N   UNL     1       1.184  10.000  17.830  0.00  0.00    +0.000 N 
ATOM     14  C   UNL     1       1.925   8.868  18.036  0.00  0.00    +0.000 A 
ATOM     15  N   UNL     1       2.725   8.217  17.250  0.00  0.00    +0.000 NA
ATOM     16  H   UNL     1       1.234  10.478  16.942  0.00  0.00    +0.000 HD
ENDBRANCH   6   7
BRANCH   1  17
ATOM     17  O   UNL     1       2.798   4.312  17.543  0.00  0.00    +0.000 OA
BRANCH  17  18
ATOM     18  C   UNL     1       2.628   2.936  17.183  0.00  0.00    +0.000 C 
BRANCH  18  19
ATOM     19  C   UNL     1       2.698   2.036  18.412  0.00  0.00    +0.000 C 
BRANCH  19  20
ATOM     20  C   UNL     1       1.516   2.299  19.363  0.00  0.00    +0.000 C 
BRANCH  20  22
ATOM     21  C   UNL     1       0.991   4.406  20.466  0.00  0.00    +0.000 C 
ATOM     22  N   UNL     1       1.823   3.201  20.489  0.00  0.00    +0.000 NA
ATOM     23  C   UNL     1       1.648   2.504  21.766  0.00  0.00    +0.000 C 
ENDBRANCH  20  22
ENDBRANCH  19  20
ENDBRANCH  18  19
ENDBRANCH  17  18
ENDBRANCH   1  17
TORSDOF 6
ENDMDL
MODEL 6
REMARK VINA RESULT:      -6.7      2.801      6.065
REMARK  Name = 
REMARK  8 active torsions:
REMARK  status: ('A' for Active; 'I' for Inactive)
REMARK    1  A    between atoms: C_1  and  N_2
REMARK    2  A    between atoms: N_2  and  C_3
REMARK    3  A    between atoms: N_2  and  C_4
REMARK    4  A    between atoms: C_4  and  C_5
REMARK    5  A    between atoms: C_5  and  C_6
REMARK    6  A    between atoms: C_6  and  O_7
REMARK    7  A    between atoms: O_7  and  C_8
REMARK    8  A    between atoms: C_13  and  C_14
REMARK                            x       y       z     vdW  Elec       q    Type
REMARK                         _______ _______ _______ _____ _____    ______ ____
ROOT
ATOM      1  C   UNL     1       5.898   6.383  17.506  0.00  0.00    +0.000 A 
ATOM      2  C   UNL     1       7.152   7.010  17.354  0.00  0.00    +0.000 A 
ATOM      3  C   UNL     1       8.166   6.857  18.301  0.00  0.00    +0.000 A 
ATOM      4  C   UNL     1       7.946   6.083  19.427  0.00  0.00    +0.000 A 
ATOM      5  C   UNL     1       6.713   5.457  19.601  0.00  0.00    +0.000 A 
ATOM      6  C   UNL     1       5.678   5.588  18.649  0.00  0.00    +0.000 A 
ENDROOT
BRANCH   6   7
ATOM      7  C   UNL     1       4.424   4.822  18.909  0.00  0.00    +0.000 A 
ATOM      8  N   UNL     1       3.404   5.228  19.623  0.00  0.00    +0.000 NA
ATOM      9  C   UNL     1       2.506   4.214  19.496  0.00  0.00    +0.000 A 
ATOM     10  C   UNL     1       1.254   4.029  19.930  0.00  0.00    +0.000 A 
ATOM     11  C   UNL     1       0.523   2.813  19.560  0.00  0.00    +0.000 A 
ATOM     12  C   UNL     1       1.118   1.873  18.797  0.00  0.00    +0.000 A 
ATOM     13  N   UNL     1       2.412   2.021  18.352  0.00  0.00    +0.000 N 
ATOM     14  C   UNL     1       3.107   3.162  18.655  0.00  0.00    +0.000 A 
ATOM     15  N   UNL     1       4.294   3.554  18.312  0.00  0.00    +0.000 NA
ATOM     16  H   UNL     1       2.825   1.330  17.743  0.00  0.00    +0.000 HD
ENDBRANCH   6   7
BRANCH   1  17
ATOM     17  O   UNL     1       4.891   6.524  16.577  0.00  0.00    +0.000 OA
BRANCH  17  18
ATOM     18  C   UNL     1       5.189   6.057  15.256  0.00  0.00    +0.000 C 
BRANCH  18  19
ATOM     19  C   UNL     1       5.270   4.535  15.218  0.00  0.00    +0.000 C 
BRANCH  19  20
ATOM     20  C   UNL     1       6.504   4.061  14.429  0.00  0.00    +0.000 C 
BRANCH  20  22
ATOM     21  C   UNL     1       7.696   5.007  12.526  0.00  0.00    +0.000 C 
ATOM     22  N   UNL     1       6.463   4.364  12.986  0.00  0.00    +0.000 NA
ATOM     23  C   UNL     1       6.225   3.142  12.213  0.00  0.00    +0.000 C 
ENDBRANCH  20  22
ENDBRANCH  19  20
ENDBRANCH  18  19
ENDBRANCH  17  18
ENDBRANCH   1  17
TORSDOF 6
ENDMDL
MODEL 7
REMARK VINA RESULT:      -6.7      2.215      4.971
REMARK  Name = 
REMARK  8 active torsions:
REMARK  status: ('A' for Active; 'I' for Inactive)
REMARK    1  A    between atoms: C_1  and  N_2
REMARK    2  A    between atoms: N_2  and  C_3
REMARK    3  A    between atoms: N_2  and  C_4
REMARK    4  A    between atoms: C_4  and  C_5
REMARK    5  A    between atoms: C_5  and  C_6
REMARK    6  A    between atoms: C_6  and  O_7
REMARK    7  A    between atoms: O_7  and  C_8
REMARK    8  A    between atoms: C_13  and  C_14
REMARK                            x       y       z     vdW  Elec       q    Type
REMARK                         _______ _______ _______ _____ _____    ______ ____
ROOT
ATOM      1  C   UNL     1       1.981   4.424  19.996  0.00  0.00    +0.000 A 
ATOM      2  C   UNL     1       0.850   3.612  20.227  0.00  0.00    +0.000 A 
ATOM      3  C   UNL     1       0.557   2.519  19.411  0.00  0.00    +0.000 A 
ATOM      4  C   UNL     1       1.379   2.218  18.338  0.00  0.00    +0.000 A 
ATOM      5  C   UNL     1       2.500   3.010  18.089  0.00  0.00    +0.000 A 
ATOM      6  C   UNL     1       2.822   4.112  18.910  0.00  0.00    +0.000 A 
ENDROOT
BRANCH   6   7
ATOM      7  C   UNL     1       4.080   4.847  18.584  0.00  0.00    +0.000 A 
ATOM      8  N   UNL     1       4.232   5.734  17.633  0.00  0.00    +0.000 NA
ATOM      9  C   UNL     1       5.518   6.151  17.794  0.00  0.00    +0.000 A 
ATOM     10  C   UNL     1       6.271   7.075  17.187  0.00  0.00    +0.000 A 
ATOM     11  C   UNL     1       7.640   7.324  17.651  0.00  0.00    +0.000 A 
ATOM     12  C   UNL     1       8.145   6.609  18.678  0.00  0.00    +0.000 A 
ATOM     13  N   UNL     1       7.404   5.636  19.310  0.00  0.00    +0.000 N 
ATOM     14  C   UNL     1       6.112   5.406  18.919  0.00  0.00    +0.000 A 
ATOM     15  N   UNL     1       5.210   4.600  19.385  0.00  0.00    +0.000 NA
ATOM     16  H   UNL     1       7.782   5.144  20.107  0.00  0.00    +0.000 HD
ENDBRANCH   6   7
BRANCH   1  17
ATOM     17  O   UNL     1       2.283   5.503  20.797  0.00  0.00    +0.000 OA
BRANCH  17  18
ATOM     18  C   UNL     1       1.308   6.552  20.828  0.00  0.00    +0.000 C 
BRANCH  18  19
ATOM     19  C   UNL     1       1.835   7.811  20.148  0.00  0.00    +0.000 C 
BRANCH  19  20
ATOM     20  C   UNL     1       0.983   9.041  20.513  0.00  0.00    +0.000 C 
BRANCH  20  22
ATOM     21  C   UNL     1       0.215   9.998  18.408  0.00  0.00    +0.000 C 
ATOM     22  N   UNL     1       1.095  10.167  19.567  0.00  0.00    +0.000 NA
ATOM     23  C   UNL     1       0.790  11.433  20.240  0.00  0.00    +0.000 C 
ENDBRANCH  20  22
ENDBRANCH  19  20
ENDBRANCH  18  19
ENDBRANCH  17  18
ENDBRANCH   1  17
TORSDOF 6
ENDMDL
MODEL 8
REMARK VINA RESULT:      -6.7      1.711      5.304
REMARK  Name = 
REMARK  8 active torsions:
REMARK  status: ('A' for Active; 'I' for Inactive)
REMARK    1  A    between atoms: C_1  and  N_2
REMARK    2  A    between atoms: N_2  and  C_3
REMARK    3  A    between atoms: N_2  and  C_4
REMARK    4  A    between atoms: C_4  and  C_5
REMARK    5  A    between atoms: C_5  and  C_6
REMARK    6  A    between atoms: C_6  and  O_7
REMARK    7  A    between atoms: O_7  and  C_8
REMARK    8  A    between atoms: C_13  and  C_14
REMARK                            x       y       z     vdW  Elec       q    Type
REMARK                         _______ _______ _______ _____ _____    ______ ____
ROOT
ATOM      1  C   UNL     1       4.081   4.566  16.986  0.00  0.00    +0.000 A 
ATOM      2  C   UNL     1       5.046   3.835  16.261  0.00  0.00    +0.000 A 
ATOM      3  C   UNL     1       6.242   4.418  15.842  0.00  0.00    +0.000 A 
ATOM      4  C   UNL     1       6.497   5.749  16.127  0.00  0.00    +0.000 A 
ATOM      5  C   UNL     1       5.556   6.492  16.838  0.00  0.00    +0.000 A 
ATOM      6  C   UNL     1       4.346   5.918  17.283  0.00  0.00    +0.000 A 
ENDROOT
BRANCH   6   7
ATOM      7  C   UNL     1       3.444   6.791  18.090  0.00  0.00    +0.000 A 
ATOM      8  N   UNL     1       2.898   7.913  17.694  0.00  0.00    +0.000 NA
ATOM      9  C   UNL     1       2.124   8.278  18.752  0.00  0.00    +0.000 A 
ATOM     10  C   UNL     1       1.274   9.289  18.970  0.00  0.00    +0.000 A 
ATOM     11  C   UNL     1       0.535   9.364  20.234  0.00  0.00    +0.000 A 
ATOM     12  C   UNL     1       0.724   8.425  21.184  0.00  0.00    +0.000 A 
ATOM     13  N   UNL     1       1.607   7.384  21.001  0.00  0.00    +0.000 N 
ATOM     14  C   UNL     1       2.286   7.272  19.817  0.00  0.00    +0.000 A 
ATOM     15  N   UNL     1       3.112   6.368  19.391  0.00  0.00    +0.000 NA
ATOM     16  H   UNL     1       1.700   6.665  21.704  0.00  0.00    +0.000 HD
ENDBRANCH   6   7
BRANCH   1  17
ATOM     17  O   UNL     1       2.898   4.000  17.408  0.00  0.00    +0.000 OA
BRANCH  17  18
ATOM     18  C   UNL     1       2.758   2.593  17.173  0.00  0.00    +0.000 C 
BRANCH  18  19
ATOM     19  C   UNL     1       2.993   1.798  18.452  0.00  0.00    +0.000 C 
BRANCH  19  20
ATOM     20  C   UNL     1       3.104   2.728  19.674  0.00  0.00    +0.000 C 
BRANCH  20  22
ATOM     21  C   UNL     1       2.211   3.398  21.840  0.00  0.00    +0.000 C 
ATOM     22  N   UNL     1       1.950   2.677  20.591  0.00  0.00    +0.000 NA
ATOM     23  C   UNL     1       0.757   3.226  19.943  0.00  0.00    +0.000 C 
ENDBRANCH  20  22
ENDBRANCH  19  20
ENDBRANCH  18  19
ENDBRANCH  17  18
ENDBRANCH   1  17
TORSDOF 6
ENDMDL
MODEL 9
REMARK VINA RESULT:      -6.6      2.268      5.746
REMARK  Name = 
REMARK  8 active torsions:
REMARK  status: ('A' for Active; 'I' for Inactive)
REMARK    1  A    between atoms: C_1  and  N_2
REMARK    2  A    between atoms: N_2  and  C_3
REMARK    3  A    between atoms: N_2  and  C_4
REMARK    4  A    between atoms: C_4  and  C_5
REMARK    5  A    between atoms: C_5  and  C_6
REMARK    6  A    between atoms: C_6  and  O_7
REMARK    7  A    between atoms: O_7  and  C_8
REMARK    8  A    between atoms: C_13  and  C_14
REMARK                            x       y       z     vdW  Elec       q    Type
REMARK                         _______ _______ _______ _____ _____    ______ ____
ROOT
ATOM      1  C   UNL     1       5.484   6.746  17.568  0.00  0.00    +0.000 A 
ATOM      2  C   UNL     1       6.707   7.388  17.281  0.00  0.00    +0.000 A 
ATOM      3  C   UNL     1       7.885   7.046  17.945  0.00  0.00    +0.000 A 
ATOM      4  C   UNL     1       7.867   6.062  18.919  0.00  0.00    +0.000 A 
ATOM      5  C   UNL     1       6.669   5.417  19.222  0.00  0.00    +0.000 A 
ATOM      6  C   UNL     1       5.468   5.739  18.553  0.00  0.00    +0.000 A 
ENDROOT
BRANCH   6   7
ATOM      7  C   UNL     1       4.261   4.939  18.916  0.00  0.00    +0.000 A 
ATOM      8  N   UNL     1       3.469   5.155  19.936  0.00  0.00    +0.000 NA
ATOM      9  C   UNL     1       2.499   4.212  19.787  0.00  0.00    +0.000 A 
ATOM     10  C   UNL     1       1.375   3.930  20.457  0.00  0.00    +0.000 A 
ATOM     11  C   UNL     1       0.496   2.854  19.988  0.00  0.00    +0.000 A 
ATOM     12  C   UNL     1       0.828   2.137  18.896  0.00  0.00    +0.000 A 
ATOM     13  N   UNL     1       1.988   2.387  18.197  0.00  0.00    +0.000 N 
ATOM     14  C   UNL     1       2.811   3.408  18.592  0.00  0.00    +0.000 A 
ATOM     15  N   UNL     1       3.907   3.867  18.075  0.00  0.00    +0.000 NA
ATOM     16  H   UNL     1       2.197   1.872  17.354  0.00  0.00    +0.000 HD
ENDBRANCH   6   7
BRANCH   1  17
ATOM     17  O   UNL     1       4.315   7.073  16.916  0.00  0.00    +0.000 OA
BRANCH  17  18
ATOM     18  C   UNL     1       3.642   8.247  17.388  0.00  0.00    +0.000 C 
BRANCH  18  19
ATOM     19  C   UNL     1       2.288   7.896  17.994  0.00  0.00    +0.000 C 
BRANCH  19  20
ATOM     20  C   UNL     1       1.387   9.140  18.104  0.00  0.00    +0.000 C 
BRANCH  20  22
ATOM     21  C   UNL     1      -0.249  10.094  19.636  0.00  0.00    +0.000 C 
ATOM     22  N   UNL     1       1.113   9.578  19.485  0.00  0.00    +0.000 NA
ATOM     23  C   UNL     1       1.330   8.475  20.425  0.00  0.00    +0.000 C 
ENDBRANCH  20  22
ENDBRANCH  19  20
ENDBRANCH  18  19
ENDBRANCH  17  18
ENDBRANCH   1  17
TORSDOF 6
ENDMDL
