MODEL 1
REMARK VINA RESULT:      -8.5      0.000      0.000
REMARK  Name = 
REMARK  6 active torsions:
REMARK  status: ('A' for Active; 'I' for Inactive)
REMARK    1  A    between atoms: C_2  and  C_4
REMARK    2  A    between atoms: C_7  and  N_8
REMARK    3  A    between atoms: C_12  and  C_13
REMARK    4  A    between atoms: C_17  and  N_18
REMARK    5  A    between atoms: N_18  and  C_19
REMARK    6  A    between atoms: C_22  and  N_23
REMARK                            x       y       z     vdW  Elec       q    Type
REMARK                         _______ _______ _______ _____ _____    ______ ____
ROOT
ATOM      1  N   UNL     1       1.676   7.239  21.038  0.00  0.00    +0.000 N 
ATOM      2  C   UNL     1       1.882   6.021  20.388  0.00  0.00    +0.000 A 
ATOM      3  N   UNL     1       1.444   4.922  21.003  0.00  0.00    +0.000 NA
ATOM      4  C   UNL     1       1.669   3.760  20.366  0.00  0.00    +0.000 A 
ATOM      5  C   UNL     1       2.325   3.647  19.155  0.00  0.00    +0.000 A 
ATOM      6  C   UNL     1       2.776   4.825  18.600  0.00  0.00    +0.000 A 
ATOM      7  N   UNL     1       2.518   5.999  19.208  0.00  0.00    +0.000 NA
ATOM      8  H   UNL     1       1.062   7.053  21.824  0.00  0.00    +0.000 HD
ENDROOT
BRANCH   1  12
ATOM      9  C   UNL     1       1.027  10.906  19.192  0.00  0.00    +0.000 A 
ATOM     10  C   UNL     1       1.505   9.852  18.426  0.00  0.00    +0.000 A 
ATOM     11  C   UNL     1       1.717   8.624  19.053  0.00  0.00    +0.000 A 
ATOM     12  C   UNL     1       1.412   8.466  20.406  0.00  0.00    +0.000 A 
ATOM     13  C   UNL     1       0.938   9.593  21.084  0.00  0.00    +0.000 A 
ATOM     14  N   UNL     1       0.744  10.812  20.520  0.00  0.00    +0.000 NA
BRANCH   9  16
ATOM     15  N   UNL     1       1.868  12.714  17.826  0.00  0.00    +0.000 N 
ATOM     16  C   UNL     1       0.815  12.246  18.567  0.00  0.00    +0.000 C 
ATOM     17  O   UNL     1      -0.227  12.882  18.686  0.00  0.00    +0.000 OA
ATOM     18  H   UNL     1       1.795  13.603  17.352  0.00  0.00    +0.000 HD
ATOM     19  H   UNL     1       2.704  12.146  17.742  0.00  0.00    +0.000 HD
ENDBRANCH   9  16
ENDBRANCH   1  12
BRANCH   5  20
ATOM     20  C   UNL     1       2.574   2.310  18.565  0.00  0.00    +0.000 C 
ATOM     21  F   UNL     1       2.338   2.259  17.223  0.00  0.00    +0.000 F 
ATOM     22  F   UNL     1       3.851   1.870  18.727  0.00  0.00    +0.000 F 
ATOM     23  F   UNL     1       1.777   1.346  19.111  0.00  0.00    +0.000 F 
ENDBRANCH   5  20
BRANCH   6  24
ATOM     24  N   UNL     1       3.449   4.860  17.363  0.00  0.00    +0.000 N 
ATOM     25  H   UNL     1       3.288   4.039  16.790  0.00  0.00    +0.000 HD
BRANCH  24  26
ATOM     26  C   UNL     1       4.891   5.189  17.446  0.00  0.00    +0.000 C 
ATOM     27  C   UNL     1       5.756   3.985  17.016  0.00  0.00    +0.000 C 
ATOM     28  C   UNL     1       5.813   3.783  15.501  0.00  0.00    +0.000 C 
ATOM     29  C   UNL     1       6.257   5.043  14.756  0.00  0.00    +0.000 C 
ATOM     30  C   UNL     1       5.321   6.204  15.106  0.00  0.00    +0.000 C 
ATOM     31  C   UNL     1       5.195   6.449  16.612  0.00  0.00    +0.000 C 
BRANCH  29  32
ATOM     32  N   UNL     1       7.655   5.355  15.056  0.00  0.00    +0.000 NA
ATOM     33  H   UNL     1       8.164   5.627  14.219  0.00  0.00    +0.000 HD
ATOM     34  H   UNL     1       8.129   4.526  15.416  0.00  0.00    +0.000 HD
ENDBRANCH  29  32
ENDBRANCH  24  26
ENDBRANCH   6  24
TORSDOF 6
ENDMDL
MODEL 2
REMARK VINA RESULT:      -8.5      0.774      1.304
REMARK  Name = 
REMARK  6 active torsions:
REMARK  status: ('A' for Active; 'I' for Inactive)
REMARK    1  A    between atoms: C_2  and  C_4
REMARK    2  A    between atoms: C_7  and  N_8
REMARK    3  A    between atoms: C_12  and  C_13
REMARK    4  A    between atoms: C_17  and  N_18
REMARK    5  A    between atoms: N_18  and  C_19
REMARK    6  A    between atoms: C_22  and  N_23
REMARK                            x       y       z     vdW  Elec       q    Type
REMARK                         _______ _______ _______ _____ _____    ______ ____
ROOT
ATOM      1  N   UNL     1       1.667   7.254  21.120  0.00  0.00    +0.000 N 
ATOM      2  C   UNL     1       1.875   6.049  20.446  0.00  0.00    +0.000 A 
ATOM      3  N   UNL     1       1.444   4.938  21.042  0.00  0.00    +0.000 NA
ATOM      4  C   UNL     1       1.670   3.789  20.382  0.00  0.00    +0.000 A 
ATOM      5  C   UNL     1       2.319   3.701  19.166  0.00  0.00    +0.000 A 
ATOM      6  C   UNL     1       2.764   4.890  18.631  0.00  0.00    +0.000 A 
ATOM      7  N   UNL     1       2.504   6.053  19.262  0.00  0.00    +0.000 NA
ATOM      8  H   UNL     1       1.058   7.052  21.905  0.00  0.00    +0.000 HD
ENDROOT
BRANCH   1  12
ATOM      9  C   UNL     1       0.733  10.870  19.293  0.00  0.00    +0.000 A 
ATOM     10  C   UNL     1       0.457  10.718  20.646  0.00  0.00    +0.000 A 
ATOM     11  C   UNL     1       0.777   9.502  21.251  0.00  0.00    +0.000 A 
ATOM     12  C   UNL     1       1.395   8.492  20.512  0.00  0.00    +0.000 A 
ATOM     13  C   UNL     1       1.625   8.749  19.157  0.00  0.00    +0.000 A 
ATOM     14  N   UNL     1       1.304   9.905  18.522  0.00  0.00    +0.000 NA
BRANCH   9  16
ATOM     15  N   UNL     1      -0.817  12.127  17.930  0.00  0.00    +0.000 N 
ATOM     16  C   UNL     1       0.378  12.144  18.599  0.00  0.00    +0.000 C 
ATOM     17  O   UNL     1       1.088  13.144  18.634  0.00  0.00    +0.000 OA
ATOM     18  H   UNL     1      -1.140  12.957  17.453  0.00  0.00    +0.000 HD
ATOM     19  H   UNL     1      -1.379  11.282  17.942  0.00  0.00    +0.000 HD
ENDBRANCH   9  16
ENDBRANCH   1  12
BRANCH   5  20
ATOM     20  C   UNL     1       2.571   2.376  18.550  0.00  0.00    +0.000 C 
ATOM     21  F   UNL     1       1.843   1.371  19.115  0.00  0.00    +0.000 F 
ATOM     22  F   UNL     1       2.287   2.328  17.221  0.00  0.00    +0.000 F 
ATOM     23  F   UNL     1       3.875   1.990  18.666  0.00  0.00    +0.000 F 
ENDBRANCH   5  20
BRANCH   6  24
ATOM     24  N   UNL     1       3.429   4.952  17.391  0.00  0.00    +0.000 N 
ATOM     25  H   UNL     1       3.268   4.141  16.804  0.00  0.00    +0.000 HD
BRANCH  24  26
ATOM     26  C   UNL     1       4.871   5.284  17.472  0.00  0.00    +0.000 C 
ATOM     27  C   UNL     1       5.739   4.073  17.071  0.00  0.00    +0.000 C 
ATOM     28  C   UNL     1       5.802   3.839  15.562  0.00  0.00    +0.000 C 
ATOM     29  C   UNL     1       6.247   5.083  14.791  0.00  0.00    +0.000 C 
ATOM     30  C   UNL     1       5.309   6.250  15.114  0.00  0.00    +0.000 C 
ATOM     31  C   UNL     1       5.176   6.527  16.614  0.00  0.00    +0.000 C 
BRANCH  29  32
ATOM     32  N   UNL     1       7.643   5.403  15.091  0.00  0.00    +0.000 NA
ATOM     33  H   UNL     1       7.895   6.329  14.751  0.00  0.00    +0.000 HD
ATOM     34  H   UNL     1       8.263   4.751  14.610  0.00  0.00    +0.000 HD
ENDBRANCH  29  32
ENDBRANCH  24  26
ENDBRANCH   6  24
TORSDOF 6
ENDMDL
MODEL 3
REMARK VINA RESULT:      -8.3      1.188      1.558
REMARK  Name = 
REMARK  6 active torsions:
REMARK  status: ('A' for Active; 'I' for Inactive)
REMARK    1  A    between atoms: C_2  and  C_4
REMARK    2  A    between atoms: C_7  and  N_8
REMARK    3  A    between atoms: C_12  and  C_13
REMARK    4  A    between atoms: C_17  and  N_18
REMARK    5  A    between atoms: N_18  and  C_19
REMARK    6  A    between atoms: C_22  and  N_23
REMARK                            x       y       z     vdW  Elec       q    Type
REMARK                         _______ _______ _______ _____ _____    ______ ____
ROOT
ATOM      1  N   UNL     1       1.137   7.110  20.874  0.00  0.00    +0.000 N 
ATOM      2  C   UNL     1       1.772   5.942  20.449  0.00  0.00    +0.000 A 
ATOM      3  N   UNL     1       1.087   4.804  20.558  0.00  0.00    +0.000 NA
ATOM      4  C   UNL     1       1.725   3.690  20.158  0.00  0.00    +0.000 A 
ATOM      5  C   UNL     1       3.018   3.663  19.672  0.00  0.00    +0.000 A 
ATOM      6  C   UNL     1       3.671   4.875  19.622  0.00  0.00    +0.000 A 
ATOM      7  N   UNL     1       3.026   6.003  19.978  0.00  0.00    +0.000 NA
ATOM      8  H   UNL     1       0.167   6.871  21.050  0.00  0.00    +0.000 HD
ENDROOT
BRANCH   1  12
ATOM      9  C   UNL     1       1.482  10.866  19.127  0.00  0.00    +0.000 A 
ATOM     10  C   UNL     1       1.022  10.781  20.434  0.00  0.00    +0.000 A 
ATOM     11  C   UNL     1       0.913   9.516  21.014  0.00  0.00    +0.000 A 
ATOM     12  C   UNL     1       1.298   8.382  20.298  0.00  0.00    +0.000 A 
ATOM     13  C   UNL     1       1.745   8.580  18.988  0.00  0.00    +0.000 A 
ATOM     14  N   UNL     1       1.840   9.788  18.376  0.00  0.00    +0.000 NA
BRANCH   9  16
ATOM     15  N   UNL     1       2.585  12.302  17.525  0.00  0.00    +0.000 N 
ATOM     16  C   UNL     1       1.586  12.197  18.457  0.00  0.00    +0.000 C 
ATOM     17  O   UNL     1       0.827  13.129  18.702  0.00  0.00    +0.000 OA
ATOM     18  H   UNL     1       2.707  13.163  17.012  0.00  0.00    +0.000 HD
ATOM     19  H   UNL     1       3.178  11.499  17.343  0.00  0.00    +0.000 HD
ENDBRANCH   9  16
ENDBRANCH   1  12
BRANCH   5  20
ATOM     20  C   UNL     1       3.652   2.371  19.314  0.00  0.00    +0.000 C 
ATOM     21  F   UNL     1       4.097   2.327  18.025  0.00  0.00    +0.000 F 
ATOM     22  F   UNL     1       4.729   2.058  20.082  0.00  0.00    +0.000 F 
ATOM     23  F   UNL     1       2.790   1.320  19.436  0.00  0.00    +0.000 F 
ENDBRANCH   5  20
BRANCH   6  24
ATOM     24  N   UNL     1       4.987   4.998  19.136  0.00  0.00    +0.000 N 
ATOM     25  H   UNL     1       5.666   5.219  19.856  0.00  0.00    +0.000 HD
BRANCH  24  26
ATOM     26  C   UNL     1       5.138   5.884  17.958  0.00  0.00    +0.000 C 
ATOM     27  C   UNL     1       6.624   6.210  17.702  0.00  0.00    +0.000 C 
ATOM     28  C   UNL     1       7.395   5.070  17.036  0.00  0.00    +0.000 C 
ATOM     29  C   UNL     1       6.732   4.587  15.745  0.00  0.00    +0.000 C 
ATOM     30  C   UNL     1       5.290   4.161  16.036  0.00  0.00    +0.000 C 
ATOM     31  C   UNL     1       4.463   5.247  16.728  0.00  0.00    +0.000 C 
BRANCH  29  32
ATOM     32  N   UNL     1       6.800   5.621  14.711  0.00  0.00    +0.000 NA
ATOM     33  H   UNL     1       6.246   5.369  13.895  0.00  0.00    +0.000 HD
ATOM     34  H   UNL     1       7.759   5.722  14.379  0.00  0.00    +0.000 HD
ENDBRANCH  29  32
ENDBRANCH  24  26
ENDBRANCH   6  24
TORSDOF 6
ENDMDL
MODEL 4
REMARK VINA RESULT:      -8.2      0.985      1.490
REMARK  Name = 
REMARK  6 active torsions:
REMARK  status: ('A' for Active; 'I' for Inactive)
REMARK    1  A    between atoms: C_2  and  C_4
REMARK    2  A    between atoms: C_7  and  N_8
REMARK    3  A    between atoms: C_12  and  C_13
REMARK    4  A    between atoms: C_17  and  N_18
REMARK    5  A    between atoms: N_18  and  C_19
REMARK    6  A    between atoms: C_22  and  N_23
REMARK                            x       y       z     vdW  Elec       q    Type
REMARK                         _______ _______ _______ _____ _____    ______ ____
ROOT
ATOM      1  N   UNL     1       1.250   7.281  20.916  0.00  0.00    +0.000 N 
ATOM      2  C   UNL     1       1.846   6.100  20.468  0.00  0.00    +0.000 A 
ATOM      3  N   UNL     1       1.217   4.959  20.748  0.00  0.00    +0.000 NA
ATOM      4  C   UNL     1       1.818   3.835  20.320  0.00  0.00    +0.000 A 
ATOM      5  C   UNL     1       3.022   3.801  19.643  0.00  0.00    +0.000 A 
ATOM      6  C   UNL     1       3.625   5.020  19.422  0.00  0.00    +0.000 A 
ATOM      7  N   UNL     1       3.011   6.156  19.806  0.00  0.00    +0.000 NA
ATOM      8  H   UNL     1       0.326   7.035  21.253  0.00  0.00    +0.000 HD
ENDROOT
BRANCH   1  12
ATOM      9  C   UNL     1       1.491  10.950  18.977  0.00  0.00    +0.000 A 
ATOM     10  C   UNL     1       1.820   9.801  18.269  0.00  0.00    +0.000 A 
ATOM     11  C   UNL     1       1.732   8.574  18.928  0.00  0.00    +0.000 A 
ATOM     12  C   UNL     1       1.286   8.517  20.249  0.00  0.00    +0.000 A 
ATOM     13  C   UNL     1       0.984   9.733  20.868  0.00  0.00    +0.000 A 
ATOM     14  N   UNL     1       1.082  10.950  20.275  0.00  0.00    +0.000 NA
BRANCH   9  16
ATOM     15  N   UNL     1       2.661  12.429  17.467  0.00  0.00    +0.000 N 
ATOM     16  C   UNL     1       1.599  12.287  18.320  0.00  0.00    +0.000 C 
ATOM     17  O   UNL     1       0.793  13.191  18.509  0.00  0.00    +0.000 OA
ATOM     18  H   UNL     1       2.792  13.297  16.966  0.00  0.00    +0.000 HD
ATOM     19  H   UNL     1       3.294  11.648  17.329  0.00  0.00    +0.000 HD
ENDBRANCH   9  16
ENDBRANCH   1  12
BRANCH   5  20
ATOM     20  C   UNL     1       3.630   2.502  19.268  0.00  0.00    +0.000 C 
ATOM     21  F   UNL     1       4.881   2.322  19.780  0.00  0.00    +0.000 F 
ATOM     22  F   UNL     1       2.910   1.423  19.677  0.00  0.00    +0.000 F 
ATOM     23  F   UNL     1       3.768   2.366  17.917  0.00  0.00    +0.000 F 
ENDBRANCH   5  20
BRANCH   6  24
ATOM     24  N   UNL     1       4.848   5.137  18.733  0.00  0.00    +0.000 N 
ATOM     25  H   UNL     1       5.574   5.599  19.270  0.00  0.00    +0.000 HD
BRANCH  24  26
ATOM     26  C   UNL     1       4.743   5.700  17.366  0.00  0.00    +0.000 C 
ATOM     27  C   UNL     1       5.928   6.642  17.066  0.00  0.00    +0.000 C 
ATOM     28  C   UNL     1       7.228   5.906  16.743  0.00  0.00    +0.000 C 
ATOM     29  C   UNL     1       7.064   4.890  15.611  0.00  0.00    +0.000 C 
ATOM     30  C   UNL     1       5.959   3.893  15.972  0.00  0.00    +0.000 C 
ATOM     31  C   UNL     1       4.630   4.562  16.333  0.00  0.00    +0.000 C 
BRANCH  29  32
ATOM     32  N   UNL     1       6.796   5.570  14.343  0.00  0.00    +0.000 NA
ATOM     33  H   UNL     1       6.357   4.945  13.671  0.00  0.00    +0.000 HD
ATOM     34  H   UNL     1       7.672   5.871  13.915  0.00  0.00    +0.000 HD
ENDBRANCH  29  32
ENDBRANCH  24  26
ENDBRANCH   6  24
TORSDOF 6
ENDMDL
MODEL 5
REMARK VINA RESULT:      -8.1      1.000      1.471
REMARK  Name = 
REMARK  6 active torsions:
REMARK  status: ('A' for Active; 'I' for Inactive)
REMARK    1  A    between atoms: C_2  and  C_4
REMARK    2  A    between atoms: C_7  and  N_8
REMARK    3  A    between atoms: C_12  and  C_13
REMARK    4  A    between atoms: C_17  and  N_18
REMARK    5  A    between atoms: N_18  and  C_19
REMARK    6  A    between atoms: C_22  and  N_23
REMARK                            x       y       z     vdW  Elec       q    Type
REMARK                         _______ _______ _______ _____ _____    ______ ____
ROOT
ATOM      1  N   UNL     1       1.549   7.322  21.160  0.00  0.00    +0.000 N 
ATOM      2  C   UNL     1       1.844   6.144  20.471  0.00  0.00    +0.000 A 
ATOM      3  N   UNL     1       1.553   4.995  21.080  0.00  0.00    +0.000 NA
ATOM      4  C   UNL     1       1.861   3.875  20.404  0.00  0.00    +0.000 A 
ATOM      5  C   UNL     1       2.459   3.853  19.159  0.00  0.00    +0.000 A 
ATOM      6  C   UNL     1       2.757   5.081  18.610  0.00  0.00    +0.000 A 
ATOM      7  N   UNL     1       2.413   6.211  19.259  0.00  0.00    +0.000 NA
ATOM      8  H   UNL     1       1.000   7.059  21.972  0.00  0.00    +0.000 HD
ENDROOT
BRANCH   1  12
ATOM      9  C   UNL     1       0.198  10.816  19.360  0.00  0.00    +0.000 A 
ATOM     10  C   UNL     1      -0.339  10.451  20.587  0.00  0.00    +0.000 A 
ATOM     11  C   UNL     1       0.123   9.278  21.185  0.00  0.00    +0.000 A 
ATOM     12  C   UNL     1       1.127   8.527  20.573  0.00  0.00    +0.000 A 
ATOM     13  C   UNL     1       1.596   8.984  19.338  0.00  0.00    +0.000 A 
ATOM     14  N   UNL     1       1.155  10.102  18.707  0.00  0.00    +0.000 NA
BRANCH   9  16
ATOM     15  N   UNL     1      -1.198  11.830  17.667  0.00  0.00    +0.000 N 
ATOM     16  C   UNL     1      -0.290  12.048  18.670  0.00  0.00    +0.000 C 
ATOM     17  O   UNL     1       0.074  13.177  18.980  0.00  0.00    +0.000 OA
ATOM     18  H   UNL     1      -1.594  12.613  17.166  0.00  0.00    +0.000 HD
ATOM     19  H   UNL     1      -1.483  10.879  17.456  0.00  0.00    +0.000 HD
ENDBRANCH   9  16
ENDBRANCH   1  12
BRANCH   5  20
ATOM     20  C   UNL     1       2.811   2.560  18.524  0.00  0.00    +0.000 C 
ATOM     21  F   UNL     1       4.156   2.364  18.408  0.00  0.00    +0.000 F 
ATOM     22  F   UNL     1       2.342   1.474  19.196  0.00  0.00    +0.000 F 
ATOM     23  F   UNL     1       2.318   2.454  17.256  0.00  0.00    +0.000 F 
ENDBRANCH   5  20
BRANCH   6  24
ATOM     24  N   UNL     1       3.355   5.209  17.341  0.00  0.00    +0.000 N 
ATOM     25  H   UNL     1       3.574   4.321  16.904  0.00  0.00    +0.000 HD
BRANCH  24  26
ATOM     26  C   UNL     1       4.507   6.139  17.285  0.00  0.00    +0.000 C 
ATOM     27  C   UNL     1       5.750   5.517  17.957  0.00  0.00    +0.000 C 
ATOM     28  C   UNL     1       6.455   4.473  17.091  0.00  0.00    +0.000 C 
ATOM     29  C   UNL     1       6.818   5.007  15.704  0.00  0.00    +0.000 C 
ATOM     30  C   UNL     1       5.556   5.520  15.004  0.00  0.00    +0.000 C 
ATOM     31  C   UNL     1       4.782   6.553  15.827  0.00  0.00    +0.000 C 
BRANCH  29  32
ATOM     32  N   UNL     1       7.849   6.041  15.803  0.00  0.00    +0.000 NA
ATOM     33  H   UNL     1       7.633   6.714  16.535  0.00  0.00    +0.000 HD
ATOM     34  H   UNL     1       7.893   6.575  14.935  0.00  0.00    +0.000 HD
ENDBRANCH  29  32
ENDBRANCH  24  26
ENDBRANCH   6  24
TORSDOF 6
ENDMDL
MODEL 6
REMARK VINA RESULT:      -8.1      0.777      1.039
REMARK  Name = 
REMARK  6 active torsions:
REMARK  status: ('A' for Active; 'I' for Inactive)
REMARK    1  A    between atoms: C_2  and  C_4
REMARK    2  A    between atoms: C_7  and  N_8
REMARK    3  A    between atoms: C_12  and  C_13
REMARK    4  A    between atoms: C_17  and  N_18
REMARK    5  A    between atoms: N_18  and  C_19
REMARK    6  A    between atoms: C_22  and  N_23
REMARK                            x       y       z     vdW  Elec       q    Type
REMARK                         _______ _______ _______ _____ _____    ______ ____
ROOT
ATOM      1  N   UNL     1       1.618   7.084  21.401  0.00  0.00    +0.000 N 
ATOM      2  C   UNL     1       1.815   5.968  20.586  0.00  0.00    +0.000 A 
ATOM      3  N   UNL     1       1.391   4.793  21.051  0.00  0.00    +0.000 NA
ATOM      4  C   UNL     1       1.606   3.731  20.256  0.00  0.00    +0.000 A 
ATOM      5  C   UNL     1       2.239   3.789  19.030  0.00  0.00    +0.000 A 
ATOM      6  C   UNL     1       2.678   5.033  18.634  0.00  0.00    +0.000 A 
ATOM      7  N   UNL     1       2.428   6.112  19.402  0.00  0.00    +0.000 NA
ATOM      8  H   UNL     1       1.019   6.789  22.165  0.00  0.00    +0.000 HD
ENDROOT
BRANCH   1  12
ATOM      9  C   UNL     1       0.932  10.957  20.057  0.00  0.00    +0.000 A 
ATOM     10  C   UNL     1       1.109   9.950  19.118  0.00  0.00    +0.000 A 
ATOM     11  C   UNL     1       1.335   8.652  19.579  0.00  0.00    +0.000 A 
ATOM     12  C   UNL     1       1.340   8.385  20.949  0.00  0.00    +0.000 A 
ATOM     13  C   UNL     1       1.154   9.473  21.806  0.00  0.00    +0.000 A 
ATOM     14  N   UNL     1       0.960  10.754  21.403  0.00  0.00    +0.000 NA
BRANCH   9  16
ATOM     15  N   UNL     1       0.680  13.296  20.614  0.00  0.00    +0.000 N 
ATOM     16  C   UNL     1       0.717  12.366  19.608  0.00  0.00    +0.000 C 
ATOM     17  O   UNL     1       0.601  12.681  18.429  0.00  0.00    +0.000 OA
ATOM     18  H   UNL     1       0.560  14.274  20.391  0.00  0.00    +0.000 HD
ATOM     19  H   UNL     1       0.798  12.991  21.575  0.00  0.00    +0.000 HD
ENDBRANCH   9  16
ENDBRANCH   1  12
BRANCH   5  20
ATOM     20  C   UNL     1       2.480   2.547  18.257  0.00  0.00    +0.000 C 
ATOM     21  F   UNL     1       1.644   1.525  18.601  0.00  0.00    +0.000 F 
ATOM     22  F   UNL     1       2.334   2.700  16.914  0.00  0.00    +0.000 F 
ATOM     23  F   UNL     1       3.742   2.059  18.440  0.00  0.00    +0.000 F 
ENDBRANCH   5  20
BRANCH   6  24
ATOM     24  N   UNL     1       3.327   5.242  17.402  0.00  0.00    +0.000 N 
ATOM     25  H   UNL     1       3.143   4.516  16.718  0.00  0.00    +0.000 HD
BRANCH  24  26
ATOM     26  C   UNL     1       4.776   5.538  17.501  0.00  0.00    +0.000 C 
ATOM     27  C   UNL     1       5.615   4.272  17.229  0.00  0.00    +0.000 C 
ATOM     28  C   UNL     1       5.715   3.912  15.746  0.00  0.00    +0.000 C 
ATOM     29  C   UNL     1       6.222   5.074  14.891  0.00  0.00    +0.000 C 
ATOM     30  C   UNL     1       5.313   6.291  15.086  0.00  0.00    +0.000 C 
ATOM     31  C   UNL     1       5.145   6.695  16.554  0.00  0.00    +0.000 C 
BRANCH  29  32
ATOM     32  N   UNL     1       7.619   5.377  15.207  0.00  0.00    +0.000 NA
ATOM     33  H   UNL     1       8.174   4.529  15.294  0.00  0.00    +0.000 HD
ATOM     34  H   UNL     1       7.679   5.846  16.111  0.00  0.00    +0.000 HD
ENDBRANCH  29  32
ENDBRANCH  24  26
ENDBRANCH   6  24
TORSDOF 6
ENDMDL
MODEL 7
REMARK VINA RESULT:      -8.0      0.622      1.236
REMARK  Name = 
REMARK  6 active torsions:
REMARK  status: ('A' for Active; 'I' for Inactive)
REMARK    1  A    between atoms: C_2  and  C_4
REMARK    2  A    between atoms: C_7  and  N_8
REMARK    3  A    between atoms: C_12  and  C_13
REMARK    4  A    between atoms: C_17  and  N_18
REMARK    5  A    between atoms: N_18  and  C_19
REMARK    6  A    between atoms: C_22  and  N_23
REMARK                            x       y       z     vdW  Elec       q    Type
REMARK                         _______ _______ _______ _____ _____    ______ ____
ROOT
ATOM      1  N   UNL     1       1.894   6.991  21.031  0.00  0.00    +0.000 N 
ATOM      2  C   UNL     1       2.018   5.745  20.414  0.00  0.00    +0.000 A 
ATOM      3  N   UNL     1       1.660   4.676  21.125  0.00  0.00    +0.000 NA
ATOM      4  C   UNL     1       1.804   3.487  20.516  0.00  0.00    +0.000 A 
ATOM      5  C   UNL     1       2.304   3.319  19.239  0.00  0.00    +0.000 A 
ATOM      6  C   UNL     1       2.682   4.469  18.582  0.00  0.00    +0.000 A 
ATOM      7  N   UNL     1       2.501   5.670  19.165  0.00  0.00    +0.000 NA
ATOM      8  H   UNL     1       1.382   6.843  21.894  0.00  0.00    +0.000 HD
ENDROOT
BRANCH   1  12
ATOM      9  C   UNL     1       1.011  10.590  19.149  0.00  0.00    +0.000 A 
ATOM     10  C   UNL     1       1.622   9.586  18.409  0.00  0.00    +0.000 A 
ATOM     11  C   UNL     1       1.911   8.380  19.049  0.00  0.00    +0.000 A 
ATOM     12  C   UNL     1       1.552   8.191  20.384  0.00  0.00    +0.000 A 
ATOM     13  C   UNL     1       0.944   9.268  21.035  0.00  0.00    +0.000 A 
ATOM     14  N   UNL     1       0.670  10.467  20.461  0.00  0.00    +0.000 NA
BRANCH   9  16
ATOM     15  N   UNL     1       1.796  12.558  17.985  0.00  0.00    +0.000 N 
ATOM     16  C   UNL     1       0.711  11.908  18.512  0.00  0.00    +0.000 C 
ATOM     17  O   UNL     1      -0.421  12.375  18.442  0.00  0.00    +0.000 OA
ATOM     18  H   UNL     1       1.674  13.445  17.517  0.00  0.00    +0.000 HD
ATOM     19  H   UNL     1       2.712  12.125  18.050  0.00  0.00    +0.000 HD
ENDBRANCH   9  16
ENDBRANCH   1  12
BRANCH   5  20
ATOM     20  C   UNL     1       2.478   1.956  18.681  0.00  0.00    +0.000 C 
ATOM     21  F   UNL     1       3.748   1.476  18.813  0.00  0.00    +0.000 F 
ATOM     22  F   UNL     1       1.675   1.022  19.257  0.00  0.00    +0.000 F 
ATOM     23  F   UNL     1       2.208   1.905  17.344  0.00  0.00    +0.000 F 
ENDBRANCH   5  20
BRANCH   6  24
ATOM     24  N   UNL     1       3.195   4.448  17.270  0.00  0.00    +0.000 N 
ATOM     25  H   UNL     1       2.657   3.870  16.633  0.00  0.00    +0.000 HD
BRANCH  24  26
ATOM     26  C   UNL     1       4.645   4.158  17.171  0.00  0.00    +0.000 C 
ATOM     27  C   UNL     1       5.147   4.349  15.725  0.00  0.00    +0.000 C 
ATOM     28  C   UNL     1       5.338   5.815  15.332  0.00  0.00    +0.000 C 
ATOM     29  C   UNL     1       6.241   6.572  16.307  0.00  0.00    +0.000 C 
ATOM     30  C   UNL     1       5.669   6.467  17.724  0.00  0.00    +0.000 C 
ATOM     31  C   UNL     1       5.427   5.025  18.177  0.00  0.00    +0.000 C 
BRANCH  29  32
ATOM     32  N   UNL     1       7.615   6.074  16.232  0.00  0.00    +0.000 NA
ATOM     33  H   UNL     1       7.994   5.886  17.157  0.00  0.00    +0.000 HD
ATOM     34  H   UNL     1       8.222   6.782  15.819  0.00  0.00    +0.000 HD
ENDBRANCH  29  32
ENDBRANCH  24  26
ENDBRANCH   6  24
TORSDOF 6
ENDMDL
MODEL 8
REMARK VINA RESULT:      -8.0      1.052      1.684
REMARK  Name = 
REMARK  6 active torsions:
REMARK  status: ('A' for Active; 'I' for Inactive)
REMARK    1  A    between atoms: C_2  and  C_4
REMARK    2  A    between atoms: C_7  and  N_8
REMARK    3  A    between atoms: C_12  and  C_13
REMARK    4  A    between atoms: C_17  and  N_18
REMARK    5  A    between atoms: N_18  and  C_19
REMARK    6  A    between atoms: C_22  and  N_23
REMARK                            x       y       z     vdW  Elec       q    Type
REMARK                         _______ _______ _______ _____ _____    ______ ____
ROOT
ATOM      1  N   UNL     1       1.833   6.838  21.170  0.00  0.00    +0.000 N 
ATOM      2  C   UNL     1       1.990   5.619  20.508  0.00  0.00    +0.000 A 
ATOM      3  N   UNL     1       1.670   4.515  21.183  0.00  0.00    +0.000 NA
ATOM      4  C   UNL     1       1.845   3.354  20.530  0.00  0.00    +0.000 A 
ATOM      5  C   UNL     1       2.339   3.246  19.245  0.00  0.00    +0.000 A 
ATOM      6  C   UNL     1       2.678   4.430  18.626  0.00  0.00    +0.000 A 
ATOM      7  N   UNL     1       2.465   5.603  19.254  0.00  0.00    +0.000 NA
ATOM      8  H   UNL     1       1.333   6.644  22.031  0.00  0.00    +0.000 HD
ENDROOT
BRANCH   1  12
ATOM      9  C   UNL     1       0.588  10.357  19.340  0.00  0.00    +0.000 A 
ATOM     10  C   UNL     1       0.120  10.070  20.615  0.00  0.00    +0.000 A 
ATOM     11  C   UNL     1       0.547   8.888  21.223  0.00  0.00    +0.000 A 
ATOM     12  C   UNL     1       1.450   8.050  20.569  0.00  0.00    +0.000 A 
ATOM     13  C   UNL     1       1.855   8.432  19.287  0.00  0.00    +0.000 A 
ATOM     14  N   UNL     1       1.444   9.556  18.648  0.00  0.00    +0.000 NA
BRANCH   9  16
ATOM     15  N   UNL     1      -0.959  11.437  17.830  0.00  0.00    +0.000 N 
ATOM     16  C   UNL     1       0.134  11.596  18.640  0.00  0.00    +0.000 C 
ATOM     17  O   UNL     1       0.679  12.685  18.787  0.00  0.00    +0.000 OA
ATOM     18  H   UNL     1      -1.342  12.232  17.338  0.00  0.00    +0.000 HD
ATOM     19  H   UNL     1      -1.388  10.520  17.752  0.00  0.00    +0.000 HD
ENDBRANCH   9  16
ENDBRANCH   1  12
BRANCH   5  20
ATOM     20  C   UNL     1       2.550   1.910  18.637  0.00  0.00    +0.000 C 
ATOM     21  F   UNL     1       1.776   0.935  19.194  0.00  0.00    +0.000 F 
ATOM     22  F   UNL     1       2.286   1.867  17.304  0.00  0.00    +0.000 F 
ATOM     23  F   UNL     1       3.836   1.476  18.775  0.00  0.00    +0.000 F 
ENDBRANCH   5  20
BRANCH   6  24
ATOM     24  N   UNL     1       3.180   4.471  17.311  0.00  0.00    +0.000 N 
ATOM     25  H   UNL     1       2.626   3.941  16.648  0.00  0.00    +0.000 HD
BRANCH  24  26
ATOM     26  C   UNL     1       4.623   4.158  17.185  0.00  0.00    +0.000 C 
ATOM     27  C   UNL     1       5.109   4.379  15.737  0.00  0.00    +0.000 C 
ATOM     28  C   UNL     1       5.321   5.851  15.380  0.00  0.00    +0.000 C 
ATOM     29  C   UNL     1       6.250   6.566  16.361  0.00  0.00    +0.000 C 
ATOM     30  C   UNL     1       5.696   6.434  17.783  0.00  0.00    +0.000 C 
ATOM     31  C   UNL     1       5.434   4.984  18.201  0.00  0.00    +0.000 C 
BRANCH  29  32
ATOM     32  N   UNL     1       7.614   6.046  16.254  0.00  0.00    +0.000 NA
ATOM     33  H   UNL     1       7.818   5.379  16.995  0.00  0.00    +0.000 HD
ATOM     34  H   UNL     1       8.288   6.804  16.365  0.00  0.00    +0.000 HD
ENDBRANCH  29  32
ENDBRANCH  24  26
ENDBRANCH   6  24
TORSDOF 6
ENDMDL
MODEL 9
REMARK VINA RESULT:      -7.9      1.008      1.341
REMARK  Name = 
REMARK  6 active torsions:
REMARK  status: ('A' for Active; 'I' for Inactive)
REMARK    1  A    between atoms: C_2  and  C_4
REMARK    2  A    between atoms: C_7  and  N_8
REMARK    3  A    between atoms: C_12  and  C_13
REMARK    4  A    between atoms: C_17  and  N_18
REMARK    5  A    between atoms: N_18  and  C_19
REMARK    6  A    between atoms: C_22  and  N_23
REMARK                            x       y       z     vdW  Elec       q    Type
REMARK                         _______ _______ _______ _____ _____    ______ ____
ROOT
ATOM      1  N   UNL     1       1.440   7.713  20.986  0.00  0.00    +0.000 N 
ATOM      2  C   UNL     1       1.749   6.489  20.390  0.00  0.00    +0.000 A 
ATOM      3  N   UNL     1       1.436   5.386  21.069  0.00  0.00    +0.000 NA
ATOM      4  C   UNL     1       1.758   4.220  20.482  0.00  0.00    +0.000 A 
ATOM      5  C   UNL     1       2.392   4.110  19.260  0.00  0.00    +0.000 A 
ATOM      6  C   UNL     1       2.712   5.296  18.635  0.00  0.00    +0.000 A 
ATOM      7  N   UNL     1       2.354   6.469  19.193  0.00  0.00    +0.000 NA
ATOM      8  H   UNL     1       0.867   7.509  21.797  0.00  0.00    +0.000 HD
ENDROOT
BRANCH   1  12
ATOM      9  C   UNL     1       0.362  11.219  19.031  0.00  0.00    +0.000 A 
ATOM     10  C   UNL     1       1.323  10.402  18.449  0.00  0.00    +0.000 A 
ATOM     11  C   UNL     1       1.675   9.225  19.111  0.00  0.00    +0.000 A 
ATOM     12  C   UNL     1       1.041   8.875  20.303  0.00  0.00    +0.000 A 
ATOM     13  C   UNL     1       0.091   9.770  20.802  0.00  0.00    +0.000 A 
ATOM     14  N   UNL     1      -0.262  10.938  20.207  0.00  0.00    +0.000 NA
BRANCH   9  16
ATOM     15  N   UNL     1      -1.185  12.456  17.646  0.00  0.00    +0.000 N 
ATOM     16  C   UNL     1      -0.023  12.503  18.371  0.00  0.00    +0.000 C 
ATOM     17  O   UNL     1       0.633  13.533  18.479  0.00  0.00    +0.000 OA
ATOM     18  H   UNL     1      -1.527  13.289  17.188  0.00  0.00    +0.000 HD
ATOM     19  H   UNL     1      -1.704  11.586  17.599  0.00  0.00    +0.000 HD
ENDBRANCH   9  16
ENDBRANCH   1  12
BRANCH   5  20
ATOM     20  C   UNL     1       2.757   2.775  18.728  0.00  0.00    +0.000 C 
ATOM     21  F   UNL     1       2.597   1.769  19.635  0.00  0.00    +0.000 F 
ATOM     22  F   UNL     1       2.031   2.401  17.640  0.00  0.00    +0.000 F 
ATOM     23  F   UNL     1       4.064   2.711  18.342  0.00  0.00    +0.000 F 
ENDBRANCH   5  20
BRANCH   6  24
ATOM     24  N   UNL     1       3.346   5.333  17.379  0.00  0.00    +0.000 N 
ATOM     25  H   UNL     1       3.603   4.418  17.026  0.00  0.00    +0.000 HD
BRANCH  24  26
ATOM     26  C   UNL     1       4.475   6.289  17.277  0.00  0.00    +0.000 C 
ATOM     27  C   UNL     1       5.709   5.766  18.042  0.00  0.00    +0.000 C 
ATOM     28  C   UNL     1       6.472   4.671  17.297  0.00  0.00    +0.000 C 
ATOM     29  C   UNL     1       6.870   5.091  15.881  0.00  0.00    +0.000 C 
ATOM     30  C   UNL     1       5.620   5.501  15.097  0.00  0.00    +0.000 C 
ATOM     31  C   UNL     1       4.789   6.580  15.798  0.00  0.00    +0.000 C 
BRANCH  29  32
ATOM     32  N   UNL     1       7.868   6.160  15.921  0.00  0.00    +0.000 NA
ATOM     33  H   UNL     1       7.736   6.763  16.730  0.00  0.00    +0.000 HD
ATOM     34  H   UNL     1       7.768   6.762  15.103  0.00  0.00    +0.000 HD
ENDBRANCH  29  32
ENDBRANCH  24  26
ENDBRANCH   6  24
TORSDOF 6
ENDMDL
