MODEL 1
REMARK VINA RESULT:      -7.6      0.000      0.000
REMARK  Name = 
REMARK  9 active torsions:
REMARK  status: ('A' for Active; 'I' for Inactive)
REMARK    1  A    between atoms: C_1  and  C_2
REMARK    2  A    between atoms: C_2  and  C_3
REMARK    3  A    between atoms: C_2  and  C_4
REMARK    4  A    between atoms: C_2  and  C_5
REMARK    5  A    between atoms: C_7  and  C_8
REMARK    6  A    between atoms: C_8  and  N_9
REMARK    7  A    between atoms: C_13  and  C_14
REMARK    8  A    between atoms: C_14  and  C_15
REMARK    9  A    between atoms: C_15  and  C_16
REMARK                            x       y       z     vdW  Elec       q    Type
REMARK                         _______ _______ _______ _____ _____    ______ ____
ROOT
ATOM      1  N   UNL     1       5.778   4.176  16.952  0.00  0.00    +0.000 NA
ATOM      2  C   UNL     1       7.014   4.363  16.175  0.00  0.00    +0.000 C 
ATOM      3  C   UNL     1       7.372   5.829  15.844  0.00  0.00    +0.000 C 
ATOM      4  O   UNL     1       6.480   6.828  16.356  0.00  0.00    +0.000 OA
ATOM      5  C   UNL     1       5.078   6.539  16.272  0.00  0.00    +0.000 C 
ATOM      6  C   UNL     1       4.761   5.018  16.298  0.00  0.00    +0.000 C 
ENDROOT
BRANCH   1   7
ATOM      7  C   UNL     1       5.983   4.547  18.374  0.00  0.00    +0.000 C 
BRANCH   7  10
ATOM      8  C   UNL     1       3.026   3.323  20.172  0.00  0.00    +0.000 A 
ATOM      9  C   UNL     1       3.690   4.390  19.601  0.00  0.00    +0.000 A 
ATOM     10  C   UNL     1       4.959   3.888  19.248  0.00  0.00    +0.000 A 
ATOM     11  N   UNL     1       5.150   2.653  19.735  0.00  0.00    +0.000 NA
ATOM     12  N   UNL     1       3.979   2.351  20.315  0.00  0.00    +0.000 N 
ATOM     13  H   UNL     1       3.886   1.434  20.737  0.00  0.00    +0.000 HD
BRANCH   8  15
ATOM     14  C   UNL     1       0.926   2.303  19.372  0.00  0.00    +0.000 C 
ATOM     15  C   UNL     1       1.561   3.158  20.493  0.00  0.00    +0.000 C 
ATOM     16  C   UNL     1       0.870   4.525  20.546  0.00  0.00    +0.000 C 
ATOM     17  C   UNL     1       1.330   2.426  21.832  0.00  0.00    +0.000 C 
ENDBRANCH   8  15
ENDBRANCH   7  10
ENDBRANCH   1   7
BRANCH   5  18
ATOM     18  C   UNL     1       4.371   7.224  17.455  0.00  0.00    +0.000 C 
BRANCH  18  19
ATOM     19  C   UNL     1       2.900   6.859  17.668  0.00  0.00    +0.000 C 
BRANCH  19  20
ATOM     20  C   UNL     1       2.216   7.974  18.440  0.00  0.00    +0.000 A 
ATOM     21  C   UNL     1       1.931   7.813  19.805  0.00  0.00    +0.000 A 
ATOM     22  C   UNL     1       1.221   8.791  20.503  0.00  0.00    +0.000 A 
ATOM     23  C   UNL     1       0.782   9.939  19.846  0.00  0.00    +0.000 A 
ATOM     24  C   UNL     1       1.056  10.108  18.490  0.00  0.00    +0.000 A 
ATOM     25  C   UNL     1       1.772   9.134  17.790  0.00  0.00    +0.000 A 
ENDBRANCH  19  20
ENDBRANCH  18  19
ENDBRANCH   5  18
TORSDOF 6
ENDMDL
MODEL 2
REMARK VINA RESULT:      -7.5      3.681      6.757
REMARK  Name = 
REMARK  9 active torsions:
REMARK  status: ('A' for Active; 'I' for Inactive)
REMARK    1  A    between atoms: C_1  and  C_2
REMARK    2  A    between atoms: C_2  and  C_3
REMARK    3  A    between atoms: C_2  and  C_4
REMARK    4  A    between atoms: C_2  and  C_5
REMARK    5  A    between atoms: C_7  and  C_8
REMARK    6  A    between atoms: C_8  and  N_9
REMARK    7  A    between atoms: C_13  and  C_14
REMARK    8  A    between atoms: C_14  and  C_15
REMARK    9  A    between atoms: C_15  and  C_16
REMARK                            x       y       z     vdW  Elec       q    Type
REMARK                         _______ _______ _______ _____ _____    ______ ____
ROOT
ATOM      1  N   UNL     1       7.053   5.689  17.818  0.00  0.00    +0.000 NA
ATOM      2  C   UNL     1       7.290   4.750  16.709  0.00  0.00    +0.000 C 
ATOM      3  C   UNL     1       6.031   4.320  15.926  0.00  0.00    +0.000 C 
ATOM      4  O   UNL     1       4.793   4.907  16.348  0.00  0.00    +0.000 OA
ATOM      5  C   UNL     1       4.587   5.018  17.763  0.00  0.00    +0.000 C 
ATOM      6  C   UNL     1       5.908   5.143  18.569  0.00  0.00    +0.000 C 
ENDROOT
BRANCH   1   7
ATOM      7  C   UNL     1       6.787   7.058  17.308  0.00  0.00    +0.000 C 
BRANCH   7  10
ATOM      8  C   UNL     1       8.874   9.909  18.299  0.00  0.00    +0.000 A 
ATOM      9  C   UNL     1       8.092   9.312  17.331  0.00  0.00    +0.000 A 
ATOM     10  C   UNL     1       7.801   8.028  17.834  0.00  0.00    +0.000 A 
ATOM     11  N   UNL     1       8.505   7.764  18.945  0.00  0.00    +0.000 NA
ATOM     12  N   UNL     1       9.168   8.906  19.183  0.00  0.00    +0.000 N 
ATOM     13  H   UNL     1       9.758   8.944  20.007  0.00  0.00    +0.000 HD
BRANCH   8  15
ATOM     14  C   UNL     1       9.190  11.696  19.971  0.00  0.00    +0.000 C 
ATOM     15  C   UNL     1       9.266  11.356  18.465  0.00  0.00    +0.000 C 
ATOM     16  C   UNL     1       8.304  12.261  17.688  0.00  0.00    +0.000 C 
ATOM     17  C   UNL     1      10.709  11.635  17.992  0.00  0.00    +0.000 C 
ENDBRANCH   8  15
ENDBRANCH   7  10
ENDBRANCH   1   7
BRANCH   5  18
ATOM     18  C   UNL     1       3.713   6.257  18.028  0.00  0.00    +0.000 C 
BRANCH  18  19
ATOM     19  C   UNL     1       2.209   6.010  18.159  0.00  0.00    +0.000 C 
BRANCH  19  20
ATOM     20  C   UNL     1       1.974   4.848  19.109  0.00  0.00    +0.000 A 
ATOM     21  C   UNL     1       1.280   3.710  18.670  0.00  0.00    +0.000 A 
ATOM     22  C   UNL     1       0.978   2.676  19.558  0.00  0.00    +0.000 A 
ATOM     23  C   UNL     1       1.360   2.769  20.895  0.00  0.00    +0.000 A 
ATOM     24  C   UNL     1       2.046   3.896  21.343  0.00  0.00    +0.000 A 
ATOM     25  C   UNL     1       2.355   4.929  20.455  0.00  0.00    +0.000 A 
ENDBRANCH  19  20
ENDBRANCH  18  19
ENDBRANCH   5  18
TORSDOF 6
ENDMDL
MODEL 3
REMARK VINA RESULT:      -7.5      2.196      5.523
REMARK  Name = 
REMARK  9 active torsions:
REMARK  status: ('A' for Active; 'I' for Inactive)
REMARK    1  A    between atoms: C_1  and  C_2
REMARK    2  A    between atoms: C_2  and  C_3
REMARK    3  A    between atoms: C_2  and  C_4
REMARK    4  A    between atoms: C_2  and  C_5
REMARK    5  A    between atoms: C_7  and  C_8
REMARK    6  A    between atoms: C_8  and  N_9
REMARK    7  A    between atoms: C_13  and  C_14
REMARK    8  A    between atoms: C_14  and  C_15
REMARK    9  A    between atoms: C_15  and  C_16
REMARK                            x       y       z     vdW  Elec       q    Type
REMARK                         _______ _______ _______ _____ _____    ______ ____
ROOT
ATOM      1  N   UNL     1       4.615   6.031  18.177  0.00  0.00    +0.000 NA
ATOM      2  C   UNL     1       5.366   6.730  17.121  0.00  0.00    +0.000 C 
ATOM      3  C   UNL     1       5.464   5.981  15.774  0.00  0.00    +0.000 C 
ATOM      4  O   UNL     1       4.790   4.717  15.703  0.00  0.00    +0.000 OA
ATOM      5  C   UNL     1       4.904   3.865  16.851  0.00  0.00    +0.000 C 
ATOM      6  C   UNL     1       5.116   4.645  18.177  0.00  0.00    +0.000 C 
ENDROOT
BRANCH   1   7
ATOM      7  C   UNL     1       3.154   6.099  17.925  0.00  0.00    +0.000 C 
BRANCH   7  10
ATOM      8  C   UNL     1       1.389   9.068  19.165  0.00  0.00    +0.000 A 
ATOM      9  C   UNL     1       2.146   8.489  18.167  0.00  0.00    +0.000 A 
ATOM     10  C   UNL     1       2.536   7.236  18.681  0.00  0.00    +0.000 A 
ATOM     11  N   UNL     1       2.213   7.116  19.977  0.00  0.00    +0.000 NA
ATOM     12  N   UNL     1       1.551   8.250  20.250  0.00  0.00    +0.000 N 
ATOM     13  H   UNL     1       1.184   8.367  21.188  0.00  0.00    +0.000 HD
BRANCH   8  15
ATOM     14  C   UNL     1      -0.542  10.041  17.976  0.00  0.00    +0.000 C 
ATOM     15  C   UNL     1       0.480  10.272  19.112  0.00  0.00    +0.000 C 
ATOM     16  C   UNL     1       1.291  11.539  18.819  0.00  0.00    +0.000 C 
ATOM     17  C   UNL     1      -0.310  10.473  20.423  0.00  0.00    +0.000 C 
ENDBRANCH   8  15
ENDBRANCH   7  10
ENDBRANCH   1   7
BRANCH   5  18
ATOM     18  C   UNL     1       3.619   3.024  16.958  0.00  0.00    +0.000 C 
BRANCH  18  19
ATOM     19  C   UNL     1       3.626   1.909  18.006  0.00  0.00    +0.000 C 
BRANCH  19  20
ATOM     20  C   UNL     1       2.786   2.338  19.196  0.00  0.00    +0.000 A 
ATOM     21  C   UNL     1       1.481   2.819  19.000  0.00  0.00    +0.000 A 
ATOM     22  C   UNL     1       0.733   3.302  20.075  0.00  0.00    +0.000 A 
ATOM     23  C   UNL     1       1.280   3.316  21.357  0.00  0.00    +0.000 A 
ATOM     24  C   UNL     1       2.575   2.844  21.564  0.00  0.00    +0.000 A 
ATOM     25  C   UNL     1       3.324   2.354  20.490  0.00  0.00    +0.000 A 
ENDBRANCH  19  20
ENDBRANCH  18  19
ENDBRANCH   5  18
TORSDOF 6
ENDMDL
MODEL 4
REMARK VINA RESULT:      -7.4      2.172      5.524
REMARK  Name = 
REMARK  9 active torsions:
REMARK  status: ('A' for Active; 'I' for Inactive)
REMARK    1  A    between atoms: C_1  and  C_2
REMARK    2  A    between atoms: C_2  and  C_3
REMARK    3  A    between atoms: C_2  and  C_4
REMARK    4  A    between atoms: C_2  and  C_5
REMARK    5  A    between atoms: C_7  and  C_8
REMARK    6  A    between atoms: C_8  and  N_9
REMARK    7  A    between atoms: C_13  and  C_14
REMARK    8  A    between atoms: C_14  and  C_15
REMARK    9  A    between atoms: C_15  and  C_16
REMARK                            x       y       z     vdW  Elec       q    Type
REMARK                         _______ _______ _______ _____ _____    ______ ____
ROOT
ATOM      1  N   UNL     1       5.030   6.386  17.918  0.00  0.00    +0.000 NA
ATOM      2  C   UNL     1       6.148   6.628  16.991  0.00  0.00    +0.000 C 
ATOM      3  C   UNL     1       6.316   5.577  15.872  0.00  0.00    +0.000 C 
ATOM      4  O   UNL     1       5.352   4.517  15.850  0.00  0.00    +0.000 OA
ATOM      5  C   UNL     1       4.984   3.959  17.119  0.00  0.00    +0.000 C 
ATOM      6  C   UNL     1       5.119   4.964  18.295  0.00  0.00    +0.000 C 
ENDROOT
BRANCH   1   7
ATOM      7  C   UNL     1       3.730   6.717  17.282  0.00  0.00    +0.000 C 
BRANCH   7  10
ATOM      8  C   UNL     1       1.449   9.091  18.904  0.00  0.00    +0.000 A 
ATOM      9  C   UNL     1       2.332   8.833  17.875  0.00  0.00    +0.000 A 
ATOM     10  C   UNL     1       2.902   7.582  18.183  0.00  0.00    +0.000 A 
ATOM     11  N   UNL     1       2.550   7.172  19.411  0.00  0.00    +0.000 NA
ATOM     12  N   UNL     1       1.699   8.119  19.835  0.00  0.00    +0.000 N 
ATOM     13  H   UNL     1       1.280   7.998  20.750  0.00  0.00    +0.000 HD
BRANCH   8  15
ATOM     14  C   UNL     1       1.011  11.519  18.850  0.00  0.00    +0.000 C 
ATOM     15  C   UNL     1       0.357  10.126  19.002  0.00  0.00    +0.000 C 
ATOM     16  C   UNL     1      -0.341  10.037  20.364  0.00  0.00    +0.000 C 
ATOM     17  C   UNL     1      -0.700   9.977  17.886  0.00  0.00    +0.000 C 
ENDBRANCH   8  15
ENDBRANCH   7  10
ENDBRANCH   1   7
BRANCH   5  18
ATOM     18  C   UNL     1       3.525   3.476  17.031  0.00  0.00    +0.000 C 
BRANCH  18  19
ATOM     19  C   UNL     1       3.210   2.146  17.719  0.00  0.00    +0.000 C 
BRANCH  19  20
ATOM     20  C   UNL     1       2.552   2.422  19.059  0.00  0.00    +0.000 A 
ATOM     21  C   UNL     1       1.207   2.821  19.114  0.00  0.00    +0.000 A 
ATOM     22  C   UNL     1       0.617   3.166  20.332  0.00  0.00    +0.000 A 
ATOM     23  C   UNL     1       1.364   3.122  21.508  0.00  0.00    +0.000 A 
ATOM     24  C   UNL     1       2.701   2.731  21.465  0.00  0.00    +0.000 A 
ATOM     25  C   UNL     1       3.292   2.379  20.249  0.00  0.00    +0.000 A 
ENDBRANCH  19  20
ENDBRANCH  18  19
ENDBRANCH   5  18
TORSDOF 6
ENDMDL
MODEL 5
REMARK VINA RESULT:      -7.4      1.992      5.106
REMARK  Name = 
REMARK  9 active torsions:
REMARK  status: ('A' for Active; 'I' for Inactive)
REMARK    1  A    between atoms: C_1  and  C_2
REMARK    2  A    between atoms: C_2  and  C_3
REMARK    3  A    between atoms: C_2  and  C_4
REMARK    4  A    between atoms: C_2  and  C_5
REMARK    5  A    between atoms: C_7  and  C_8
REMARK    6  A    between atoms: C_8  and  N_9
REMARK    7  A    between atoms: C_13  and  C_14
REMARK    8  A    between atoms: C_14  and  C_15
REMARK    9  A    between atoms: C_15  and  C_16
REMARK                            x       y       z     vdW  Elec       q    Type
REMARK                         _______ _______ _______ _____ _____    ______ ____
ROOT
ATOM      1  N   UNL     1       4.773   6.171  17.934  0.00  0.00    +0.000 NA
ATOM      2  C   UNL     1       5.492   6.779  16.803  0.00  0.00    +0.000 C 
ATOM      3  C   UNL     1       5.509   5.942  15.505  0.00  0.00    +0.000 C 
ATOM      4  O   UNL     1       4.801   4.696  15.547  0.00  0.00    +0.000 OA
ATOM      5  C   UNL     1       4.946   3.917  16.742  0.00  0.00    +0.000 C 
ATOM      6  C   UNL     1       5.238   4.774  18.004  0.00  0.00    +0.000 C 
ENDROOT
BRANCH   1   7
ATOM      7  C   UNL     1       3.304   6.264  17.743  0.00  0.00    +0.000 C 
BRANCH   7  10
ATOM      8  C   UNL     1       1.405   8.345  20.095  0.00  0.00    +0.000 A 
ATOM      9  C   UNL     1       2.114   8.264  18.914  0.00  0.00    +0.000 A 
ATOM     10  C   UNL     1       2.660   6.965  18.901  0.00  0.00    +0.000 A 
ATOM     11  N   UNL     1       2.471   6.342  20.073  0.00  0.00    +0.000 NA
ATOM     12  N   UNL     1       1.739   7.212  20.786  0.00  0.00    +0.000 N 
ATOM     13  H   UNL     1       1.452   6.933  21.717  0.00  0.00    +0.000 HD
BRANCH   8  15
ATOM     14  C   UNL     1      -0.507   8.706  21.612  0.00  0.00    +0.000 C 
ATOM     15  C   UNL     1       0.391   9.369  20.543  0.00  0.00    +0.000 C 
ATOM     16  C   UNL     1      -0.472   9.818  19.359  0.00  0.00    +0.000 C 
ATOM     17  C   UNL     1       1.049  10.609  21.184  0.00  0.00    +0.000 C 
ENDBRANCH   8  15
ENDBRANCH   7  10
ENDBRANCH   1   7
BRANCH   5  18
ATOM     18  C   UNL     1       3.646   3.121  16.961  0.00  0.00    +0.000 C 
BRANCH  18  19
ATOM     19  C   UNL     1       3.682   2.055  18.058  0.00  0.00    +0.000 C 
BRANCH  19  20
ATOM     20  C   UNL     1       2.819   2.509  19.222  0.00  0.00    +0.000 A 
ATOM     21  C   UNL     1       3.314   2.438  20.534  0.00  0.00    +0.000 A 
ATOM     22  C   UNL     1       2.499   2.765  21.620  0.00  0.00    +0.000 A 
ATOM     23  C   UNL     1       1.180   3.161  21.409  0.00  0.00    +0.000 A 
ATOM     24  C   UNL     1       0.676   3.232  20.111  0.00  0.00    +0.000 A 
ATOM     25  C   UNL     1       1.491   2.911  19.023  0.00  0.00    +0.000 A 
ENDBRANCH  19  20
ENDBRANCH  18  19
ENDBRANCH   5  18
TORSDOF 6
ENDMDL
MODEL 6
REMARK VINA RESULT:      -7.4      1.847      4.845
REMARK  Name = 
REMARK  9 active torsions:
REMARK  status: ('A' for Active; 'I' for Inactive)
REMARK    1  A    between atoms: C_1  and  C_2
REMARK    2  A    between atoms: C_2  and  C_3
REMARK    3  A    between atoms: C_2  and  C_4
REMARK    4  A    between atoms: C_2  and  C_5
REMARK    5  A    between atoms: C_7  and  C_8
REMARK    6  A    between atoms: C_8  and  N_9
REMARK    7  A    between atoms: C_13  and  C_14
REMARK    8  A    between atoms: C_14  and  C_15
REMARK    9  A    between atoms: C_15  and  C_16
REMARK                            x       y       z     vdW  Elec       q    Type
REMARK                         _______ _______ _______ _____ _____    ______ ____
ROOT
ATOM      1  N   UNL     1       3.177   2.959  20.533  0.00  0.00    +0.000 NA
ATOM      2  C   UNL     1       2.011   2.279  21.121  0.00  0.00    +0.000 C 
ATOM      3  C   UNL     1       0.636   2.845  20.703  0.00  0.00    +0.000 C 
ATOM      4  O   UNL     1       0.658   3.937  19.774  0.00  0.00    +0.000 OA
ATOM      5  C   UNL     1       1.658   4.942  19.991  0.00  0.00    +0.000 C 
ATOM      6  C   UNL     1       2.929   4.402  20.702  0.00  0.00    +0.000 C 
ENDROOT
BRANCH   1   7
ATOM      7  C   UNL     1       3.350   2.583  19.108  0.00  0.00    +0.000 C 
BRANCH   7  10
ATOM      8  C   UNL     1       5.797   4.561  17.218  0.00  0.00    +0.000 A 
ATOM      9  C   UNL     1       4.665   3.771  17.198  0.00  0.00    +0.000 A 
ATOM     10  C   UNL     1       4.536   3.280  18.513  0.00  0.00    +0.000 A 
ATOM     11  N   UNL     1       5.611   3.580  19.257  0.00  0.00    +0.000 NA
ATOM     12  N   UNL     1       6.370   4.326  18.439  0.00  0.00    +0.000 N 
ATOM     13  H   UNL     1       7.240   4.691  18.808  0.00  0.00    +0.000 HD
BRANCH   8  15
ATOM     14  C   UNL     1       7.303   6.492  16.914  0.00  0.00    +0.000 C 
ATOM     15  C   UNL     1       6.293   5.561  16.204  0.00  0.00    +0.000 C 
ATOM     16  C   UNL     1       5.126   6.394  15.662  0.00  0.00    +0.000 C 
ATOM     17  C   UNL     1       7.023   4.890  15.021  0.00  0.00    +0.000 C 
ENDBRANCH   8  15
ENDBRANCH   7  10
ENDBRANCH   1   7
BRANCH   5  18
ATOM     18  C   UNL     1       2.055   5.532  18.626  0.00  0.00    +0.000 C 
BRANCH  18  19
ATOM     19  C   UNL     1       2.959   6.766  18.658  0.00  0.00    +0.000 C 
BRANCH  19  20
ATOM     20  C   UNL     1       2.115   7.997  18.937  0.00  0.00    +0.000 A 
ATOM     21  C   UNL     1       1.694   8.280  20.246  0.00  0.00    +0.000 A 
ATOM     22  C   UNL     1       0.842   9.356  20.501  0.00  0.00    +0.000 A 
ATOM     23  C   UNL     1       0.395  10.158  19.453  0.00  0.00    +0.000 A 
ATOM     24  C   UNL     1       0.803   9.884  18.148  0.00  0.00    +0.000 A 
ATOM     25  C   UNL     1       1.661   8.812  17.891  0.00  0.00    +0.000 A 
ENDBRANCH  19  20
ENDBRANCH  18  19
ENDBRANCH   5  18
TORSDOF 6
ENDMDL
MODEL 7
REMARK VINA RESULT:      -7.3      3.791      6.752
REMARK  Name = 
REMARK  9 active torsions:
REMARK  status: ('A' for Active; 'I' for Inactive)
REMARK    1  A    between atoms: C_1  and  C_2
REMARK    2  A    between atoms: C_2  and  C_3
REMARK    3  A    between atoms: C_2  and  C_4
REMARK    4  A    between atoms: C_2  and  C_5
REMARK    5  A    between atoms: C_7  and  C_8
REMARK    6  A    between atoms: C_8  and  N_9
REMARK    7  A    between atoms: C_13  and  C_14
REMARK    8  A    between atoms: C_14  and  C_15
REMARK    9  A    between atoms: C_15  and  C_16
REMARK                            x       y       z     vdW  Elec       q    Type
REMARK                         _______ _______ _______ _____ _____    ______ ____
ROOT
ATOM      1  N   UNL     1       7.066   5.847  18.189  0.00  0.00    +0.000 NA
ATOM      2  C   UNL     1       7.455   4.729  17.315  0.00  0.00    +0.000 C 
ATOM      3  C   UNL     1       6.330   4.173  16.413  0.00  0.00    +0.000 C 
ATOM      4  O   UNL     1       5.059   4.828  16.512  0.00  0.00    +0.000 OA
ATOM      5  C   UNL     1       4.623   5.185  17.831  0.00  0.00    +0.000 C 
ATOM      6  C   UNL     1       5.795   5.445  18.817  0.00  0.00    +0.000 C 
ENDROOT
BRANCH   1   7
ATOM      7  C   UNL     1       6.934   7.107  17.415  0.00  0.00    +0.000 C 
BRANCH   7  10
ATOM      8  C   UNL     1       8.905  10.075  18.294  0.00  0.00    +0.000 A 
ATOM      9  C   UNL     1       8.150   9.410  17.350  0.00  0.00    +0.000 A 
ATOM     10  C   UNL     1       7.907   8.136  17.903  0.00  0.00    +0.000 A 
ATOM     11  N   UNL     1       8.618   7.945  19.025  0.00  0.00    +0.000 NA
ATOM     12  N   UNL     1       9.236   9.120  19.218  0.00  0.00    +0.000 N 
ATOM     13  H   UNL     1       9.820   9.215  20.041  0.00  0.00    +0.000 HD
BRANCH   8  15
ATOM     14  C   UNL     1      10.655  11.748  17.817  0.00  0.00    +0.000 C 
ATOM     15  C   UNL     1       9.240  11.542  18.403  0.00  0.00    +0.000 C 
ATOM     16  C   UNL     1       9.227  11.984  19.871  0.00  0.00    +0.000 C 
ATOM     17  C   UNL     1       8.264  12.431  17.603  0.00  0.00    +0.000 C 
ENDBRANCH   8  15
ENDBRANCH   7  10
ENDBRANCH   1   7
BRANCH   5  18
ATOM     18  C   UNL     1       3.758   6.454  17.728  0.00  0.00    +0.000 C 
BRANCH  18  19
ATOM     19  C   UNL     1       2.728   6.664  18.840  0.00  0.00    +0.000 C 
BRANCH  19  20
ATOM     20  C   UNL     1       2.086   5.331  19.183  0.00  0.00    +0.000 A 
ATOM     21  C   UNL     1       2.033   4.898  20.517  0.00  0.00    +0.000 A 
ATOM     22  C   UNL     1       1.529   3.636  20.836  0.00  0.00    +0.000 A 
ATOM     23  C   UNL     1       1.078   2.789  19.826  0.00  0.00    +0.000 A 
ATOM     24  C   UNL     1       1.127   3.206  18.497  0.00  0.00    +0.000 A 
ATOM     25  C   UNL     1       1.625   4.472  18.176  0.00  0.00    +0.000 A 
ENDBRANCH  19  20
ENDBRANCH  18  19
ENDBRANCH   5  18
TORSDOF 6
ENDMDL
MODEL 8
REMARK VINA RESULT:      -7.3      3.719      6.822
REMARK  Name = 
REMARK  9 active torsions:
REMARK  status: ('A' for Active; 'I' for Inactive)
REMARK    1  A    between atoms: C_1  and  C_2
REMARK    2  A    between atoms: C_2  and  C_3
REMARK    3  A    between atoms: C_2  and  C_4
REMARK    4  A    between atoms: C_2  and  C_5
REMARK    5  A    between atoms: C_7  and  C_8
REMARK    6  A    between atoms: C_8  and  N_9
REMARK    7  A    between atoms: C_13  and  C_14
REMARK    8  A    between atoms: C_14  and  C_15
REMARK    9  A    between atoms: C_15  and  C_16
REMARK                            x       y       z     vdW  Elec       q    Type
REMARK                         _______ _______ _______ _____ _____    ______ ____
ROOT
ATOM      1  N   UNL     1       7.314   5.817  17.061  0.00  0.00    +0.000 NA
ATOM      2  C   UNL     1       7.028   5.238  15.738  0.00  0.00    +0.000 C 
ATOM      3  C   UNL     1       5.564   4.801  15.511  0.00  0.00    +0.000 C 
ATOM      4  O   UNL     1       4.658   5.039  16.596  0.00  0.00    +0.000 OA
ATOM      5  C   UNL     1       5.149   4.759  17.914  0.00  0.00    +0.000 C 
ATOM      6  C   UNL     1       6.690   4.911  18.041  0.00  0.00    +0.000 C 
ENDROOT
BRANCH   1   7
ATOM      7  C   UNL     1       6.786   7.201  17.161  0.00  0.00    +0.000 C 
BRANCH   7  10
ATOM      8  C   UNL     1       8.915   9.944  18.349  0.00  0.00    +0.000 A 
ATOM      9  C   UNL     1       8.157   9.410  17.328  0.00  0.00    +0.000 A 
ATOM     10  C   UNL     1       7.806   8.117  17.766  0.00  0.00    +0.000 A 
ATOM     11  N   UNL     1       8.455   7.789  18.893  0.00  0.00    +0.000 NA
ATOM     12  N   UNL     1       9.142   8.899  19.204  0.00  0.00    +0.000 N 
ATOM     13  H   UNL     1       9.697   8.886  20.051  0.00  0.00    +0.000 HD
BRANCH   8  15
ATOM     14  C   UNL     1       8.417  12.288  17.759  0.00  0.00    +0.000 C 
ATOM     15  C   UNL     1       9.343  11.370  18.589  0.00  0.00    +0.000 C 
ATOM     16  C   UNL     1      10.795  11.573  18.142  0.00  0.00    +0.000 C 
ATOM     17  C   UNL     1       9.212  11.785  20.071  0.00  0.00    +0.000 C 
ENDBRANCH   8  15
ENDBRANCH   7  10
ENDBRANCH   1   7
BRANCH   5  18
ATOM     18  C   UNL     1       4.463   5.721  18.900  0.00  0.00    +0.000 C 
BRANCH  18  19
ATOM     19  C   UNL     1       2.960   5.934  18.705  0.00  0.00    +0.000 C 
BRANCH  19  20
ATOM     20  C   UNL     1       2.215   4.701  19.185  0.00  0.00    +0.000 A 
ATOM     21  C   UNL     1       1.555   3.874  18.263  0.00  0.00    +0.000 A 
ATOM     22  C   UNL     1       0.791   2.790  18.700  0.00  0.00    +0.000 A 
ATOM     23  C   UNL     1       0.671   2.524  20.063  0.00  0.00    +0.000 A 
ATOM     24  C   UNL     1       1.319   3.340  20.988  0.00  0.00    +0.000 A 
ATOM     25  C   UNL     1       2.090   4.421  20.553  0.00  0.00    +0.000 A 
ENDBRANCH  19  20
ENDBRANCH  18  19
ENDBRANCH   5  18
TORSDOF 6
ENDMDL
MODEL 9
REMARK VINA RESULT:      -7.3      2.078      5.386
REMARK  Name = 
REMARK  9 active torsions:
REMARK  status: ('A' for Active; 'I' for Inactive)
REMARK    1  A    between atoms: C_1  and  C_2
REMARK    2  A    between atoms: C_2  and  C_3
REMARK    3  A    between atoms: C_2  and  C_4
REMARK    4  A    between atoms: C_2  and  C_5
REMARK    5  A    between atoms: C_7  and  C_8
REMARK    6  A    between atoms: C_8  and  N_9
REMARK    7  A    between atoms: C_13  and  C_14
REMARK    8  A    between atoms: C_14  and  C_15
REMARK    9  A    between atoms: C_15  and  C_16
REMARK                            x       y       z     vdW  Elec       q    Type
REMARK                         _______ _______ _______ _____ _____    ______ ____
ROOT
ATOM      1  N   UNL     1       4.795   6.838  17.045  0.00  0.00    +0.000 NA
ATOM      2  C   UNL     1       5.117   6.345  15.696  0.00  0.00    +0.000 C 
ATOM      3  C   UNL     1       5.541   4.862  15.619  0.00  0.00    +0.000 C 
ATOM      4  O   UNL     1       5.540   4.139  16.857  0.00  0.00    +0.000 OA
ATOM      5  C   UNL     1       6.054   4.830  18.003  0.00  0.00    +0.000 C 
ATOM      6  C   UNL     1       5.888   6.372  17.917  0.00  0.00    +0.000 C 
ENDROOT
BRANCH   1   7
ATOM      7  C   UNL     1       3.470   6.338  17.492  0.00  0.00    +0.000 C 
BRANCH   7  10
ATOM      8  C   UNL     1       1.484   9.055  18.955  0.00  0.00    +0.000 A 
ATOM      9  C   UNL     1       2.274   8.613  17.913  0.00  0.00    +0.000 A 
ATOM     10  C   UNL     1       2.770   7.362  18.332  0.00  0.00    +0.000 A 
ATOM     11  N   UNL     1       2.474   7.123  19.618  0.00  0.00    +0.000 NA
ATOM     12  N   UNL     1       1.725   8.177  19.977  0.00  0.00    +0.000 N 
ATOM     13  H   UNL     1       1.360   8.195  20.923  0.00  0.00    +0.000 HD
BRANCH   8  15
ATOM     14  C   UNL     1      -0.215  10.144  20.375  0.00  0.00    +0.000 C 
ATOM     15  C   UNL     1       0.479  10.179  18.995  0.00  0.00    +0.000 C 
ATOM     16  C   UNL     1      -0.570   9.996  17.892  0.00  0.00    +0.000 C 
ATOM     17  C   UNL     1       1.139  11.566  18.834  0.00  0.00    +0.000 C 
ENDBRANCH   8  15
ENDBRANCH   7  10
ENDBRANCH   1   7
BRANCH   5  18
ATOM     18  C   UNL     1       5.317   4.312  19.252  0.00  0.00    +0.000 C 
BRANCH  18  19
ATOM     19  C   UNL     1       4.676   2.928  19.134  0.00  0.00    +0.000 C 
BRANCH  19  20
ATOM     20  C   UNL     1       3.178   3.052  19.354  0.00  0.00    +0.000 A 
ATOM     21  C   UNL     1       2.686   3.690  20.504  0.00  0.00    +0.000 A 
ATOM     22  C   UNL     1       1.315   3.729  20.764  0.00  0.00    +0.000 A 
ATOM     23  C   UNL     1       0.419   3.126  19.882  0.00  0.00    +0.000 A 
ATOM     24  C   UNL     1       0.896   2.486  18.739  0.00  0.00    +0.000 A 
ATOM     25  C   UNL     1       2.267   2.452  18.474  0.00  0.00    +0.000 A 
ENDBRANCH  19  20
ENDBRANCH  18  19
ENDBRANCH   5  18
TORSDOF 6
ENDMDL
