MODEL 1
REMARK VINA RESULT:      -7.4      0.000      0.000
REMARK  Name = 
REMARK  5 active torsions:
REMARK  status: ('A' for Active; 'I' for Inactive)
REMARK    1  A    between atoms: C_1  and  C_2
REMARK    2  A    between atoms: C_11  and  C_12
REMARK    3  A    between atoms: N_14  and  C_15
REMARK    4  A    between atoms: N_14  and  C_16
REMARK    5  A    between atoms: C_17  and  C_18
REMARK                            x       y       z     vdW  Elec       q    Type
REMARK                         _______ _______ _______ _____ _____    ______ ____
ROOT
ATOM      1  C   UNL     1       5.423   2.980  11.951  0.00  0.00    +0.000 C 
ATOM      2  C   UNL     1       6.214   3.865  12.871  0.00  0.00    +0.000 A 
ATOM      3  C   UNL     1       7.302   4.531  12.447  0.00  0.00    +0.000 A 
ATOM      4  C   UNL     1       8.013   5.396  13.403  0.00  0.00    +0.000 A 
ATOM      5  O   UNL     1       9.032   5.996  13.082  0.00  0.00    +0.000 OA
ATOM      6  N   UNL     1       7.460   5.463  14.643  0.00  0.00    +0.000 N 
ATOM      7  C   UNL     1       6.368   4.709  14.976  0.00  0.00    +0.000 A 
ATOM      8  N   UNL     1       6.009   4.873  16.335  0.00  0.00    +0.000 N 
ATOM      9  N   UNL     1       6.685   5.779  17.105  0.00  0.00    +0.000 NA
ATOM     10  C   UNL     1       6.068   5.723  18.287  0.00  0.00    +0.000 A 
ATOM     11  C   UNL     1       5.056   4.740  18.359  0.00  0.00    +0.000 A 
ATOM     12  C   UNL     1       5.027   4.222  17.064  0.00  0.00    +0.000 A 
ATOM     13  C   UNL     1       4.156   3.176  16.454  0.00  0.00    +0.000 C 
ATOM     14  N   UNL     1       5.741   3.929  14.157  0.00  0.00    +0.000 NA
ATOM     15  H   UNL     1       7.896   6.040  15.354  0.00  0.00    +0.000 HD
ENDROOT
BRANCH  11  16
ATOM     16  C   UNL     1       4.133   4.363  19.430  0.00  0.00    +0.000 C 
ATOM     17  O   UNL     1       4.318   3.293  20.017  0.00  0.00    +0.000 OA
ATOM     18  N   UNL     1       3.072   5.193  19.810  0.00  0.00    +0.000 N 
ATOM     19  C   UNL     1       2.719   6.496  19.273  0.00  0.00    +0.000 C 
ATOM     20  C   UNL     1       2.247   4.762  20.934  0.00  0.00    +0.000 C 
ENDBRANCH  11  16
TORSDOF 1
ENDMDL
MODEL 2
REMARK VINA RESULT:      -7.2      1.022      1.378
REMARK  Name = 
REMARK  5 active torsions:
REMARK  status: ('A' for Active; 'I' for Inactive)
REMARK    1  A    between atoms: C_1  and  C_2
REMARK    2  A    between atoms: C_11  and  C_12
REMARK    3  A    between atoms: N_14  and  C_15
REMARK    4  A    between atoms: N_14  and  C_16
REMARK    5  A    between atoms: C_17  and  C_18
REMARK                            x       y       z     vdW  Elec       q    Type
REMARK                         _______ _______ _______ _____ _____    ______ ____
ROOT
ATOM      1  C   UNL     1       5.201   3.076  12.024  0.00  0.00    +0.000 C 
ATOM      2  C   UNL     1       6.003   3.921  12.972  0.00  0.00    +0.000 A 
ATOM      3  C   UNL     1       7.159   4.496  12.600  0.00  0.00    +0.000 A 
ATOM      4  C   UNL     1       7.878   5.328  13.580  0.00  0.00    +0.000 A 
ATOM      5  O   UNL     1       8.955   5.845  13.308  0.00  0.00    +0.000 OA
ATOM      6  N   UNL     1       7.263   5.462  14.786  0.00  0.00    +0.000 N 
ATOM      7  C   UNL     1       6.101   4.797  15.067  0.00  0.00    +0.000 A 
ATOM      8  N   UNL     1       5.679   5.017  16.401  0.00  0.00    +0.000 N 
ATOM      9  N   UNL     1       6.376   5.888  17.192  0.00  0.00    +0.000 NA
ATOM     10  C   UNL     1       5.691   5.903  18.337  0.00  0.00    +0.000 A 
ATOM     11  C   UNL     1       4.607   4.997  18.368  0.00  0.00    +0.000 A 
ATOM     12  C   UNL     1       4.612   4.455  17.084  0.00  0.00    +0.000 A 
ATOM     13  C   UNL     1       3.702   3.463  16.443  0.00  0.00    +0.000 C 
ATOM     14  N   UNL     1       5.465   4.048  14.227  0.00  0.00    +0.000 NA
ATOM     15  H   UNL     1       7.700   6.022  15.510  0.00  0.00    +0.000 HD
ENDROOT
BRANCH  11  16
ATOM     16  C   UNL     1       3.599   4.713  19.391  0.00  0.00    +0.000 C 
ATOM     17  O   UNL     1       2.744   5.571  19.630  0.00  0.00    +0.000 OA
ATOM     18  N   UNL     1       3.575   3.493  20.077  0.00  0.00    +0.000 N 
ATOM     19  C   UNL     1       4.460   2.353  19.909  0.00  0.00    +0.000 C 
ATOM     20  C   UNL     1       2.491   3.277  21.030  0.00  0.00    +0.000 C 
ENDBRANCH  11  16
TORSDOF 1
ENDMDL
MODEL 3
REMARK VINA RESULT:      -6.9      4.559      7.606
REMARK  Name = 
REMARK  5 active torsions:
REMARK  status: ('A' for Active; 'I' for Inactive)
REMARK    1  A    between atoms: C_1  and  C_2
REMARK    2  A    between atoms: C_11  and  C_12
REMARK    3  A    between atoms: N_14  and  C_15
REMARK    4  A    between atoms: N_14  and  C_16
REMARK    5  A    between atoms: C_17  and  C_18
REMARK                            x       y       z     vdW  Elec       q    Type
REMARK                         _______ _______ _______ _____ _____    ______ ____
ROOT
ATOM      1  C   UNL     1       4.037   4.695  17.340  0.00  0.00    +0.000 C 
ATOM      2  C   UNL     1       3.329   5.007  18.628  0.00  0.00    +0.000 A 
ATOM      3  C   UNL     1       3.189   4.087  19.597  0.00  0.00    +0.000 A 
ATOM      4  C   UNL     1       2.500   4.474  20.839  0.00  0.00    +0.000 A 
ATOM      5  O   UNL     1       2.311   3.666  21.741  0.00  0.00    +0.000 OA
ATOM      6  N   UNL     1       2.097   5.772  20.896  0.00  0.00    +0.000 N 
ATOM      7  C   UNL     1       2.260   6.613  19.829  0.00  0.00    +0.000 A 
ATOM      8  N   UNL     1       1.698   7.889  20.075  0.00  0.00    +0.000 N 
ATOM      9  N   UNL     1       1.169   8.165  21.305  0.00  0.00    +0.000 NA
ATOM     10  C   UNL     1       0.790   9.443  21.214  0.00  0.00    +0.000 A 
ATOM     11  C   UNL     1       0.968  10.002  19.930  0.00  0.00    +0.000 A 
ATOM     12  C   UNL     1       1.584   8.973  19.219  0.00  0.00    +0.000 A 
ATOM     13  C   UNL     1       2.077   8.921  17.813  0.00  0.00    +0.000 C 
ATOM     14  N   UNL     1       2.844   6.287  18.723  0.00  0.00    +0.000 NA
ATOM     15  H   UNL     1       1.616   6.110  21.722  0.00  0.00    +0.000 HD
ENDROOT
BRANCH  11  16
ATOM     16  C   UNL     1       0.717  11.346  19.405  0.00  0.00    +0.000 C 
ATOM     17  O   UNL     1       1.595  12.203  19.540  0.00  0.00    +0.000 OA
ATOM     18  N   UNL     1      -0.474  11.664  18.743  0.00  0.00    +0.000 N 
ATOM     19  C   UNL     1      -1.597  10.790  18.451  0.00  0.00    +0.000 C 
ATOM     20  C   UNL     1      -0.603  13.011  18.196  0.00  0.00    +0.000 C 
ENDBRANCH  11  16
TORSDOF 1
ENDMDL
MODEL 4
REMARK VINA RESULT:      -6.8      4.311      7.402
REMARK  Name = 
REMARK  5 active torsions:
REMARK  status: ('A' for Active; 'I' for Inactive)
REMARK    1  A    between atoms: C_1  and  C_2
REMARK    2  A    between atoms: C_11  and  C_12
REMARK    3  A    between atoms: N_14  and  C_15
REMARK    4  A    between atoms: N_14  and  C_16
REMARK    5  A    between atoms: C_17  and  C_18
REMARK                            x       y       z     vdW  Elec       q    Type
REMARK                         _______ _______ _______ _____ _____    ______ ____
ROOT
ATOM      1  C   UNL     1      -0.302   8.968  22.596  0.00  0.00    +0.000 C 
ATOM      2  C   UNL     1       0.356   9.135  21.256  0.00  0.00    +0.000 A 
ATOM      3  C   UNL     1       0.223  10.265  20.541  0.00  0.00    +0.000 A 
ATOM      4  C   UNL     1       0.916  10.362  19.245  0.00  0.00    +0.000 A 
ATOM      5  O   UNL     1       0.799  11.352  18.534  0.00  0.00    +0.000 OA
ATOM      6  N   UNL     1       1.671   9.281  18.911  0.00  0.00    +0.000 N 
ATOM      7  C   UNL     1       1.703   8.166  19.703  0.00  0.00    +0.000 A 
ATOM      8  N   UNL     1       2.485   7.135  19.128  0.00  0.00    +0.000 N 
ATOM      9  N   UNL     1       3.162   7.373  17.964  0.00  0.00    +0.000 NA
ATOM     10  C   UNL     1       3.828   6.238  17.740  0.00  0.00    +0.000 A 
ATOM     11  C   UNL     1       3.545   5.215  18.671  0.00  0.00    +0.000 A 
ATOM     12  C   UNL     1       2.687   5.839  19.575  0.00  0.00    +0.000 A 
ATOM     13  C   UNL     1       2.047   5.327  20.821  0.00  0.00    +0.000 C 
ATOM     14  N   UNL     1       1.086   8.054  20.834  0.00  0.00    +0.000 NA
ATOM     15  H   UNL     1       2.177   9.278  18.032  0.00  0.00    +0.000 HD
ENDROOT
BRANCH  11  16
ATOM     16  C   UNL     1       4.060   3.852  18.812  0.00  0.00    +0.000 C 
ATOM     17  O   UNL     1       5.196   3.697  19.270  0.00  0.00    +0.000 OA
ATOM     18  N   UNL     1       3.290   2.736  18.463  0.00  0.00    +0.000 N 
ATOM     19  C   UNL     1       1.930   2.712  17.953  0.00  0.00    +0.000 C 
ATOM     20  C   UNL     1       3.865   1.417  18.704  0.00  0.00    +0.000 C 
ENDBRANCH  11  16
TORSDOF 1
ENDMDL
MODEL 5
REMARK VINA RESULT:      -6.8      1.653      6.959
REMARK  Name = 
REMARK  5 active torsions:
REMARK  status: ('A' for Active; 'I' for Inactive)
REMARK    1  A    between atoms: C_1  and  C_2
REMARK    2  A    between atoms: C_11  and  C_12
REMARK    3  A    between atoms: N_14  and  C_15
REMARK    4  A    between atoms: N_14  and  C_16
REMARK    5  A    between atoms: C_17  and  C_18
REMARK                            x       y       z     vdW  Elec       q    Type
REMARK                         _______ _______ _______ _____ _____    ______ ____
ROOT
ATOM      1  C   UNL     1       1.801   7.708  20.406  0.00  0.00    +0.000 C 
ATOM      2  C   UNL     1       2.089   6.278  20.048  0.00  0.00    +0.000 A 
ATOM      3  C   UNL     1       1.469   5.258  20.665  0.00  0.00    +0.000 A 
ATOM      4  C   UNL     1       1.789   3.884  20.243  0.00  0.00    +0.000 A 
ATOM      5  O   UNL     1       1.283   2.915  20.796  0.00  0.00    +0.000 OA
ATOM      6  N   UNL     1       2.677   3.785  19.218  0.00  0.00    +0.000 N 
ATOM      7  C   UNL     1       3.276   4.896  18.689  0.00  0.00    +0.000 A 
ATOM      8  N   UNL     1       4.221   4.559  17.691  0.00  0.00    +0.000 N 
ATOM      9  N   UNL     1       4.364   3.252  17.314  0.00  0.00    +0.000 NA
ATOM     10  C   UNL     1       5.273   3.296  16.337  0.00  0.00    +0.000 A 
ATOM     11  C   UNL     1       5.810   4.582  16.111  0.00  0.00    +0.000 A 
ATOM     12  C   UNL     1       5.086   5.385  16.991  0.00  0.00    +0.000 A 
ATOM     13  C   UNL     1       5.132   6.857  17.228  0.00  0.00    +0.000 C 
ATOM     14  N   UNL     1       3.023   6.109  19.058  0.00  0.00    +0.000 NA
ATOM     15  H   UNL     1       2.944   2.869  18.875  0.00  0.00    +0.000 HD
ENDROOT
BRANCH  11  16
ATOM     16  C   UNL     1       6.789   5.077  15.142  0.00  0.00    +0.000 C 
ATOM     17  O   UNL     1       7.654   5.868  15.530  0.00  0.00    +0.000 OA
ATOM     18  N   UNL     1       6.777   4.658  13.807  0.00  0.00    +0.000 N 
ATOM     19  C   UNL     1       5.875   3.710  13.175  0.00  0.00    +0.000 C 
ATOM     20  C   UNL     1       7.835   5.155  12.933  0.00  0.00    +0.000 C 
ENDBRANCH  11  16
TORSDOF 1
ENDMDL
MODEL 6
REMARK VINA RESULT:      -6.7      1.636      6.746
REMARK  Name = 
REMARK  5 active torsions:
REMARK  status: ('A' for Active; 'I' for Inactive)
REMARK    1  A    between atoms: C_1  and  C_2
REMARK    2  A    between atoms: C_11  and  C_12
REMARK    3  A    between atoms: N_14  and  C_15
REMARK    4  A    between atoms: N_14  and  C_16
REMARK    5  A    between atoms: C_17  and  C_18
REMARK                            x       y       z     vdW  Elec       q    Type
REMARK                         _______ _______ _______ _____ _____    ______ ____
ROOT
ATOM      1  C   UNL     1       1.850   8.692  18.661  0.00  0.00    +0.000 C 
ATOM      2  C   UNL     1       2.384   7.307  18.892  0.00  0.00    +0.000 A 
ATOM      3  C   UNL     1       2.030   6.584  19.969  0.00  0.00    +0.000 A 
ATOM      4  C   UNL     1       2.581   5.227  20.115  0.00  0.00    +0.000 A 
ATOM      5  O   UNL     1       2.322   4.538  21.095  0.00  0.00    +0.000 OA
ATOM      6  N   UNL     1       3.385   4.816  19.099  0.00  0.00    +0.000 N 
ATOM      7  C   UNL     1       3.708   5.655  18.067  0.00  0.00    +0.000 A 
ATOM      8  N   UNL     1       4.619   5.052  17.165  0.00  0.00    +0.000 N 
ATOM      9  N   UNL     1       4.987   3.748  17.351  0.00  0.00    +0.000 NA
ATOM     10  C   UNL     1       5.787   3.488  16.315  0.00  0.00    +0.000 A 
ATOM     11  C   UNL     1       6.039   4.607  15.491  0.00  0.00    +0.000 A 
ATOM     12  C   UNL     1       5.244   5.602  16.058  0.00  0.00    +0.000 A 
ATOM     13  C   UNL     1       5.017   7.018  15.647  0.00  0.00    +0.000 C 
ATOM     14  N   UNL     1       3.251   6.856  17.930  0.00  0.00    +0.000 NA
ATOM     15  H   UNL     1       3.800   3.891  19.132  0.00  0.00    +0.000 HD
ENDROOT
BRANCH  11  16
ATOM     16  C   UNL     1       6.820   4.760  14.262  0.00  0.00    +0.000 C 
ATOM     17  O   UNL     1       7.878   5.395  14.312  0.00  0.00    +0.000 OA
ATOM     18  N   UNL     1       6.406   4.189  13.053  0.00  0.00    +0.000 N 
ATOM     19  C   UNL     1       5.226   3.379  12.804  0.00  0.00    +0.000 C 
ATOM     20  C   UNL     1       7.286   4.340  11.899  0.00  0.00    +0.000 C 
ENDBRANCH  11  16
TORSDOF 1
ENDMDL
MODEL 7
REMARK VINA RESULT:      -6.7      3.757      8.209
REMARK  Name = 
REMARK  5 active torsions:
REMARK  status: ('A' for Active; 'I' for Inactive)
REMARK    1  A    between atoms: C_1  and  C_2
REMARK    2  A    between atoms: C_11  and  C_12
REMARK    3  A    between atoms: N_14  and  C_15
REMARK    4  A    between atoms: N_14  and  C_16
REMARK    5  A    between atoms: C_17  and  C_18
REMARK                            x       y       z     vdW  Elec       q    Type
REMARK                         _______ _______ _______ _____ _____    ______ ____
ROOT
ATOM      1  C   UNL     1       0.560  11.878  19.242  0.00  0.00    +0.000 C 
ATOM      2  C   UNL     1       0.701  10.742  20.215  0.00  0.00    +0.000 A 
ATOM      3  C   UNL     1       0.342  10.869  21.504  0.00  0.00    +0.000 A 
ATOM      4  C   UNL     1       0.491   9.705  22.393  0.00  0.00    +0.000 A 
ATOM      5  O   UNL     1       0.215   9.775  23.585  0.00  0.00    +0.000 OA
ATOM      6  N   UNL     1       0.955   8.576  21.794  0.00  0.00    +0.000 N 
ATOM      7  C   UNL     1       1.326   8.573  20.477  0.00  0.00    +0.000 A 
ATOM      8  N   UNL     1       1.854   7.320  20.082  0.00  0.00    +0.000 N 
ATOM      9  N   UNL     1       1.854   6.280  20.970  0.00  0.00    +0.000 NA
ATOM     10  C   UNL     1       2.354   5.259  20.270  0.00  0.00    +0.000 A 
ATOM     11  C   UNL     1       2.776   5.608  18.968  0.00  0.00    +0.000 A 
ATOM     12  C   UNL     1       2.413   6.951  18.869  0.00  0.00    +0.000 A 
ATOM     13  C   UNL     1       2.540   7.912  17.735  0.00  0.00    +0.000 C 
ATOM     14  N   UNL     1       1.222   9.590  19.685  0.00  0.00    +0.000 NA
ATOM     15  H   UNL     1       1.082   7.734  22.345  0.00  0.00    +0.000 HD
ENDROOT
BRANCH  11  16
ATOM     16  C   UNL     1       3.345   4.814  17.879  0.00  0.00    +0.000 C 
ATOM     17  O   UNL     1       2.593   4.087  17.224  0.00  0.00    +0.000 OA
ATOM     18  N   UNL     1       4.706   4.880  17.556  0.00  0.00    +0.000 N 
ATOM     19  C   UNL     1       5.734   5.699  18.176  0.00  0.00    +0.000 C 
ATOM     20  C   UNL     1       5.167   4.102  16.411  0.00  0.00    +0.000 C 
ENDBRANCH  11  16
TORSDOF 1
ENDMDL
MODEL 8
REMARK VINA RESULT:      -6.6      4.187      7.048
REMARK  Name = 
REMARK  5 active torsions:
REMARK  status: ('A' for Active; 'I' for Inactive)
REMARK    1  A    between atoms: C_1  and  C_2
REMARK    2  A    between atoms: C_11  and  C_12
REMARK    3  A    between atoms: N_14  and  C_15
REMARK    4  A    between atoms: N_14  and  C_16
REMARK    5  A    between atoms: C_17  and  C_18
REMARK                            x       y       z     vdW  Elec       q    Type
REMARK                         _______ _______ _______ _____ _____    ______ ____
ROOT
ATOM      1  C   UNL     1       2.202   3.561  21.585  0.00  0.00    +0.000 C 
ATOM      2  C   UNL     1       2.650   4.298  20.355  0.00  0.00    +0.000 A 
ATOM      3  C   UNL     1       3.429   3.715  19.428  0.00  0.00    +0.000 A 
ATOM      4  C   UNL     1       3.810   4.495  18.239  0.00  0.00    +0.000 A 
ATOM      5  O   UNL     1       4.548   4.027  17.380  0.00  0.00    +0.000 OA
ATOM      6  N   UNL     1       3.290   5.751  18.181  0.00  0.00    +0.000 N 
ATOM      7  C   UNL     1       2.536   6.255  19.205  0.00  0.00    +0.000 A 
ATOM      8  N   UNL     1       2.167   7.602  18.973  0.00  0.00    +0.000 N 
ATOM      9  N   UNL     1       2.497   8.195  17.786  0.00  0.00    +0.000 NA
ATOM     10  C   UNL     1       1.959   9.413  17.873  0.00  0.00    +0.000 A 
ATOM     11  C   UNL     1       1.357   9.685  19.122  0.00  0.00    +0.000 A 
ATOM     12  C   UNL     1       1.487   8.477  19.805  0.00  0.00    +0.000 A 
ATOM     13  C   UNL     1       1.026   8.074  21.165  0.00  0.00    +0.000 C 
ATOM     14  N   UNL     1       2.207   5.593  20.266  0.00  0.00    +0.000 NA
ATOM     15  H   UNL     1       3.509   6.346  17.389  0.00  0.00    +0.000 HD
ENDROOT
BRANCH  11  16
ATOM     16  C   UNL     1       0.642  10.858  19.628  0.00  0.00    +0.000 C 
ATOM     17  O   UNL     1       1.238  11.629  20.386  0.00  0.00    +0.000 OA
ATOM     18  N   UNL     1      -0.679  11.130  19.255  0.00  0.00    +0.000 N 
ATOM     19  C   UNL     1      -1.527  10.374  18.349  0.00  0.00    +0.000 C 
ATOM     20  C   UNL     1      -1.284  12.359  19.758  0.00  0.00    +0.000 C 
ENDBRANCH  11  16
TORSDOF 1
ENDMDL
MODEL 9
REMARK VINA RESULT:      -6.5      4.320      7.099
REMARK  Name = 
REMARK  5 active torsions:
REMARK  status: ('A' for Active; 'I' for Inactive)
REMARK    1  A    between atoms: C_1  and  C_2
REMARK    2  A    between atoms: C_11  and  C_12
REMARK    3  A    between atoms: N_14  and  C_15
REMARK    4  A    between atoms: N_14  and  C_16
REMARK    5  A    between atoms: C_17  and  C_18
REMARK                            x       y       z     vdW  Elec       q    Type
REMARK                         _______ _______ _______ _____ _____    ______ ____
ROOT
ATOM      1  C   UNL     1       4.901   6.505  16.309  0.00  0.00    +0.000 C 
ATOM      2  C   UNL     1       4.172   6.189  17.584  0.00  0.00    +0.000 A 
ATOM      3  C   UNL     1       4.324   5.010  18.210  0.00  0.00    +0.000 A 
ATOM      4  C   UNL     1       3.591   4.783  19.467  0.00  0.00    +0.000 A 
ATOM      5  O   UNL     1       3.663   3.713  20.060  0.00  0.00    +0.000 OA
ATOM      6  N   UNL     1       2.842   5.833  19.898  0.00  0.00    +0.000 N 
ATOM      7  C   UNL     1       2.732   6.977  19.155  0.00  0.00    +0.000 A 
ATOM      8  N   UNL     1       1.842   7.905  19.749  0.00  0.00    +0.000 N 
ATOM      9  N   UNL     1       1.293   7.624  20.970  0.00  0.00    +0.000 NA
ATOM     10  C   UNL     1       0.569   8.709  21.255  0.00  0.00    +0.000 A 
ATOM     11  C   UNL     1       0.545   9.670  20.220  0.00  0.00    +0.000 A 
ATOM     12  C   UNL     1       1.404   9.127  19.265  0.00  0.00    +0.000 A 
ATOM     13  C   UNL     1       1.850   9.657  17.945  0.00  0.00    +0.000 C 
ATOM     14  N   UNL     1       3.351   7.189  18.040  0.00  0.00    +0.000 NA
ATOM     15  H   UNL     1       2.311   5.748  20.757  0.00  0.00    +0.000 HD
ENDROOT
BRANCH  11  16
ATOM     16  C   UNL     1      -0.088  10.987  20.123  0.00  0.00    +0.000 C 
ATOM     17  O   UNL     1       0.374  11.913  20.796  0.00  0.00    +0.000 OA
ATOM     18  N   UNL     1      -1.178  11.216  19.275  0.00  0.00    +0.000 N 
ATOM     19  C   UNL     1      -1.830  10.275  18.382  0.00  0.00    +0.000 C 
ATOM     20  C   UNL     1      -1.696  12.578  19.196  0.00  0.00    +0.000 C 
ENDBRANCH  11  16
TORSDOF 1
ENDMDL
