MODEL 1
REMARK VINA RESULT:      -9.4      0.000      0.000
REMARK  Name = 
REMARK  4 active torsions:
REMARK  status: ('A' for Active; 'I' for Inactive)
REMARK    1  A    between atoms: C_2  and  C_9
REMARK    2  A    between atoms: N_3  and  N_4
REMARK    3  A    between atoms: N_11  and  C_12
REMARK    4  A    between atoms: C_25  and  C_26
REMARK                            x       y       z     vdW  Elec       q    Type
REMARK                         _______ _______ _______ _____ _____    ______ ____
ROOT
ATOM      1  C   UNL     1      -1.762  11.795  21.043  0.00  0.00    +0.000 A 
ATOM      2  N   UNL     1      -2.433  12.021  19.883  0.00  0.00    +0.000 NA
ATOM      3  N   UNL     1      -1.891  11.147  18.962  0.00  0.00    +0.000 N 
ATOM      4  C   UNL     1      -0.792  10.539  19.507  0.00  0.00    +0.000 A 
ATOM      5  C   UNL     1      -0.774  10.815  20.841  0.00  0.00    +0.000 A 
ATOM      6  C   UNL     1       0.262  10.055  21.606  0.00  0.00    +0.000 C 
ATOM      7  C   UNL     1       0.820   9.242  20.416  0.00  0.00    +0.000 A 
ATOM      8  C   UNL     1       1.766   8.223  20.465  0.00  0.00    +0.000 A 
ATOM      9  C   UNL     1       2.164   7.589  19.270  0.00  0.00    +0.000 A 
ATOM     10  C   UNL     1       1.650   8.078  18.041  0.00  0.00    +0.000 A 
ATOM     11  C   UNL     1       0.707   9.105  17.987  0.00  0.00    +0.000 A 
ATOM     12  C   UNL     1       0.245   9.613  19.178  0.00  0.00    +0.000 A 
ENDROOT
BRANCH   3  13
ATOM     13  C   UNL     1      -2.506  10.877  17.706  0.00  0.00    +0.000 A 
ATOM     14  C   UNL     1      -1.800  10.101  16.760  0.00  0.00    +0.000 A 
ATOM     15  C   UNL     1      -2.311   9.862  15.482  0.00  0.00    +0.000 A 
ATOM     16  C   UNL     1      -3.563  10.355  15.149  0.00  0.00    +0.000 A 
ATOM     17 CL   UNL     1      -4.204  10.061  13.580  0.00  0.00    +0.000 Cl
ATOM     18  C   UNL     1      -4.302  11.079  16.082  0.00  0.00    +0.000 A 
ATOM     19  C   UNL     1      -3.778  11.349  17.361  0.00  0.00    +0.000 A 
ATOM     20 CL   UNL     1      -4.761  12.357  18.366  0.00  0.00    +0.000 Cl
ENDBRANCH   3  13
BRANCH   9  21
ATOM     21  C   UNL     1       3.039   6.335  19.210  0.00  0.00    +0.000 C 
ATOM     22  C   UNL     1       2.839   5.381  20.404  0.00  0.00    +0.000 C 
ATOM     23  C   UNL     1       1.611   4.490  20.257  0.00  0.00    +0.000 C 
ATOM     24  C   UNL     1       1.629   3.707  18.949  0.00  0.00    +0.000 C 
ATOM     25  C   UNL     1       1.834   4.604  17.734  0.00  0.00    +0.000 C 
ATOM     26  C   UNL     1       3.030   5.541  17.890  0.00  0.00    +0.000 C 
ENDBRANCH   9  21
BRANCH   1  28
ATOM     27  O   UNL     1      -1.125  13.004  22.966  0.00  0.00    +0.000 OA
ATOM     28  C   UNL     1      -2.038  12.513  22.305  0.00  0.00    +0.000 C 
ATOM     29  N   UNL     1      -3.391  12.608  22.640  0.00  0.00    +0.000 N 
ATOM     30  H   UNL     1      -4.069  12.170  22.018  0.00  0.00    +0.000 HD
BRANCH  29  31
ATOM     31  N   UNL     1      -3.784  13.317  23.808  0.00  0.00    +0.000 NA
ATOM     32  C   UNL     1      -4.743  12.589  24.648  0.00  0.00    +0.000 C 
ATOM     33  C   UNL     1      -6.108  13.097  24.229  0.00  0.00    +0.000 C 
ATOM     34  C   UNL     1      -5.854  14.561  23.931  0.00  0.00    +0.000 C 
ATOM     35  C   UNL     1      -4.397  14.619  23.485  0.00  0.00    +0.000 C 
ENDBRANCH  29  31
ENDBRANCH   1  28
TORSDOF 4
ENDMDL
MODEL 2
REMARK VINA RESULT:      -9.1      4.393      8.322
REMARK  Name = 
REMARK  4 active torsions:
REMARK  status: ('A' for Active; 'I' for Inactive)
REMARK    1  A    between atoms: C_2  and  C_9
REMARK    2  A    between atoms: N_3  and  N_4
REMARK    3  A    between atoms: N_11  and  C_12
REMARK    4  A    between atoms: C_25  and  C_26
REMARK                            x       y       z     vdW  Elec       q    Type
REMARK                         _______ _______ _______ _____ _____    ______ ____
ROOT
ATOM      1  C   UNL     1       0.762   9.940  18.453  0.00  0.00    +0.000 A 
ATOM      2  N   UNL     1      -0.585   9.755  18.469  0.00  0.00    +0.000 NA
ATOM      3  N   UNL     1      -1.134  11.019  18.544  0.00  0.00    +0.000 N 
ATOM      4  C   UNL     1      -0.138  11.934  18.757  0.00  0.00    +0.000 A 
ATOM      5  C   UNL     1       1.058  11.310  18.562  0.00  0.00    +0.000 A 
ATOM      6  C   UNL     1       2.234  12.233  18.568  0.00  0.00    +0.000 C 
ATOM      7  C   UNL     1       1.446  13.546  18.773  0.00  0.00    +0.000 A 
ATOM      8  C   UNL     1       1.952  14.842  18.754  0.00  0.00    +0.000 A 
ATOM      9  C   UNL     1       1.080  15.930  18.967  0.00  0.00    +0.000 A 
ATOM     10  C   UNL     1      -0.276  15.659  19.284  0.00  0.00    +0.000 A 
ATOM     11  C   UNL     1      -0.786  14.360  19.311  0.00  0.00    +0.000 A 
ATOM     12  C   UNL     1       0.062  13.332  18.973  0.00  0.00    +0.000 A 
ENDROOT
BRANCH   3  13
ATOM     13  C   UNL     1      -2.515  11.271  18.304  0.00  0.00    +0.000 A 
ATOM     14  C   UNL     1      -3.274  11.901  19.315  0.00  0.00    +0.000 A 
ATOM     15  C   UNL     1      -4.648  12.110  19.176  0.00  0.00    +0.000 A 
ATOM     16  C   UNL     1      -5.275  11.738  17.997  0.00  0.00    +0.000 A 
ATOM     17 CL   UNL     1      -6.966  11.996  17.814  0.00  0.00    +0.000 Cl
ATOM     18  C   UNL     1      -4.538  11.163  16.963  0.00  0.00    +0.000 A 
ATOM     19  C   UNL     1      -3.159  10.922  17.111  0.00  0.00    +0.000 A 
ATOM     20 CL   UNL     1      -2.406  10.097  15.789  0.00  0.00    +0.000 Cl
ENDBRANCH   3  13
BRANCH   9  21
ATOM     21  C   UNL     1       1.471  17.397  18.776  0.00  0.00    +0.000 C 
ATOM     22  C   UNL     1       2.556  17.617  17.703  0.00  0.00    +0.000 C 
ATOM     23  C   UNL     1       1.999  17.617  16.284  0.00  0.00    +0.000 C 
ATOM     24  C   UNL     1       0.872  18.629  16.114  0.00  0.00    +0.000 C 
ATOM     25  C   UNL     1      -0.225  18.461  17.159  0.00  0.00    +0.000 C 
ATOM     26  C   UNL     1       0.323  18.405  18.584  0.00  0.00    +0.000 C 
ENDBRANCH   9  21
BRANCH   1  28
ATOM     27  O   UNL     1       2.557   8.791  17.442  0.00  0.00    +0.000 OA
ATOM     28  C   UNL     1       1.741   8.837  18.361  0.00  0.00    +0.000 C 
ATOM     29  N   UNL     1       1.676   7.908  19.403  0.00  0.00    +0.000 N 
ATOM     30  H   UNL     1       0.965   8.044  20.120  0.00  0.00    +0.000 HD
BRANCH  29  31
ATOM     31  N   UNL     1       2.600   6.829  19.448  0.00  0.00    +0.000 NA
ATOM     32  C   UNL     1       2.778   6.147  18.161  0.00  0.00    +0.000 C 
ATOM     33  C   UNL     1       1.834   4.962  18.201  0.00  0.00    +0.000 C 
ATOM     34  C   UNL     1       1.890   4.526  19.650  0.00  0.00    +0.000 C 
ATOM     35  C   UNL     1       2.202   5.800  20.428  0.00  0.00    +0.000 C 
ENDBRANCH  29  31
ENDBRANCH   1  28
TORSDOF 4
ENDMDL
MODEL 3
REMARK VINA RESULT:      -9.0      4.838      6.905
REMARK  Name = 
REMARK  4 active torsions:
REMARK  status: ('A' for Active; 'I' for Inactive)
REMARK    1  A    between atoms: C_2  and  C_9
REMARK    2  A    between atoms: N_3  and  N_4
REMARK    3  A    between atoms: N_11  and  C_12
REMARK    4  A    between atoms: C_25  and  C_26
REMARK                            x       y       z     vdW  Elec       q    Type
REMARK                         _______ _______ _______ _____ _____    ______ ____
ROOT
ATOM      1  C   UNL     1      -1.804  12.238  19.781  0.00  0.00    +0.000 A 
ATOM      2  N   UNL     1      -1.406  10.961  19.540  0.00  0.00    +0.000 NA
ATOM      3  N   UNL     1      -0.065  11.042  19.224  0.00  0.00    +0.000 N 
ATOM      4  C   UNL     1       0.293  12.357  19.096  0.00  0.00    +0.000 A 
ATOM      5  C   UNL     1      -0.729  13.121  19.575  0.00  0.00    +0.000 A 
ATOM      6  C   UNL     1      -0.403  14.576  19.681  0.00  0.00    +0.000 C 
ATOM      7  C   UNL     1       1.059  14.481  19.190  0.00  0.00    +0.000 A 
ATOM      8  C   UNL     1       2.003  15.503  19.155  0.00  0.00    +0.000 A 
ATOM      9  C   UNL     1       3.298  15.234  18.667  0.00  0.00    +0.000 A 
ATOM     10  C   UNL     1       3.569  13.945  18.139  0.00  0.00    +0.000 A 
ATOM     11  C   UNL     1       2.623  12.920  18.165  0.00  0.00    +0.000 A 
ATOM     12  C   UNL     1       1.414  13.179  18.764  0.00  0.00    +0.000 A 
ENDROOT
BRANCH   3  13
ATOM     13  C   UNL     1       0.783   9.898  19.178  0.00  0.00    +0.000 A 
ATOM     14  C   UNL     1       1.378   9.545  17.946  0.00  0.00    +0.000 A 
ATOM     15  C   UNL     1       2.158   8.395  17.813  0.00  0.00    +0.000 A 
ATOM     16  C   UNL     1       2.398   7.604  18.926  0.00  0.00    +0.000 A 
ATOM     17 CL   UNL     1       3.362   6.188  18.774  0.00  0.00    +0.000 Cl
ATOM     18  C   UNL     1       1.866   7.959  20.165  0.00  0.00    +0.000 A 
ATOM     19  C   UNL     1       1.053   9.102  20.297  0.00  0.00    +0.000 A 
ATOM     20 CL   UNL     1       0.371   9.346  21.869  0.00  0.00    +0.000 Cl
ENDBRANCH   3  13
BRANCH   9  21
ATOM     21  C   UNL     1       4.473  16.209  18.760  0.00  0.00    +0.000 C 
ATOM     22  C   UNL     1       4.396  17.162  19.969  0.00  0.00    +0.000 C 
ATOM     23  C   UNL     1       4.871  16.519  21.267  0.00  0.00    +0.000 C 
ATOM     24  C   UNL     1       6.276  15.943  21.135  0.00  0.00    +0.000 C 
ATOM     25  C   UNL     1       6.410  14.999  19.946  0.00  0.00    +0.000 C 
ATOM     26  C   UNL     1       5.887  15.610  18.647  0.00  0.00    +0.000 C 
ENDBRANCH   9  21
BRANCH   1  28
ATOM     27  O   UNL     1      -3.420  13.047  21.297  0.00  0.00    +0.000 OA
ATOM     28  C   UNL     1      -3.179  12.610  20.172  0.00  0.00    +0.000 C 
ATOM     29  N   UNL     1      -4.136  12.457  19.167  0.00  0.00    +0.000 N 
ATOM     30  H   UNL     1      -3.829  12.092  18.266  0.00  0.00    +0.000 HD
BRANCH  29  31
ATOM     31  N   UNL     1      -5.487  12.827  19.411  0.00  0.00    +0.000 NA
ATOM     32  C   UNL     1      -6.314  11.735  19.939  0.00  0.00    +0.000 C 
ATOM     33  C   UNL     1      -7.000  11.132  18.729  0.00  0.00    +0.000 C 
ATOM     34  C   UNL     1      -7.266  12.336  17.849  0.00  0.00    +0.000 C 
ATOM     35  C   UNL     1      -6.155  13.322  18.193  0.00  0.00    +0.000 C 
ENDBRANCH  29  31
ENDBRANCH   1  28
TORSDOF 4
ENDMDL
MODEL 4
REMARK VINA RESULT:      -9.0      0.812      1.040
REMARK  Name = 
REMARK  4 active torsions:
REMARK  status: ('A' for Active; 'I' for Inactive)
REMARK    1  A    between atoms: C_2  and  C_9
REMARK    2  A    between atoms: N_3  and  N_4
REMARK    3  A    between atoms: N_11  and  C_12
REMARK    4  A    between atoms: C_25  and  C_26
REMARK                            x       y       z     vdW  Elec       q    Type
REMARK                         _______ _______ _______ _____ _____    ______ ____
ROOT
ATOM      1  C   UNL     1      -1.503  11.862  21.192  0.00  0.00    +0.000 A 
ATOM      2  N   UNL     1      -2.215  12.094  20.057  0.00  0.00    +0.000 NA
ATOM      3  N   UNL     1      -1.747  11.185  19.130  0.00  0.00    +0.000 N 
ATOM      4  C   UNL     1      -0.650  10.543  19.638  0.00  0.00    +0.000 A 
ATOM      5  C   UNL     1      -0.564  10.841  20.966  0.00  0.00    +0.000 A 
ATOM      6  C   UNL     1       0.475  10.054  21.699  0.00  0.00    +0.000 C 
ATOM      7  C   UNL     1       0.949   9.200  20.502  0.00  0.00    +0.000 A 
ATOM      8  C   UNL     1       1.857   8.145  20.529  0.00  0.00    +0.000 A 
ATOM      9  C   UNL     1       2.178   7.477  19.330  0.00  0.00    +0.000 A 
ATOM     10  C   UNL     1       1.631   7.965  18.115  0.00  0.00    +0.000 A 
ATOM     11  C   UNL     1       0.726   9.027  18.083  0.00  0.00    +0.000 A 
ATOM     12  C   UNL     1       0.336   9.572  19.282  0.00  0.00    +0.000 A 
ENDROOT
BRANCH   3  13
ATOM     13  C   UNL     1      -2.425  10.919  17.906  0.00  0.00    +0.000 A 
ATOM     14  C   UNL     1      -1.755  10.177  16.908  0.00  0.00    +0.000 A 
ATOM     15  C   UNL     1      -2.332   9.945  15.658  0.00  0.00    +0.000 A 
ATOM     16  C   UNL     1      -3.614  10.409  15.404  0.00  0.00    +0.000 A 
ATOM     17 CL   UNL     1      -4.335  10.123  13.869  0.00  0.00    +0.000 Cl
ATOM     18  C   UNL     1      -4.317  11.098  16.391  0.00  0.00    +0.000 A 
ATOM     19  C   UNL     1      -3.727  11.361  17.643  0.00  0.00    +0.000 A 
ATOM     20 CL   UNL     1      -4.678  12.326  18.720  0.00  0.00    +0.000 Cl
ENDBRANCH   3  13
BRANCH   9  21
ATOM     21  C   UNL     1       3.000   6.188  19.255  0.00  0.00    +0.000 C 
ATOM     22  C   UNL     1       2.752   5.224  20.431  0.00  0.00    +0.000 C 
ATOM     23  C   UNL     1       1.489   4.387  20.259  0.00  0.00    +0.000 C 
ATOM     24  C   UNL     1       1.486   3.626  18.939  0.00  0.00    +0.000 C 
ATOM     25  C   UNL     1       1.737   4.534  17.741  0.00  0.00    +0.000 C 
ATOM     26  C   UNL     1       2.970   5.418  17.922  0.00  0.00    +0.000 C 
ENDBRANCH   9  21
BRANCH   1  28
ATOM     27  O   UNL     1      -1.230  12.196  23.511  0.00  0.00    +0.000 OA
ATOM     28  C   UNL     1      -1.697  12.610  22.450  0.00  0.00    +0.000 C 
ATOM     29  N   UNL     1      -2.404  13.807  22.317  0.00  0.00    +0.000 N 
ATOM     30  H   UNL     1      -2.742  14.062  21.390  0.00  0.00    +0.000 HD
BRANCH  29  31
ATOM     31  N   UNL     1      -2.612  14.639  23.451  0.00  0.00    +0.000 NA
ATOM     32  C   UNL     1      -3.941  14.491  24.058  0.00  0.00    +0.000 C 
ATOM     33  C   UNL     1      -4.781  15.598  23.453  0.00  0.00    +0.000 C 
ATOM     34  C   UNL     1      -3.797  16.741  23.316  0.00  0.00    +0.000 C 
ATOM     35  C   UNL     1      -2.442  16.068  23.131  0.00  0.00    +0.000 C 
ENDBRANCH  29  31
ENDBRANCH   1  28
TORSDOF 4
ENDMDL
MODEL 5
REMARK VINA RESULT:      -8.9      1.076      1.131
REMARK  Name = 
REMARK  4 active torsions:
REMARK  status: ('A' for Active; 'I' for Inactive)
REMARK    1  A    between atoms: C_2  and  C_9
REMARK    2  A    between atoms: N_3  and  N_4
REMARK    3  A    between atoms: N_11  and  C_12
REMARK    4  A    between atoms: C_25  and  C_26
REMARK                            x       y       z     vdW  Elec       q    Type
REMARK                         _______ _______ _______ _____ _____    ______ ____
ROOT
ATOM      1  C   UNL     1      -1.571  11.482  21.576  0.00  0.00    +0.000 A 
ATOM      2  N   UNL     1      -2.107  11.839  20.379  0.00  0.00    +0.000 NA
ATOM      3  N   UNL     1      -1.536  10.996  19.447  0.00  0.00    +0.000 N 
ATOM      4  C   UNL     1      -0.539  10.271  20.043  0.00  0.00    +0.000 A 
ATOM      5  C   UNL     1      -0.636  10.449  21.391  0.00  0.00    +0.000 A 
ATOM      6  C   UNL     1       0.266   9.562  22.188  0.00  0.00    +0.000 C 
ATOM      7  C   UNL     1       0.885   8.797  20.996  0.00  0.00    +0.000 A 
ATOM      8  C   UNL     1       1.752   7.710  21.053  0.00  0.00    +0.000 A 
ATOM      9  C   UNL     1       2.224   7.137  19.854  0.00  0.00    +0.000 A 
ATOM     10  C   UNL     1       1.868   7.749  18.625  0.00  0.00    +0.000 A 
ATOM     11  C   UNL     1       1.005   8.843  18.563  0.00  0.00    +0.000 A 
ATOM     12  C   UNL     1       0.462   9.297  19.741  0.00  0.00    +0.000 A 
ENDROOT
BRANCH   3  13
ATOM     13  C   UNL     1      -2.039  10.864  18.121  0.00  0.00    +0.000 A 
ATOM     14  C   UNL     1      -2.850   9.749  17.813  0.00  0.00    +0.000 A 
ATOM     15  C   UNL     1      -3.314   9.518  16.517  0.00  0.00    +0.000 A 
ATOM     16  C   UNL     1      -3.016  10.430  15.516  0.00  0.00    +0.000 A 
ATOM     17 CL   UNL     1      -3.588  10.157  13.917  0.00  0.00    +0.000 Cl
ATOM     18  C   UNL     1      -2.261  11.565  15.806  0.00  0.00    +0.000 A 
ATOM     19  C   UNL     1      -1.765  11.787  17.105  0.00  0.00    +0.000 A 
ATOM     20 CL   UNL     1      -0.749  13.176  17.282  0.00  0.00    +0.000 Cl
ENDBRANCH   3  13
BRANCH   9  21
ATOM     21  C   UNL     1       3.015   5.829  19.778  0.00  0.00    +0.000 C 
ATOM     22  C   UNL     1       2.524   4.748  20.760  0.00  0.00    +0.000 C 
ATOM     23  C   UNL     1       1.297   3.995  20.255  0.00  0.00    +0.000 C 
ATOM     24  C   UNL     1       1.529   3.392  18.874  0.00  0.00    +0.000 C 
ATOM     25  C   UNL     1       2.026   4.420  17.865  0.00  0.00    +0.000 C 
ATOM     26  C   UNL     1       3.221   5.219  18.379  0.00  0.00    +0.000 C 
ENDBRANCH   9  21
BRANCH   1  28
ATOM     27  O   UNL     1      -1.051  12.556  23.610  0.00  0.00    +0.000 OA
ATOM     28  C   UNL     1      -1.924  12.125  22.858  0.00  0.00    +0.000 C 
ATOM     29  N   UNL     1      -3.294  12.226  23.106  0.00  0.00    +0.000 N 
ATOM     30  H   UNL     1      -3.935  11.841  22.412  0.00  0.00    +0.000 HD
BRANCH  29  31
ATOM     31  N   UNL     1      -3.757  12.869  24.286  0.00  0.00    +0.000 NA
ATOM     32  C   UNL     1      -5.023  12.331  24.796  0.00  0.00    +0.000 C 
ATOM     33  C   UNL     1      -6.100  13.234  24.229  0.00  0.00    +0.000 C 
ATOM     34  C   UNL     1      -5.445  14.600  24.241  0.00  0.00    +0.000 C 
ATOM     35  C   UNL     1      -3.954  14.318  24.087  0.00  0.00    +0.000 C 
ENDBRANCH  29  31
ENDBRANCH   1  28
TORSDOF 4
ENDMDL
MODEL 6
REMARK VINA RESULT:      -8.8      4.429      8.301
REMARK  Name = 
REMARK  4 active torsions:
REMARK  status: ('A' for Active; 'I' for Inactive)
REMARK    1  A    between atoms: C_2  and  C_9
REMARK    2  A    between atoms: N_3  and  N_4
REMARK    3  A    between atoms: N_11  and  C_12
REMARK    4  A    between atoms: C_25  and  C_26
REMARK                            x       y       z     vdW  Elec       q    Type
REMARK                         _______ _______ _______ _____ _____    ______ ____
ROOT
ATOM      1  C   UNL     1       0.943   9.806  18.209  0.00  0.00    +0.000 A 
ATOM      2  N   UNL     1      -0.406   9.641  18.259  0.00  0.00    +0.000 NA
ATOM      3  N   UNL     1      -0.933  10.910  18.385  0.00  0.00    +0.000 N 
ATOM      4  C   UNL     1       0.083  11.804  18.594  0.00  0.00    +0.000 A 
ATOM      5  C   UNL     1       1.263  11.168  18.347  0.00  0.00    +0.000 A 
ATOM      6  C   UNL     1       2.453  12.073  18.343  0.00  0.00    +0.000 C 
ATOM      7  C   UNL     1       1.691  13.392  18.608  0.00  0.00    +0.000 A 
ATOM      8  C   UNL     1       2.217  14.680  18.610  0.00  0.00    +0.000 A 
ATOM      9  C   UNL     1       1.369  15.774  18.878  0.00  0.00    +0.000 A 
ATOM     10  C   UNL     1       0.018  15.514  19.227  0.00  0.00    +0.000 A 
ATOM     11  C   UNL     1      -0.511  14.224  19.233  0.00  0.00    +0.000 A 
ATOM     12  C   UNL     1       0.310  13.193  18.843  0.00  0.00    +0.000 A 
ENDROOT
BRANCH   3  13
ATOM     13  C   UNL     1      -2.316  11.190  18.193  0.00  0.00    +0.000 A 
ATOM     14  C   UNL     1      -2.887  10.941  16.925  0.00  0.00    +0.000 A 
ATOM     15  C   UNL     1      -4.217  11.261  16.645  0.00  0.00    +0.000 A 
ATOM     16  C   UNL     1      -5.013  11.790  17.649  0.00  0.00    +0.000 A 
ATOM     17 CL   UNL     1      -6.654  12.183  17.317  0.00  0.00    +0.000 Cl
ATOM     18  C   UNL     1      -4.489  11.996  18.924  0.00  0.00    +0.000 A 
ATOM     19  C   UNL     1      -3.139  11.703  19.202  0.00  0.00    +0.000 A 
ATOM     20 CL   UNL     1      -2.605  12.121  20.794  0.00  0.00    +0.000 Cl
ENDBRANCH   3  13
BRANCH   9  21
ATOM     21  C   UNL     1       1.776  17.240  18.717  0.00  0.00    +0.000 C 
ATOM     22  C   UNL     1       2.727  17.494  17.530  0.00  0.00    +0.000 C 
ATOM     23  C   UNL     1       2.001  17.584  16.193  0.00  0.00    +0.000 C 
ATOM     24  C   UNL     1       0.892  18.630  16.217  0.00  0.00    +0.000 C 
ATOM     25  C   UNL     1      -0.073  18.431  17.379  0.00  0.00    +0.000 C 
ATOM     26  C   UNL     1       0.644  18.284  18.720  0.00  0.00    +0.000 C 
ENDBRANCH   9  21
BRANCH   1  28
ATOM     27  O   UNL     1       2.770   8.719  17.188  0.00  0.00    +0.000 OA
ATOM     28  C   UNL     1       1.901   8.693  18.058  0.00  0.00    +0.000 C 
ATOM     29  N   UNL     1       1.754   7.662  18.990  0.00  0.00    +0.000 N 
ATOM     30  H   UNL     1       1.003   7.742  19.675  0.00  0.00    +0.000 HD
BRANCH  29  31
ATOM     31  N   UNL     1       2.649   6.558  18.975  0.00  0.00    +0.000 NA
ATOM     32  C   UNL     1       2.327   5.548  17.960  0.00  0.00    +0.000 C 
ATOM     33  C   UNL     1       1.504   4.501  18.685  0.00  0.00    +0.000 C 
ATOM     34  C   UNL     1       2.136   4.460  20.061  0.00  0.00    +0.000 C 
ATOM     35  C   UNL     1       2.694   5.863  20.275  0.00  0.00    +0.000 C 
ENDBRANCH  29  31
ENDBRANCH   1  28
TORSDOF 4
ENDMDL
MODEL 7
REMARK VINA RESULT:      -8.7      4.669      6.755
REMARK  Name = 
REMARK  4 active torsions:
REMARK  status: ('A' for Active; 'I' for Inactive)
REMARK    1  A    between atoms: C_2  and  C_9
REMARK    2  A    between atoms: N_3  and  N_4
REMARK    3  A    between atoms: N_11  and  C_12
REMARK    4  A    between atoms: C_25  and  C_26
REMARK                            x       y       z     vdW  Elec       q    Type
REMARK                         _______ _______ _______ _____ _____    ______ ____
ROOT
ATOM      1  C   UNL     1      -2.007  11.805  18.901  0.00  0.00    +0.000 A 
ATOM      2  N   UNL     1      -1.499  10.547  18.806  0.00  0.00    +0.000 NA
ATOM      3  N   UNL     1      -0.127  10.700  18.778  0.00  0.00    +0.000 N 
ATOM      4  C   UNL     1       0.179  12.029  18.671  0.00  0.00    +0.000 A 
ATOM      5  C   UNL     1      -0.961  12.744  18.889  0.00  0.00    +0.000 A 
ATOM      6  C   UNL     1      -0.742  14.219  18.998  0.00  0.00    +0.000 C 
ATOM      7  C   UNL     1       0.794  14.198  18.832  0.00  0.00    +0.000 A 
ATOM      8  C   UNL     1       1.668  15.274  18.953  0.00  0.00    +0.000 A 
ATOM      9  C   UNL     1       3.050  15.070  18.762  0.00  0.00    +0.000 A 
ATOM     10  C   UNL     1       3.495  13.784  18.361  0.00  0.00    +0.000 A 
ATOM     11  C   UNL     1       2.621  12.704  18.231  0.00  0.00    +0.000 A 
ATOM     12  C   UNL     1       1.300  12.907  18.549  0.00  0.00    +0.000 A 
ENDROOT
BRANCH   3  13
ATOM     13  C   UNL     1       0.770   9.609  18.963  0.00  0.00    +0.000 A 
ATOM     14  C   UNL     1       1.507   9.143  17.852  0.00  0.00    +0.000 A 
ATOM     15  C   UNL     1       2.347   8.031  17.945  0.00  0.00    +0.000 A 
ATOM     16  C   UNL     1       2.502   7.398  19.168  0.00  0.00    +0.000 A 
ATOM     17 CL   UNL     1       3.538   6.030  19.294  0.00  0.00    +0.000 Cl
ATOM     18  C   UNL     1       1.826   7.870  20.292  0.00  0.00    +0.000 A 
ATOM     19  C   UNL     1       0.954   8.972  20.196  0.00  0.00    +0.000 A 
ATOM     20 CL   UNL     1       0.099   9.366  21.648  0.00  0.00    +0.000 Cl
ENDBRANCH   3  13
BRANCH   9  21
ATOM     21  C   UNL     1       4.125  16.118  19.059  0.00  0.00    +0.000 C 
ATOM     22  C   UNL     1       3.698  17.167  20.103  0.00  0.00    +0.000 C 
ATOM     23  C   UNL     1       3.834  16.670  21.538  0.00  0.00    +0.000 C 
ATOM     24  C   UNL     1       5.243  16.169  21.835  0.00  0.00    +0.000 C 
ATOM     25  C   UNL     1       5.719  15.133  20.824  0.00  0.00    +0.000 C 
ATOM     26  C   UNL     1       5.538  15.596  19.379  0.00  0.00    +0.000 C 
ENDBRANCH   9  21
BRANCH   1  28
ATOM     27  O   UNL     1      -4.249  11.562  18.213  0.00  0.00    +0.000 OA
ATOM     28  C   UNL     1      -3.451  12.104  18.976  0.00  0.00    +0.000 C 
ATOM     29  N   UNL     1      -3.813  12.999  19.986  0.00  0.00    +0.000 N 
ATOM     30  H   UNL     1      -3.072  13.386  20.569  0.00  0.00    +0.000 HD
BRANCH  29  31
ATOM     31  N   UNL     1      -5.181  13.327  20.187  0.00  0.00    +0.000 NA
ATOM     32  C   UNL     1      -5.398  14.702  20.652  0.00  0.00    +0.000 C 
ATOM     33  C   UNL     1      -5.500  14.602  22.161  0.00  0.00    +0.000 C 
ATOM     34  C   UNL     1      -6.216  13.283  22.371  0.00  0.00    +0.000 C 
ATOM     35  C   UNL     1      -5.828  12.434  21.167  0.00  0.00    +0.000 C 
ENDBRANCH  29  31
ENDBRANCH   1  28
TORSDOF 4
ENDMDL
MODEL 8
REMARK VINA RESULT:      -8.6      4.237      8.087
REMARK  Name = 
REMARK  4 active torsions:
REMARK  status: ('A' for Active; 'I' for Inactive)
REMARK    1  A    between atoms: C_2  and  C_9
REMARK    2  A    between atoms: N_3  and  N_4
REMARK    3  A    between atoms: N_11  and  C_12
REMARK    4  A    between atoms: C_25  and  C_26
REMARK                            x       y       z     vdW  Elec       q    Type
REMARK                         _______ _______ _______ _____ _____    ______ ____
ROOT
ATOM      1  C   UNL     1       0.351  10.183  20.301  0.00  0.00    +0.000 A 
ATOM      2  N   UNL     1      -0.973  10.042  20.025  0.00  0.00    +0.000 NA
ATOM      3  N   UNL     1      -1.421  11.304  19.691  0.00  0.00    +0.000 N 
ATOM      4  C   UNL     1      -0.432  12.217  19.941  0.00  0.00    +0.000 A 
ATOM      5  C   UNL     1       0.722  11.534  20.183  0.00  0.00    +0.000 A 
ATOM      6  C   UNL     1       1.935  12.403  20.279  0.00  0.00    +0.000 C 
ATOM      7  C   UNL     1       1.228  13.749  19.998  0.00  0.00    +0.000 A 
ATOM      8  C   UNL     1       1.828  14.993  19.827  0.00  0.00    +0.000 A 
ATOM      9  C   UNL     1       1.021  16.123  19.581  0.00  0.00    +0.000 A 
ATOM     10  C   UNL     1      -0.389  15.966  19.606  0.00  0.00    +0.000 A 
ATOM     11  C   UNL     1      -0.994  14.722  19.785  0.00  0.00    +0.000 A 
ATOM     12  C   UNL     1      -0.177  13.623  19.894  0.00  0.00    +0.000 A 
ENDROOT
BRANCH   3  13
ATOM     13  C   UNL     1      -2.683  11.531  19.072  0.00  0.00    +0.000 A 
ATOM     14  C   UNL     1      -3.655  12.283  19.769  0.00  0.00    +0.000 A 
ATOM     15  C   UNL     1      -4.937  12.479  19.253  0.00  0.00    +0.000 A 
ATOM     16  C   UNL     1      -5.253  11.969  18.004  0.00  0.00    +0.000 A 
ATOM     17 CL   UNL     1      -6.828  12.210  17.357  0.00  0.00    +0.000 Cl
ATOM     18  C   UNL     1      -4.295  11.268  17.272  0.00  0.00    +0.000 A 
ATOM     19  C   UNL     1      -3.010  11.041  17.801  0.00  0.00    +0.000 A 
ATOM     20 CL   UNL     1      -1.972  10.057  16.827  0.00  0.00    +0.000 Cl
ENDBRANCH   3  13
BRANCH   9  21
ATOM     21  C   UNL     1       1.562  17.498  19.182  0.00  0.00    +0.000 C 
ATOM     22  C   UNL     1       2.795  17.437  18.259  0.00  0.00    +0.000 C 
ATOM     23  C   UNL     1       2.434  17.193  16.798  0.00  0.00    +0.000 C 
ATOM     24  C   UNL     1       1.434  18.220  16.280  0.00  0.00    +0.000 C 
ATOM     25  C   UNL     1       0.197  18.327  17.164  0.00  0.00    +0.000 C 
ATOM     26  C   UNL     1       0.543  18.517  18.639  0.00  0.00    +0.000 C 
ENDBRANCH   9  21
BRANCH   1  28
ATOM     27  O   UNL     1       1.558   8.895  21.865  0.00  0.00    +0.000 OA
ATOM     28  C   UNL     1       1.232   9.064  20.691  0.00  0.00    +0.000 C 
ATOM     29  N   UNL     1       1.613   8.226  19.641  0.00  0.00    +0.000 N 
ATOM     30  H   UNL     1       1.281   8.452  18.704  0.00  0.00    +0.000 HD
BRANCH  29  31
ATOM     31  N   UNL     1       2.422   7.086  19.900  0.00  0.00    +0.000 NA
ATOM     32  C   UNL     1       3.161   6.604  18.726  0.00  0.00    +0.000 C 
ATOM     33  C   UNL     1       2.302   5.502  18.139  0.00  0.00    +0.000 C 
ATOM     34  C   UNL     1       1.706   4.840  19.364  0.00  0.00    +0.000 C 
ATOM     35  C   UNL     1       1.632   5.949  20.408  0.00  0.00    +0.000 C 
ENDBRANCH  29  31
ENDBRANCH   1  28
TORSDOF 4
ENDMDL
MODEL 9
REMARK VINA RESULT:      -8.5      1.637      1.911
REMARK  Name = 
REMARK  4 active torsions:
REMARK  status: ('A' for Active; 'I' for Inactive)
REMARK    1  A    between atoms: C_2  and  C_9
REMARK    2  A    between atoms: N_3  and  N_4
REMARK    3  A    between atoms: N_11  and  C_12
REMARK    4  A    between atoms: C_25  and  C_26
REMARK                            x       y       z     vdW  Elec       q    Type
REMARK                         _______ _______ _______ _____ _____    ______ ____
ROOT
ATOM      1  C   UNL     1      -1.336  11.564  21.693  0.00  0.00    +0.000 A 
ATOM      2  N   UNL     1      -1.913  11.927  20.517  0.00  0.00    +0.000 NA
ATOM      3  N   UNL     1      -1.413  11.054  19.571  0.00  0.00    +0.000 N 
ATOM      4  C   UNL     1      -0.415  10.302  20.131  0.00  0.00    +0.000 A 
ATOM      5  C   UNL     1      -0.445  10.498  21.480  0.00  0.00    +0.000 A 
ATOM      6  C   UNL     1       0.462   9.590  22.247  0.00  0.00    +0.000 C 
ATOM      7  C   UNL     1       1.000   8.791  21.038  0.00  0.00    +0.000 A 
ATOM      8  C   UNL     1       1.831   7.676  21.070  0.00  0.00    +0.000 A 
ATOM      9  C   UNL     1       2.230   7.074  19.859  0.00  0.00    +0.000 A 
ATOM     10  C   UNL     1       1.840   7.684  18.639  0.00  0.00    +0.000 A 
ATOM     11  C   UNL     1       1.013   8.807  18.602  0.00  0.00    +0.000 A 
ATOM     12  C   UNL     1       0.538   9.292  19.797  0.00  0.00    +0.000 A 
ENDROOT
BRANCH   3  13
ATOM     13  C   UNL     1      -1.979  10.925  18.271  0.00  0.00    +0.000 A 
ATOM     14  C   UNL     1      -2.835   9.831  18.011  0.00  0.00    +0.000 A 
ATOM     15  C   UNL     1      -3.364   9.602  16.740  0.00  0.00    +0.000 A 
ATOM     16  C   UNL     1      -3.086  10.496  15.717  0.00  0.00    +0.000 A 
ATOM     17 CL   UNL     1      -3.737  10.225  14.148  0.00  0.00    +0.000 Cl
ATOM     18  C   UNL     1      -2.286  11.611  15.960  0.00  0.00    +0.000 A 
ATOM     19  C   UNL     1      -1.725  11.830  17.234  0.00  0.00    +0.000 A 
ATOM     20 CL   UNL     1      -0.663  13.191  17.350  0.00  0.00    +0.000 Cl
ENDBRANCH   3  13
BRANCH   9  21
ATOM     21  C   UNL     1       2.972   5.739  19.764  0.00  0.00    +0.000 C 
ATOM     22  C   UNL     1       2.487   4.685  20.778  0.00  0.00    +0.000 C 
ATOM     23  C   UNL     1       1.216   3.970  20.333  0.00  0.00    +0.000 C 
ATOM     24  C   UNL     1       1.368   3.346  18.951  0.00  0.00    +0.000 C 
ATOM     25  C   UNL     1       1.856   4.346  17.910  0.00  0.00    +0.000 C 
ATOM     26  C   UNL     1       3.098   5.109  18.364  0.00  0.00    +0.000 C 
ENDBRANCH   9  21
BRANCH   1  28
ATOM     27  O   UNL     1      -2.113  11.618  23.920  0.00  0.00    +0.000 OA
ATOM     28  C   UNL     1      -1.609  12.233  22.982  0.00  0.00    +0.000 C 
ATOM     29  N   UNL     1      -1.218  13.573  23.040  0.00  0.00    +0.000 N 
ATOM     30  H   UNL     1      -0.802  13.986  22.206  0.00  0.00    +0.000 HD
BRANCH  29  31
ATOM     31  N   UNL     1      -1.386  14.309  24.245  0.00  0.00    +0.000 NA
ATOM     32  C   UNL     1      -2.788  14.592  24.575  0.00  0.00    +0.000 C 
ATOM     33  C   UNL     1      -3.055  15.980  24.029  0.00  0.00    +0.000 C 
ATOM     34  C   UNL     1      -1.743  16.700  24.262  0.00  0.00    +0.000 C 
ATOM     35  C   UNL     1      -0.683  15.606  24.206  0.00  0.00    +0.000 C 
ENDBRANCH  29  31
ENDBRANCH   1  28
TORSDOF 4
ENDMDL
