MODEL 1
REMARK VINA RESULT:      -8.4      0.000      0.000
REMARK  Name = 
REMARK  8 active torsions:
REMARK  status: ('A' for Active; 'I' for Inactive)
REMARK    1  A    between atoms: C_2  and  C_3
REMARK    2  A    between atoms: C_3  and  O_4
REMARK    3  A    between atoms: O_4  and  C_5
REMARK    4  A    between atoms: C_5  and  C_7
REMARK    5  A    between atoms: C_8  and  C_9
REMARK    6  A    between atoms: C_13  and  N_14
REMARK    7  A    between atoms: N_18  and  C_19
REMARK    8  A    between atoms: C_19  and  C_20
REMARK                            x       y       z     vdW  Elec       q    Type
REMARK                         _______ _______ _______ _____ _____    ______ ____
ROOT
ATOM      1  C   UNL     1       6.823   6.682  16.719  0.00  0.00    +0.000 C 
ENDROOT
BRANCH   1   3
ATOM      2  O   UNL     1       4.804   6.752  15.393  0.00  0.00    +0.000 OA
ATOM      3  C   UNL     1       5.314   6.751  16.510  0.00  0.00    +0.000 C 
ATOM      4  N   UNL     1       4.591   6.803  17.675  0.00  0.00    +0.000 N 
ATOM      5  H   UNL     1       5.054   6.627  18.559  0.00  0.00    +0.000 HD
BRANCH   4   6
ATOM      6  C   UNL     1       3.160   6.903  17.678  0.00  0.00    +0.000 C 
BRANCH   6   7
ATOM      7  C   UNL     1       2.558   5.694  18.337  0.00  0.00    +0.000 A 
ATOM      8  C   UNL     1       2.187   4.565  17.566  0.00  0.00    +0.000 A 
ATOM      9  C   UNL     1       1.796   3.374  18.184  0.00  0.00    +0.000 A 
ATOM     10  C   UNL     1       1.813   3.348  19.559  0.00  0.00    +0.000 A 
ATOM     11  C   UNL     1       2.086   4.472  20.308  0.00  0.00    +0.000 A 
ATOM     12  C   UNL     1       2.419   5.671  19.731  0.00  0.00    +0.000 A 
ATOM     13  O   UNL     1       2.118   4.206  21.643  0.00  0.00    +0.000 OA
ATOM     14  C   UNL     1       2.223   2.770  21.576  0.00  0.00    +0.000 C 
ATOM     15  O   UNL     1       1.679   2.242  20.347  0.00  0.00    +0.000 OA
ENDBRANCH   6   7
ENDBRANCH   4   6
ENDBRANCH   1   3
BRANCH   1  16
ATOM     16  O   UNL     1       7.389   7.971  16.921  0.00  0.00    +0.000 OA
BRANCH  16  17
ATOM     17  C   UNL     1       8.145   8.075  18.038  0.00  0.00    +0.000 C 
ATOM     18  O   UNL     1       8.426   7.166  18.802  0.00  0.00    +0.000 OA
BRANCH  17  19
ATOM     19  C   UNL     1       8.543   9.482  18.190  0.00  0.00    +0.000 C 
ATOM     20  C   UNL     1       9.268   9.866  19.254  0.00  0.00    +0.000 C 
BRANCH  20  21
ATOM     21  C   UNL     1       9.711  11.239  19.515  0.00  0.00    +0.000 A 
ATOM     22  C   UNL     1       9.745  11.696  20.842  0.00  0.00    +0.000 A 
ATOM     23  C   UNL     1      10.114  13.010  21.145  0.00  0.00    +0.000 A 
ATOM     24  C   UNL     1      10.442  13.895  20.120  0.00  0.00    +0.000 A 
ATOM     25  C   UNL     1      10.398  13.453  18.793  0.00  0.00    +0.000 A 
ATOM     26  C   UNL     1      10.033  12.133  18.486  0.00  0.00    +0.000 A 
BRANCH  25  27
ATOM     27  N   UNL     1      10.728  14.384  17.709  0.00  0.00    +0.000 N 
ATOM     28  O   UNL     1      10.522  15.591  17.901  0.00  0.00    +0.000 OA
ATOM     29  O   UNL     1      11.188  13.908  16.659  0.00  0.00    +0.000 OA
ENDBRANCH  25  27
ENDBRANCH  20  21
ENDBRANCH  17  19
ENDBRANCH  16  17
ENDBRANCH   1  16
TORSDOF 8
ENDMDL
MODEL 2
REMARK VINA RESULT:      -8.3      4.647      7.883
REMARK  Name = 
REMARK  8 active torsions:
REMARK  status: ('A' for Active; 'I' for Inactive)
REMARK    1  A    between atoms: C_2  and  C_3
REMARK    2  A    between atoms: C_3  and  O_4
REMARK    3  A    between atoms: O_4  and  C_5
REMARK    4  A    between atoms: C_5  and  C_7
REMARK    5  A    between atoms: C_8  and  C_9
REMARK    6  A    between atoms: C_13  and  N_14
REMARK    7  A    between atoms: N_18  and  C_19
REMARK    8  A    between atoms: C_19  and  C_20
REMARK                            x       y       z     vdW  Elec       q    Type
REMARK                         _______ _______ _______ _____ _____    ______ ____
ROOT
ATOM      1  C   UNL     1       2.734   1.990  20.013  0.00  0.00    +0.000 C 
ENDROOT
BRANCH   1   3
ATOM      2  O   UNL     1       3.788   1.147  18.007  0.00  0.00    +0.000 OA
ATOM      3  C   UNL     1       3.186   2.065  18.558  0.00  0.00    +0.000 C 
ATOM      4  N   UNL     1       2.853   3.239  17.930  0.00  0.00    +0.000 N 
ATOM      5  H   UNL     1       2.213   3.882  18.380  0.00  0.00    +0.000 HD
BRANCH   4   6
ATOM      6  C   UNL     1       3.222   3.505  16.570  0.00  0.00    +0.000 C 
BRANCH   6   7
ATOM      7  C   UNL     1       4.574   4.159  16.519  0.00  0.00    +0.000 A 
ATOM      8  C   UNL     1       5.292   4.231  15.301  0.00  0.00    +0.000 A 
ATOM      9  C   UNL     1       6.461   4.990  15.202  0.00  0.00    +0.000 A 
ATOM     10  C   UNL     1       6.858   5.675  16.328  0.00  0.00    +0.000 A 
ATOM     11  C   UNL     1       6.211   5.533  17.536  0.00  0.00    +0.000 A 
ATOM     12  C   UNL     1       5.094   4.751  17.678  0.00  0.00    +0.000 A 
ATOM     13  O   UNL     1       6.726   6.352  18.495  0.00  0.00    +0.000 OA
ATOM     14  C   UNL     1       7.464   7.249  17.641  0.00  0.00    +0.000 C 
ATOM     15  O   UNL     1       7.831   6.628  16.389  0.00  0.00    +0.000 OA
ENDBRANCH   6   7
ENDBRANCH   4   6
ENDBRANCH   1   3
BRANCH   1  16
ATOM     16  O   UNL     1       1.658   2.882  20.280  0.00  0.00    +0.000 OA
BRANCH  16  17
ATOM     17  C   UNL     1       1.901   3.754  21.284  0.00  0.00    +0.000 C 
ATOM     18  O   UNL     1       2.351   3.478  22.384  0.00  0.00    +0.000 OA
BRANCH  17  19
ATOM     19  C   UNL     1       1.495   5.094  20.830  0.00  0.00    +0.000 C 
ATOM     20  C   UNL     1       2.320   5.822  20.060  0.00  0.00    +0.000 C 
BRANCH  20  21
ATOM     21  C   UNL     1       2.028   7.169  19.560  0.00  0.00    +0.000 A 
ATOM     22  C   UNL     1       2.374   7.488  18.237  0.00  0.00    +0.000 A 
ATOM     23  C   UNL     1       2.162   8.770  17.723  0.00  0.00    +0.000 A 
ATOM     24  C   UNL     1       1.610   9.762  18.531  0.00  0.00    +0.000 A 
ATOM     25  C   UNL     1       1.274   9.458  19.855  0.00  0.00    +0.000 A 
ATOM     26  C   UNL     1       1.481   8.170  20.373  0.00  0.00    +0.000 A 
BRANCH  25  27
ATOM     27  N   UNL     1       0.706  10.501  20.716  0.00  0.00    +0.000 N 
ATOM     28  O   UNL     1       0.900  10.413  21.936  0.00  0.00    +0.000 OA
ATOM     29  O   UNL     1       0.059  11.410  20.171  0.00  0.00    +0.000 OA
ENDBRANCH  25  27
ENDBRANCH  20  21
ENDBRANCH  17  19
ENDBRANCH  16  17
ENDBRANCH   1  16
TORSDOF 8
ENDMDL
MODEL 3
REMARK VINA RESULT:      -8.3      4.066      8.165
REMARK  Name = 
REMARK  8 active torsions:
REMARK  status: ('A' for Active; 'I' for Inactive)
REMARK    1  A    between atoms: C_2  and  C_3
REMARK    2  A    between atoms: C_3  and  O_4
REMARK    3  A    between atoms: O_4  and  C_5
REMARK    4  A    between atoms: C_5  and  C_7
REMARK    5  A    between atoms: C_8  and  C_9
REMARK    6  A    between atoms: C_13  and  N_14
REMARK    7  A    between atoms: N_18  and  C_19
REMARK    8  A    between atoms: C_19  and  C_20
REMARK                            x       y       z     vdW  Elec       q    Type
REMARK                         _______ _______ _______ _____ _____    ______ ____
ROOT
ATOM      1  C   UNL     1       2.351   1.897  19.192  0.00  0.00    +0.000 C 
ENDROOT
BRANCH   1   3
ATOM      2  O   UNL     1       2.176   2.880  16.990  0.00  0.00    +0.000 OA
ATOM      3  C   UNL     1       2.868   2.670  17.983  0.00  0.00    +0.000 C 
ATOM      4  N   UNL     1       4.162   3.110  18.114  0.00  0.00    +0.000 N 
ATOM      5  H   UNL     1       4.619   3.056  19.016  0.00  0.00    +0.000 HD
BRANCH   4   6
ATOM      6  C   UNL     1       4.830   3.827  17.068  0.00  0.00    +0.000 C 
BRANCH   6   7
ATOM      7  C   UNL     1       5.689   4.914  17.651  0.00  0.00    +0.000 A 
ATOM      8  C   UNL     1       6.612   4.623  18.685  0.00  0.00    +0.000 A 
ATOM      9  C   UNL     1       7.537   5.581  19.109  0.00  0.00    +0.000 A 
ATOM     10  C   UNL     1       7.522   6.794  18.460  0.00  0.00    +0.000 A 
ATOM     11  C   UNL     1       6.567   7.108  17.518  0.00  0.00    +0.000 A 
ATOM     12  C   UNL     1       5.610   6.209  17.122  0.00  0.00    +0.000 A 
ATOM     13  O   UNL     1       6.780   8.330  16.956  0.00  0.00    +0.000 OA
ATOM     14  C   UNL     1       8.146   8.525  17.372  0.00  0.00    +0.000 C 
ATOM     15  O   UNL     1       8.463   7.776  18.566  0.00  0.00    +0.000 OA
ENDBRANCH   6   7
ENDBRANCH   4   6
ENDBRANCH   1   3
BRANCH   1  16
ATOM     16  O   UNL     1       2.843   2.434  20.414  0.00  0.00    +0.000 OA
BRANCH  16  17
ATOM     17  C   UNL     1       1.896   3.013  21.185  0.00  0.00    +0.000 C 
ATOM     18  O   UNL     1       1.425   2.554  22.213  0.00  0.00    +0.000 OA
BRANCH  17  19
ATOM     19  C   UNL     1       1.506   4.282  20.550  0.00  0.00    +0.000 C 
ATOM     20  C   UNL     1       2.363   5.316  20.531  0.00  0.00    +0.000 C 
BRANCH  20  21
ATOM     21  C   UNL     1       2.079   6.628  19.939  0.00  0.00    +0.000 A 
ATOM     22  C   UNL     1       2.449   6.860  18.605  0.00  0.00    +0.000 A 
ATOM     23  C   UNL     1       2.246   8.106  18.004  0.00  0.00    +0.000 A 
ATOM     24  C   UNL     1       1.680   9.147  18.736  0.00  0.00    +0.000 A 
ATOM     25  C   UNL     1       1.319   8.929  20.071  0.00  0.00    +0.000 A 
ATOM     26  C   UNL     1       1.518   7.679  20.675  0.00  0.00    +0.000 A 
BRANCH  25  27
ATOM     27  N   UNL     1       0.736  10.026  20.851  0.00  0.00    +0.000 N 
ATOM     28  O   UNL     1       0.171   9.741  21.916  0.00  0.00    +0.000 OA
ATOM     29  O   UNL     1       0.837  11.177  20.395  0.00  0.00    +0.000 OA
ENDBRANCH  25  27
ENDBRANCH  20  21
ENDBRANCH  17  19
ENDBRANCH  16  17
ENDBRANCH   1  16
TORSDOF 8
ENDMDL
MODEL 4
REMARK VINA RESULT:      -8.2      5.184      7.788
REMARK  Name = 
REMARK  8 active torsions:
REMARK  status: ('A' for Active; 'I' for Inactive)
REMARK    1  A    between atoms: C_2  and  C_3
REMARK    2  A    between atoms: C_3  and  O_4
REMARK    3  A    between atoms: O_4  and  C_5
REMARK    4  A    between atoms: C_5  and  C_7
REMARK    5  A    between atoms: C_8  and  C_9
REMARK    6  A    between atoms: C_13  and  N_14
REMARK    7  A    between atoms: N_18  and  C_19
REMARK    8  A    between atoms: C_19  and  C_20
REMARK                            x       y       z     vdW  Elec       q    Type
REMARK                         _______ _______ _______ _____ _____    ______ ____
ROOT
ATOM      1  C   UNL     1       0.969   2.908  19.193  0.00  0.00    +0.000 C 
ENDROOT
BRANCH   1   3
ATOM      2  O   UNL     1       2.324   1.573  17.702  0.00  0.00    +0.000 OA
ATOM      3  C   UNL     1       1.935   2.690  18.034  0.00  0.00    +0.000 C 
ATOM      4  N   UNL     1       2.319   3.846  17.401  0.00  0.00    +0.000 N 
ATOM      5  H   UNL     1       1.836   4.712  17.608  0.00  0.00    +0.000 HD
BRANCH   4   6
ATOM      6  C   UNL     1       3.248   3.843  16.309  0.00  0.00    +0.000 C 
BRANCH   6   7
ATOM      7  C   UNL     1       4.648   4.036  16.820  0.00  0.00    +0.000 A 
ATOM      8  C   UNL     1       5.746   4.037  15.925  0.00  0.00    +0.000 A 
ATOM      9  C   UNL     1       7.025   4.393  16.362  0.00  0.00    +0.000 A 
ATOM     10  C   UNL     1       7.155   4.761  17.681  0.00  0.00    +0.000 A 
ATOM     11  C   UNL     1       6.107   4.672  18.572  0.00  0.00    +0.000 A 
ATOM     12  C   UNL     1       4.853   4.273  18.186  0.00  0.00    +0.000 A 
ATOM     13  O   UNL     1       6.436   5.151  19.803  0.00  0.00    +0.000 OA
ATOM     14  C   UNL     1       7.630   5.873  19.444  0.00  0.00    +0.000 C 
ATOM     15  O   UNL     1       8.249   5.340  18.252  0.00  0.00    +0.000 OA
ENDBRANCH   6   7
ENDBRANCH   4   6
ENDBRANCH   1   3
BRANCH   1  16
ATOM     16  O   UNL     1       1.505   2.441  20.425  0.00  0.00    +0.000 OA
BRANCH  16  17
ATOM     17  C   UNL     1       1.866   3.426  21.279  0.00  0.00    +0.000 C 
ATOM     18  O   UNL     1       2.414   3.276  22.359  0.00  0.00    +0.000 OA
BRANCH  17  19
ATOM     19  C   UNL     1       1.454   4.710  20.693  0.00  0.00    +0.000 C 
ATOM     20  C   UNL     1       2.371   5.655  20.428  0.00  0.00    +0.000 C 
BRANCH  20  21
ATOM     21  C   UNL     1       2.076   6.973  19.857  0.00  0.00    +0.000 A 
ATOM     22  C   UNL     1       2.412   7.219  18.517  0.00  0.00    +0.000 A 
ATOM     23  C   UNL     1       2.197   8.471  17.934  0.00  0.00    +0.000 A 
ATOM     24  C   UNL     1       1.651   9.506  18.692  0.00  0.00    +0.000 A 
ATOM     25  C   UNL     1       1.324   9.275  20.033  0.00  0.00    +0.000 A 
ATOM     26  C   UNL     1       1.536   8.017  20.619  0.00  0.00    +0.000 A 
BRANCH  25  27
ATOM     27  N   UNL     1       0.764  10.364  20.839  0.00  0.00    +0.000 N 
ATOM     28  O   UNL     1       0.844  10.271  22.072  0.00  0.00    +0.000 OA
ATOM     29  O   UNL     1       0.237  11.315  20.239  0.00  0.00    +0.000 OA
ENDBRANCH  25  27
ENDBRANCH  20  21
ENDBRANCH  17  19
ENDBRANCH  16  17
ENDBRANCH   1  16
TORSDOF 8
ENDMDL
MODEL 5
REMARK VINA RESULT:      -8.2      2.447      3.373
REMARK  Name = 
REMARK  8 active torsions:
REMARK  status: ('A' for Active; 'I' for Inactive)
REMARK    1  A    between atoms: C_2  and  C_3
REMARK    2  A    between atoms: C_3  and  O_4
REMARK    3  A    between atoms: O_4  and  C_5
REMARK    4  A    between atoms: C_5  and  C_7
REMARK    5  A    between atoms: C_8  and  C_9
REMARK    6  A    between atoms: C_13  and  N_14
REMARK    7  A    between atoms: N_18  and  C_19
REMARK    8  A    between atoms: C_19  and  C_20
REMARK                            x       y       z     vdW  Elec       q    Type
REMARK                         _______ _______ _______ _____ _____    ______ ____
ROOT
ATOM      1  C   UNL     1       6.497   5.173  18.242  0.00  0.00    +0.000 C 
ENDROOT
BRANCH   1   3
ATOM      2  O   UNL     1       4.742   5.059  16.584  0.00  0.00    +0.000 OA
ATOM      3  C   UNL     1       5.054   5.251  17.756  0.00  0.00    +0.000 C 
ATOM      4  N   UNL     1       4.147   5.546  18.744  0.00  0.00    +0.000 N 
ATOM      5  H   UNL     1       4.440   5.525  19.713  0.00  0.00    +0.000 HD
BRANCH   4   6
ATOM      6  C   UNL     1       2.747   5.693  18.472  0.00  0.00    +0.000 C 
BRANCH   6   7
ATOM      7  C   UNL     1       2.294   7.082  18.821  0.00  0.00    +0.000 A 
ATOM      8  C   UNL     1       2.138   8.063  17.811  0.00  0.00    +0.000 A 
ATOM      9  C   UNL     1       1.549   9.297  18.096  0.00  0.00    +0.000 A 
ATOM     10  C   UNL     1       1.112   9.498  19.385  0.00  0.00    +0.000 A 
ATOM     11  C   UNL     1       1.345   8.582  20.387  0.00  0.00    +0.000 A 
ATOM     12  C   UNL     1       1.971   7.384  20.150  0.00  0.00    +0.000 A 
ATOM     13  O   UNL     1       0.768   8.948  21.565  0.00  0.00    +0.000 OA
ATOM     14  C   UNL     1      -0.135   9.952  21.061  0.00  0.00    +0.000 C 
ATOM     15  O   UNL     1       0.329  10.527  19.820  0.00  0.00    +0.000 OA
ENDBRANCH   6   7
ENDBRANCH   4   6
ENDBRANCH   1   3
BRANCH   1  16
ATOM     16  O   UNL     1       6.972   6.435  18.697  0.00  0.00    +0.000 OA
BRANCH  16  17
ATOM     17  C   UNL     1       7.655   7.136  17.764  0.00  0.00    +0.000 C 
ATOM     18  O   UNL     1       7.613   6.959  16.558  0.00  0.00    +0.000 OA
BRANCH  17  19
ATOM     19  C   UNL     1       8.485   8.131  18.460  0.00  0.00    +0.000 C 
ATOM     20  C   UNL     1       8.493   9.410  18.047  0.00  0.00    +0.000 C 
BRANCH  20  21
ATOM     21  C   UNL     1       9.287  10.482  18.654  0.00  0.00    +0.000 A 
ATOM     22  C   UNL     1       9.337  10.574  20.055  0.00  0.00    +0.000 A 
ATOM     23  C   UNL     1      10.040  11.604  20.687  0.00  0.00    +0.000 A 
ATOM     24  C   UNL     1      10.695  12.569  19.925  0.00  0.00    +0.000 A 
ATOM     25  C   UNL     1      10.641  12.493  18.529  0.00  0.00    +0.000 A 
ATOM     26  C   UNL     1       9.940  11.458  17.891  0.00  0.00    +0.000 A 
BRANCH  25  27
ATOM     27  N   UNL     1      11.316  13.515  17.722  0.00  0.00    +0.000 N 
ATOM     28  O   UNL     1      12.232  13.147  16.972  0.00  0.00    +0.000 OA
ATOM     29  O   UNL     1      10.935  14.690  17.841  0.00  0.00    +0.000 OA
ENDBRANCH  25  27
ENDBRANCH  20  21
ENDBRANCH  17  19
ENDBRANCH  16  17
ENDBRANCH   1  16
TORSDOF 8
ENDMDL
MODEL 6
REMARK VINA RESULT:      -8.0      5.166      7.790
REMARK  Name = 
REMARK  8 active torsions:
REMARK  status: ('A' for Active; 'I' for Inactive)
REMARK    1  A    between atoms: C_2  and  C_3
REMARK    2  A    between atoms: C_3  and  O_4
REMARK    3  A    between atoms: O_4  and  C_5
REMARK    4  A    between atoms: C_5  and  C_7
REMARK    5  A    between atoms: C_8  and  C_9
REMARK    6  A    between atoms: C_13  and  N_14
REMARK    7  A    between atoms: N_18  and  C_19
REMARK    8  A    between atoms: C_19  and  C_20
REMARK                            x       y       z     vdW  Elec       q    Type
REMARK                         _______ _______ _______ _____ _____    ______ ____
ROOT
ATOM      1  C   UNL     1       1.149   2.396  20.739  0.00  0.00    +0.000 C 
ENDROOT
BRANCH   1   3
ATOM      2  O   UNL     1       2.554   3.400  22.430  0.00  0.00    +0.000 OA
ATOM      3  C   UNL     1       1.871   3.553  21.421  0.00  0.00    +0.000 C 
ATOM      4  N   UNL     1       1.692   4.765  20.802  0.00  0.00    +0.000 N 
ATOM      5  H   UNL     1       1.262   4.800  19.885  0.00  0.00    +0.000 HD
BRANCH   4   6
ATOM      6  C   UNL     1       2.267   5.974  21.316  0.00  0.00    +0.000 C 
BRANCH   6   7
ATOM      7  C   UNL     1       2.111   7.087  20.318  0.00  0.00    +0.000 A 
ATOM      8  C   UNL     1       2.563   6.927  18.986  0.00  0.00    +0.000 A 
ATOM      9  C   UNL     1       2.264   7.881  18.009  0.00  0.00    +0.000 A 
ATOM     10  C   UNL     1       1.496   8.955  18.398  0.00  0.00    +0.000 A 
ATOM     11  C   UNL     1       1.135   9.157  19.712  0.00  0.00    +0.000 A 
ATOM     12  C   UNL     1       1.462   8.267  20.704  0.00  0.00    +0.000 A 
ATOM     13  O   UNL     1       0.322  10.239  19.862  0.00  0.00    +0.000 OA
ATOM     14  C   UNL     1      -0.064  10.413  18.485  0.00  0.00    +0.000 C 
ATOM     15  O   UNL     1       0.918   9.873  17.573  0.00  0.00    +0.000 OA
ENDBRANCH   6   7
ENDBRANCH   4   6
ENDBRANCH   1   3
BRANCH   1  16
ATOM     16  O   UNL     1       1.847   1.942  19.586  0.00  0.00    +0.000 OA
BRANCH  16  17
ATOM     17  C   UNL     1       1.333   2.388  18.417  0.00  0.00    +0.000 C 
ATOM     18  O   UNL     1       0.244   2.095  17.952  0.00  0.00    +0.000 OA
BRANCH  17  19
ATOM     19  C   UNL     1       2.331   3.266  17.787  0.00  0.00    +0.000 C 
ATOM     20  C   UNL     1       3.620   3.198  18.162  0.00  0.00    +0.000 C 
BRANCH  20  21
ATOM     21  C   UNL     1       4.697   4.029  17.613  0.00  0.00    +0.000 A 
ATOM     22  C   UNL     1       4.791   4.177  16.220  0.00  0.00    +0.000 A 
ATOM     23  C   UNL     1       5.825   4.919  15.640  0.00  0.00    +0.000 A 
ATOM     24  C   UNL     1       6.792   5.514  16.448  0.00  0.00    +0.000 A 
ATOM     25  C   UNL     1       6.714   5.360  17.836  0.00  0.00    +0.000 A 
ATOM     26  C   UNL     1       5.675   4.621  18.422  0.00  0.00    +0.000 A 
BRANCH  25  27
ATOM     27  N   UNL     1       7.738   5.972  18.690  0.00  0.00    +0.000 N 
ATOM     28  O   UNL     1       8.061   7.145  18.456  0.00  0.00    +0.000 OA
ATOM     29  O   UNL     1       8.225   5.277  19.596  0.00  0.00    +0.000 OA
ENDBRANCH  25  27
ENDBRANCH  20  21
ENDBRANCH  17  19
ENDBRANCH  16  17
ENDBRANCH   1  16
TORSDOF 8
ENDMDL
MODEL 7
REMARK VINA RESULT:      -8.0      5.542      8.324
REMARK  Name = 
REMARK  8 active torsions:
REMARK  status: ('A' for Active; 'I' for Inactive)
REMARK    1  A    between atoms: C_2  and  C_3
REMARK    2  A    between atoms: C_3  and  O_4
REMARK    3  A    between atoms: O_4  and  C_5
REMARK    4  A    between atoms: C_5  and  C_7
REMARK    5  A    between atoms: C_8  and  C_9
REMARK    6  A    between atoms: C_13  and  N_14
REMARK    7  A    between atoms: N_18  and  C_19
REMARK    8  A    between atoms: C_19  and  C_20
REMARK                            x       y       z     vdW  Elec       q    Type
REMARK                         _______ _______ _______ _____ _____    ______ ____
ROOT
ATOM      1  C   UNL     1       1.546   2.591  18.891  0.00  0.00    +0.000 C 
ENDROOT
BRANCH   1   3
ATOM      2  O   UNL     1       3.551   1.280  18.570  0.00  0.00    +0.000 OA
ATOM      3  C   UNL     1       3.053   2.381  18.792  0.00  0.00    +0.000 C 
ATOM      4  N   UNL     1       3.790   3.526  18.965  0.00  0.00    +0.000 N 
ATOM      5  H   UNL     1       3.322   4.424  18.974  0.00  0.00    +0.000 HD
BRANCH   4   6
ATOM      6  C   UNL     1       5.223   3.519  18.937  0.00  0.00    +0.000 C 
BRANCH   6   7
ATOM      7  C   UNL     1       5.722   4.253  17.724  0.00  0.00    +0.000 A 
ATOM      8  C   UNL     1       6.697   5.272  17.850  0.00  0.00    +0.000 A 
ATOM      9  C   UNL     1       7.296   5.834  16.719  0.00  0.00    +0.000 A 
ATOM     10  C   UNL     1       6.913   5.334  15.496  0.00  0.00    +0.000 A 
ATOM     11  C   UNL     1       5.900   4.409  15.369  0.00  0.00    +0.000 A 
ATOM     12  C   UNL     1       5.253   3.880  16.457  0.00  0.00    +0.000 A 
ATOM     13  O   UNL     1       5.732   4.003  14.080  0.00  0.00    +0.000 OA
ATOM     14  C   UNL     1       6.980   4.479  13.538  0.00  0.00    +0.000 C 
ATOM     15  O   UNL     1       7.516   5.584  14.298  0.00  0.00    +0.000 OA
ENDBRANCH   6   7
ENDBRANCH   4   6
ENDBRANCH   1   3
BRANCH   1  16
ATOM     16  O   UNL     1       1.075   2.425  20.223  0.00  0.00    +0.000 OA
BRANCH  16  17
ATOM     17  C   UNL     1       1.487   3.387  21.079  0.00  0.00    +0.000 C 
ATOM     18  O   UNL     1       2.013   3.205  22.165  0.00  0.00    +0.000 OA
BRANCH  17  19
ATOM     19  C   UNL     1       1.162   4.693  20.487  0.00  0.00    +0.000 C 
ATOM     20  C   UNL     1       1.968   5.747  20.697  0.00  0.00    +0.000 C 
BRANCH  20  21
ATOM     21  C   UNL     1       1.739   7.096  20.169  0.00  0.00    +0.000 A 
ATOM     22  C   UNL     1       2.140   7.383  18.855  0.00  0.00    +0.000 A 
ATOM     23  C   UNL     1       1.988   8.664  18.316  0.00  0.00    +0.000 A 
ATOM     24  C   UNL     1       1.444   9.686  19.092  0.00  0.00    +0.000 A 
ATOM     25  C   UNL     1       1.053   9.412  20.408  0.00  0.00    +0.000 A 
ATOM     26  C   UNL     1       1.200   8.126  20.950  0.00  0.00    +0.000 A 
BRANCH  25  27
ATOM     27  N   UNL     1       0.493  10.487  21.234  0.00  0.00    +0.000 N 
ATOM     28  O   UNL     1       1.115  11.558  21.289  0.00  0.00    +0.000 OA
ATOM     29  O   UNL     1      -0.569  10.260  21.835  0.00  0.00    +0.000 OA
ENDBRANCH  25  27
ENDBRANCH  20  21
ENDBRANCH  17  19
ENDBRANCH  16  17
ENDBRANCH   1  16
TORSDOF 8
ENDMDL
MODEL 8
REMARK VINA RESULT:      -8.0      1.392      1.710
REMARK  Name = 
REMARK  8 active torsions:
REMARK  status: ('A' for Active; 'I' for Inactive)
REMARK    1  A    between atoms: C_2  and  C_3
REMARK    2  A    between atoms: C_3  and  O_4
REMARK    3  A    between atoms: O_4  and  C_5
REMARK    4  A    between atoms: C_5  and  C_7
REMARK    5  A    between atoms: C_8  and  C_9
REMARK    6  A    between atoms: C_13  and  N_14
REMARK    7  A    between atoms: N_18  and  C_19
REMARK    8  A    between atoms: C_19  and  C_20
REMARK                            x       y       z     vdW  Elec       q    Type
REMARK                         _______ _______ _______ _____ _____    ______ ____
ROOT
ATOM      1  C   UNL     1       7.082   5.973  15.882  0.00  0.00    +0.000 C 
ENDROOT
BRANCH   1   3
ATOM      2  O   UNL     1       5.380   4.812  14.619  0.00  0.00    +0.000 OA
ATOM      3  C   UNL     1       5.745   5.263  15.702  0.00  0.00    +0.000 C 
ATOM      4  N   UNL     1       5.002   5.171  16.852  0.00  0.00    +0.000 N 
ATOM      5  H   UNL     1       5.426   5.407  17.741  0.00  0.00    +0.000 HD
BRANCH   4   6
ATOM      6  C   UNL     1       3.703   4.564  16.871  0.00  0.00    +0.000 C 
BRANCH   6   7
ATOM      7  C   UNL     1       3.520   3.769  18.134  0.00  0.00    +0.000 A 
ATOM      8  C   UNL     1       4.642   3.370  18.900  0.00  0.00    +0.000 A 
ATOM      9  C   UNL     1       4.478   2.791  20.161  0.00  0.00    +0.000 A 
ATOM     10  C   UNL     1       3.189   2.654  20.623  0.00  0.00    +0.000 A 
ATOM     11  C   UNL     1       2.096   2.958  19.841  0.00  0.00    +0.000 A 
ATOM     12  C   UNL     1       2.224   3.476  18.577  0.00  0.00    +0.000 A 
ATOM     13  O   UNL     1       0.923   2.814  20.518  0.00  0.00    +0.000 OA
ATOM     14  C   UNL     1       1.449   2.776  21.859  0.00  0.00    +0.000 C 
ATOM     15  O   UNL     1       2.819   2.319  21.892  0.00  0.00    +0.000 OA
ENDBRANCH   6   7
ENDBRANCH   4   6
ENDBRANCH   1   3
BRANCH   1  16
ATOM     16  O   UNL     1       6.930   7.230  16.531  0.00  0.00    +0.000 OA
BRANCH  16  17
ATOM     17  C   UNL     1       7.552   7.312  17.729  0.00  0.00    +0.000 C 
ATOM     18  O   UNL     1       7.537   6.464  18.606  0.00  0.00    +0.000 OA
BRANCH  17  19
ATOM     19  C   UNL     1       8.223   8.618  17.806  0.00  0.00    +0.000 C 
ATOM     20  C   UNL     1       8.680   9.072  18.985  0.00  0.00    +0.000 C 
BRANCH  20  21
ATOM     21  C   UNL     1       9.353  10.360  19.183  0.00  0.00    +0.000 A 
ATOM     22  C   UNL     1       9.759  10.717  20.478  0.00  0.00    +0.000 A 
ATOM     23  C   UNL     1      10.362  11.952  20.733  0.00  0.00    +0.000 A 
ATOM     24  C   UNL     1      10.557  12.859  19.693  0.00  0.00    +0.000 A 
ATOM     25  C   UNL     1      10.144  12.517  18.400  0.00  0.00    +0.000 A 
ATOM     26  C   UNL     1       9.542  11.277  18.141  0.00  0.00    +0.000 A 
BRANCH  25  27
ATOM     27  N   UNL     1      10.333  13.474  17.304  0.00  0.00    +0.000 N 
ATOM     28  O   UNL     1       9.599  14.472  17.275  0.00  0.00    +0.000 OA
ATOM     29  O   UNL     1      11.213  13.224  16.465  0.00  0.00    +0.000 OA
ENDBRANCH  25  27
ENDBRANCH  20  21
ENDBRANCH  17  19
ENDBRANCH  16  17
ENDBRANCH   1  16
TORSDOF 8
ENDMDL
MODEL 9
REMARK VINA RESULT:      -7.9      1.910      2.685
REMARK  Name = 
REMARK  8 active torsions:
REMARK  status: ('A' for Active; 'I' for Inactive)
REMARK    1  A    between atoms: C_2  and  C_3
REMARK    2  A    between atoms: C_3  and  O_4
REMARK    3  A    between atoms: O_4  and  C_5
REMARK    4  A    between atoms: C_5  and  C_7
REMARK    5  A    between atoms: C_8  and  C_9
REMARK    6  A    between atoms: C_13  and  N_14
REMARK    7  A    between atoms: N_18  and  C_19
REMARK    8  A    between atoms: C_19  and  C_20
REMARK                            x       y       z     vdW  Elec       q    Type
REMARK                         _______ _______ _______ _____ _____    ______ ____
ROOT
ATOM      1  C   UNL     1       7.624   5.567  18.665  0.00  0.00    +0.000 C 
ENDROOT
BRANCH   1   3
ATOM      2  O   UNL     1       5.958   3.995  19.436  0.00  0.00    +0.000 OA
ATOM      3  C   UNL     1       6.272   4.863  18.626  0.00  0.00    +0.000 C 
ATOM      4  N   UNL     1       5.448   5.293  17.616  0.00  0.00    +0.000 N 
ATOM      5  H   UNL     1       5.693   6.123  17.090  0.00  0.00    +0.000 HD
BRANCH   4   6
ATOM      6  C   UNL     1       4.149   4.725  17.401  0.00  0.00    +0.000 C 
BRANCH   6   7
ATOM      7  C   UNL     1       3.153   5.337  18.346  0.00  0.00    +0.000 A 
ATOM      8  C   UNL     1       2.623   4.581  19.420  0.00  0.00    +0.000 A 
ATOM      9  C   UNL     1       1.839   5.188  20.405  0.00  0.00    +0.000 A 
ATOM     10  C   UNL     1       1.634   6.544  20.292  0.00  0.00    +0.000 A 
ATOM     11  C   UNL     1       2.073   7.262  19.201  0.00  0.00    +0.000 A 
ATOM     12  C   UNL     1       2.797   6.683  18.189  0.00  0.00    +0.000 A 
ATOM     13  O   UNL     1       1.825   8.595  19.327  0.00  0.00    +0.000 OA
ATOM     14  C   UNL     1       1.556   8.633  20.742  0.00  0.00    +0.000 C 
ATOM     15  O   UNL     1       1.092   7.359  21.241  0.00  0.00    +0.000 OA
ENDBRANCH   6   7
ENDBRANCH   4   6
ENDBRANCH   1   3
BRANCH   1  16
ATOM     16  O   UNL     1       7.484   6.982  18.684  0.00  0.00    +0.000 OA
BRANCH  16  17
ATOM     17  C   UNL     1       7.735   7.579  17.497  0.00  0.00    +0.000 C 
ATOM     18  O   UNL     1       7.559   7.087  16.394  0.00  0.00    +0.000 OA
BRANCH  17  19
ATOM     19  C   UNL     1       8.291   8.914  17.767  0.00  0.00    +0.000 C 
ATOM     20  C   UNL     1       8.888   9.169  18.943  0.00  0.00    +0.000 C 
BRANCH  20  21
ATOM     21  C   UNL     1       9.466  10.462  19.326  0.00  0.00    +0.000 A 
ATOM     22  C   UNL     1       9.334  10.892  20.656  0.00  0.00    +0.000 A 
ATOM     23  C   UNL     1       9.824  12.136  21.065  0.00  0.00    +0.000 A 
ATOM     24  C   UNL     1      10.444  12.977  20.144  0.00  0.00    +0.000 A 
ATOM     25  C   UNL     1      10.568  12.563  18.813  0.00  0.00    +0.000 A 
ATOM     26  C   UNL     1      10.081  11.313  18.399  0.00  0.00    +0.000 A 
BRANCH  25  27
ATOM     27  N   UNL     1      11.206  13.451  17.835  0.00  0.00    +0.000 N 
ATOM     28  O   UNL     1      11.188  13.107  16.644  0.00  0.00    +0.000 OA
ATOM     29  O   UNL     1      11.731  14.493  18.258  0.00  0.00    +0.000 OA
ENDBRANCH  25  27
ENDBRANCH  20  21
ENDBRANCH  17  19
ENDBRANCH  16  17
ENDBRANCH   1  16
TORSDOF 8
ENDMDL
