MODEL 1
REMARK VINA RESULT:      -3.8      0.000      0.000
REMARK  Name = 
REMARK  4 active torsions:
REMARK  status: ('A' for Active; 'I' for Inactive)
REMARK    1  A    between atoms: C_2  and  C_3
REMARK    2  A    between atoms: C_2  and  C_5
REMARK    3  A    between atoms: C_3  and  O_4
REMARK    4  A    between atoms: C_5  and  O_6
REMARK                            x       y       z     vdW  Elec       q    Type
REMARK                         _______ _______ _______ _____ _____    ______ ____
ROOT
ATOM      1  O   UNL     1       7.544   3.658  26.908  0.00  0.00    +0.000 OA
ATOM      2  C   UNL     1       7.981   4.578  27.606  0.00  0.00    +0.000 C 
ENDROOT
BRANCH   2   3
ATOM      3  C   UNL     1       7.057   5.554  28.315  0.00  0.00    +0.000 C 
BRANCH   3   4
ATOM      4  O   UNL     1       5.850   5.781  27.607  0.00  0.00    +0.000 OA
ATOM      5  H   UNL     1       5.906   6.684  27.238  0.00  0.00    +0.000 HD
ENDBRANCH   3   4
ENDBRANCH   2   3
BRANCH   2   6
ATOM      6  C   UNL     1       9.475   4.801  27.797  0.00  0.00    +0.000 C 
BRANCH   6   7
ATOM      7  O   UNL     1      10.228   3.610  27.652  0.00  0.00    +0.000 OA
ATOM      8  H   UNL     1       9.990   3.033  28.404  0.00  0.00    +0.000 HD
ENDBRANCH   6   7
ENDBRANCH   2   6
TORSDOF 4
ENDMDL
MODEL 2
REMARK VINA RESULT:      -3.8      0.088      3.191
REMARK  Name = 
REMARK  4 active torsions:
REMARK  status: ('A' for Active; 'I' for Inactive)
REMARK    1  A    between atoms: C_2  and  C_3
REMARK    2  A    between atoms: C_2  and  C_5
REMARK    3  A    between atoms: C_3  and  O_4
REMARK    4  A    between atoms: C_5  and  O_6
REMARK                            x       y       z     vdW  Elec       q    Type
REMARK                         _______ _______ _______ _____ _____    ______ ____
ROOT
ATOM      1  O   UNL     1       7.540   3.684  26.980  0.00  0.00    +0.000 OA
ATOM      2  C   UNL     1       7.965   4.619  27.665  0.00  0.00    +0.000 C 
ENDROOT
BRANCH   2   3
ATOM      3  C   UNL     1       9.452   4.835  27.893  0.00  0.00    +0.000 C 
BRANCH   3   4
ATOM      4  O   UNL     1      10.230   3.700  27.552  0.00  0.00    +0.000 OA
ATOM      5  H   UNL     1      10.160   3.076  28.301  0.00  0.00    +0.000 HD
ENDBRANCH   3   4
ENDBRANCH   2   3
BRANCH   2   6
ATOM      6  C   UNL     1       7.027   5.614  28.334  0.00  0.00    +0.000 C 
BRANCH   6   7
ATOM      7  O   UNL     1       5.816   5.787  27.622  0.00  0.00    +0.000 OA
ATOM      8  H   UNL     1       6.059   6.014  26.704  0.00  0.00    +0.000 HD
ENDBRANCH   6   7
ENDBRANCH   2   6
TORSDOF 4
ENDMDL
MODEL 3
REMARK VINA RESULT:      -3.5     12.071     12.550
REMARK  Name = 
REMARK  4 active torsions:
REMARK  status: ('A' for Active; 'I' for Inactive)
REMARK    1  A    between atoms: C_2  and  C_3
REMARK    2  A    between atoms: C_2  and  C_5
REMARK    3  A    between atoms: C_3  and  O_4
REMARK    4  A    between atoms: C_5  and  O_6
REMARK                            x       y       z     vdW  Elec       q    Type
REMARK                         _______ _______ _______ _____ _____    ______ ____
ROOT
ATOM      1  O   UNL     1       7.818   5.457  14.742  0.00  0.00    +0.000 OA
ATOM      2  C   UNL     1       6.961   4.763  15.296  0.00  0.00    +0.000 C 
ENDROOT
BRANCH   2   3
ATOM      3  C   UNL     1       5.884   4.037  14.507  0.00  0.00    +0.000 C 
BRANCH   3   4
ATOM      4  O   UNL     1       6.401   3.334  13.390  0.00  0.00    +0.000 OA
ATOM      5  H   UNL     1       5.764   3.459  12.659  0.00  0.00    +0.000 HD
ENDBRANCH   3   4
ENDBRANCH   2   3
BRANCH   2   6
ATOM      6  C   UNL     1       6.921   4.593  16.808  0.00  0.00    +0.000 C 
BRANCH   6   7
ATOM      7  O   UNL     1       8.144   4.114  17.337  0.00  0.00    +0.000 OA
ATOM      8  H   UNL     1       8.216   4.467  18.245  0.00  0.00    +0.000 HD
ENDBRANCH   6   7
ENDBRANCH   2   6
TORSDOF 4
ENDMDL
MODEL 4
REMARK VINA RESULT:      -3.5     11.129     11.567
REMARK  Name = 
REMARK  4 active torsions:
REMARK  status: ('A' for Active; 'I' for Inactive)
REMARK    1  A    between atoms: C_2  and  C_3
REMARK    2  A    between atoms: C_2  and  C_5
REMARK    3  A    between atoms: C_3  and  O_4
REMARK    4  A    between atoms: C_5  and  O_6
REMARK                            x       y       z     vdW  Elec       q    Type
REMARK                         _______ _______ _______ _____ _____    ______ ____
ROOT
ATOM      1  O   UNL     1       7.658   5.413  14.901  0.00  0.00    +0.000 OA
ATOM      2  C   UNL     1       7.018   4.852  15.796  0.00  0.00    +0.000 C 
ENDROOT
BRANCH   2   3
ATOM      3  C   UNL     1       5.827   3.958  15.489  0.00  0.00    +0.000 C 
BRANCH   3   4
ATOM      4  O   UNL     1       5.466   3.131  16.583  0.00  0.00    +0.000 OA
ATOM      5  H   UNL     1       4.497   3.211  16.687  0.00  0.00    +0.000 HD
ENDBRANCH   3   4
ENDBRANCH   2   3
BRANCH   2   6
ATOM      6  C   UNL     1       7.372   5.025  17.266  0.00  0.00    +0.000 C 
BRANCH   6   7
ATOM      7  O   UNL     1       8.262   4.028  17.734  0.00  0.00    +0.000 OA
ATOM      8  H   UNL     1       8.747   4.415  18.488  0.00  0.00    +0.000 HD
ENDBRANCH   6   7
ENDBRANCH   2   6
TORSDOF 4
ENDMDL
MODEL 5
REMARK VINA RESULT:      -3.4      9.624     10.034
REMARK  Name = 
REMARK  4 active torsions:
REMARK  status: ('A' for Active; 'I' for Inactive)
REMARK    1  A    between atoms: C_2  and  C_3
REMARK    2  A    between atoms: C_2  and  C_5
REMARK    3  A    between atoms: C_3  and  O_4
REMARK    4  A    between atoms: C_5  and  O_6
REMARK                            x       y       z     vdW  Elec       q    Type
REMARK                         _______ _______ _______ _____ _____    ______ ____
ROOT
ATOM      1  O   UNL     1       7.214   7.495  17.091  0.00  0.00    +0.000 OA
ATOM      2  C   UNL     1       7.396   6.391  17.612  0.00  0.00    +0.000 C 
ENDROOT
BRANCH   2   3
ATOM      3  C   UNL     1       7.903   6.251  19.038  0.00  0.00    +0.000 C 
BRANCH   3   4
ATOM      4  O   UNL     1       7.119   5.362  19.815  0.00  0.00    +0.000 OA
ATOM      5  H   UNL     1       6.183   5.571  19.624  0.00  0.00    +0.000 HD
ENDBRANCH   3   4
ENDBRANCH   2   3
BRANCH   2   6
ATOM      6  C   UNL     1       7.134   5.094  16.858  0.00  0.00    +0.000 C 
BRANCH   6   7
ATOM      7  O   UNL     1       8.061   4.075  17.186  0.00  0.00    +0.000 OA
ATOM      8  H   UNL     1       8.913   4.518  17.371  0.00  0.00    +0.000 HD
ENDBRANCH   6   7
ENDBRANCH   2   6
TORSDOF 4
ENDMDL
MODEL 6
REMARK VINA RESULT:      -3.4      8.784      9.301
REMARK  Name = 
REMARK  4 active torsions:
REMARK  status: ('A' for Active; 'I' for Inactive)
REMARK    1  A    between atoms: C_2  and  C_3
REMARK    2  A    between atoms: C_2  and  C_5
REMARK    3  A    between atoms: C_3  and  O_4
REMARK    4  A    between atoms: C_5  and  O_6
REMARK                            x       y       z     vdW  Elec       q    Type
REMARK                         _______ _______ _______ _____ _____    ______ ____
ROOT
ATOM      1  O   UNL     1       5.719   4.459  19.384  0.00  0.00    +0.000 OA
ATOM      2  C   UNL     1       6.641   4.951  18.728  0.00  0.00    +0.000 C 
ENDROOT
BRANCH   2   3
ATOM      3  C   UNL     1       6.795   4.688  17.239  0.00  0.00    +0.000 C 
BRANCH   3   4
ATOM      4  O   UNL     1       8.048   4.113  16.910  0.00  0.00    +0.000 OA
ATOM      5  H   UNL     1       8.222   4.334  15.974  0.00  0.00    +0.000 HD
ENDBRANCH   3   4
ENDBRANCH   2   3
BRANCH   2   6
ATOM      6  C   UNL     1       7.691   5.849  19.368  0.00  0.00    +0.000 C 
BRANCH   6   7
ATOM      7  O   UNL     1       8.122   5.373  20.630  0.00  0.00    +0.000 OA
ATOM      8  H   UNL     1       7.316   5.190  21.151  0.00  0.00    +0.000 HD
ENDBRANCH   6   7
ENDBRANCH   2   6
TORSDOF 4
ENDMDL
MODEL 7
REMARK VINA RESULT:      -3.4     12.285     12.847
REMARK  Name = 
REMARK  4 active torsions:
REMARK  status: ('A' for Active; 'I' for Inactive)
REMARK    1  A    between atoms: C_2  and  C_3
REMARK    2  A    between atoms: C_2  and  C_5
REMARK    3  A    between atoms: C_3  and  O_4
REMARK    4  A    between atoms: C_5  and  O_6
REMARK                            x       y       z     vdW  Elec       q    Type
REMARK                         _______ _______ _______ _____ _____    ______ ____
ROOT
ATOM      1  O   UNL     1       7.787   5.474  14.596  0.00  0.00    +0.000 OA
ATOM      2  C   UNL     1       6.885   4.776  15.067  0.00  0.00    +0.000 C 
ENDROOT
BRANCH   2   3
ATOM      3  C   UNL     1       6.789   4.489  16.557  0.00  0.00    +0.000 C 
BRANCH   3   4
ATOM      4  O   UNL     1       8.058   4.359  17.174  0.00  0.00    +0.000 OA
ATOM      5  H   UNL     1       8.091   5.021  17.892  0.00  0.00    +0.000 HD
ENDBRANCH   3   4
ENDBRANCH   2   3
BRANCH   2   6
ATOM      6  C   UNL     1       5.812   4.150  14.187  0.00  0.00    +0.000 C 
BRANCH   6   7
ATOM      7  O   UNL     1       6.342   3.230  13.251  0.00  0.00    +0.000 OA
ATOM      8  H   UNL     1       7.090   3.677  12.810  0.00  0.00    +0.000 HD
ENDBRANCH   6   7
ENDBRANCH   2   6
TORSDOF 4
ENDMDL
MODEL 8
REMARK VINA RESULT:      -3.4     11.275     11.827
REMARK  Name = 
REMARK  4 active torsions:
REMARK  status: ('A' for Active; 'I' for Inactive)
REMARK    1  A    between atoms: C_2  and  C_3
REMARK    2  A    between atoms: C_2  and  C_5
REMARK    3  A    between atoms: C_3  and  O_4
REMARK    4  A    between atoms: C_5  and  O_6
REMARK                            x       y       z     vdW  Elec       q    Type
REMARK                         _______ _______ _______ _____ _____    ______ ____
ROOT
ATOM      1  O   UNL     1       7.535   5.710  15.378  0.00  0.00    +0.000 OA
ATOM      2  C   UNL     1       7.061   4.805  16.070  0.00  0.00    +0.000 C 
ENDROOT
BRANCH   2   3
ATOM      3  C   UNL     1       7.461   4.615  17.524  0.00  0.00    +0.000 C 
BRANCH   3   4
ATOM      4  O   UNL     1       6.442   4.007  18.299  0.00  0.00    +0.000 OA
ATOM      5  H   UNL     1       6.850   3.242  18.750  0.00  0.00    +0.000 HD
ENDBRANCH   3   4
ENDBRANCH   2   3
BRANCH   2   6
ATOM      6  C   UNL     1       6.050   3.812  15.512  0.00  0.00    +0.000 C 
BRANCH   6   7
ATOM      7  O   UNL     1       6.328   3.444  14.174  0.00  0.00    +0.000 OA
ATOM      8  H   UNL     1       5.466   3.326  13.729  0.00  0.00    +0.000 HD
ENDBRANCH   6   7
ENDBRANCH   2   6
TORSDOF 4
ENDMDL
MODEL 9
REMARK VINA RESULT:      -3.3     11.198     11.838
REMARK  Name = 
REMARK  4 active torsions:
REMARK  status: ('A' for Active; 'I' for Inactive)
REMARK    1  A    between atoms: C_2  and  C_3
REMARK    2  A    between atoms: C_2  and  C_5
REMARK    3  A    between atoms: C_3  and  O_4
REMARK    4  A    between atoms: C_5  and  O_6
REMARK                            x       y       z     vdW  Elec       q    Type
REMARK                         _______ _______ _______ _____ _____    ______ ____
ROOT
ATOM      1  O   UNL     1       7.684   5.462  15.344  0.00  0.00    +0.000 OA
ATOM      2  C   UNL     1       6.812   5.327  16.207  0.00  0.00    +0.000 C 
ENDROOT
BRANCH   2   3
ATOM      3  C   UNL     1       7.142   4.850  17.612  0.00  0.00    +0.000 C 
BRANCH   3   4
ATOM      4  O   UNL     1       8.291   4.021  17.655  0.00  0.00    +0.000 OA
ATOM      5  H   UNL     1       8.928   4.391  17.012  0.00  0.00    +0.000 HD
ENDBRANCH   3   4
ENDBRANCH   2   3
BRANCH   2   6
ATOM      6  C   UNL     1       5.346   5.621  15.919  0.00  0.00    +0.000 C 
BRANCH   6   7
ATOM      7  O   UNL     1       5.158   6.854  15.248  0.00  0.00    +0.000 OA
ATOM      8  H   UNL     1       4.196   7.025  15.238  0.00  0.00    +0.000 HD
ENDBRANCH   6   7
ENDBRANCH   2   6
TORSDOF 4
ENDMDL
