MODEL 1
REMARK VINA RESULT:      -6.9      0.000      0.000
REMARK  Name = 
REMARK  9 active torsions:
REMARK  status: ('A' for Active; 'I' for Inactive)
REMARK    1  A    between atoms: C_1  and  O_2
REMARK    2  A    between atoms: O_2  and  P_3
REMARK    3  A    between atoms: P_3  and  O_5
REMARK    4  A    between atoms: P_3  and  C_7
REMARK    5  A    between atoms: O_5  and  C_6
REMARK    6  A    between atoms: C_7  and  N_8
REMARK    7  A    between atoms: C_7  and  C_16
REMARK    8  A    between atoms: N_8  and  C_9
REMARK    9  A    between atoms: C_12  and  C_13
REMARK                            x       y       z     vdW  Elec       q    Type
REMARK                         _______ _______ _______ _____ _____    ______ ____
ROOT
ATOM      1  C   UNL     1      -1.915  11.844  18.286  0.00  0.00    +0.000 C 
ENDROOT
BRANCH   1   2
ATOM      2  C   UNL     1      -1.195  11.193  19.488  0.00  0.00    +0.000 A 
ATOM      3  C   UNL     1      -1.645  11.573  20.829  0.00  0.00    +0.000 A 
ATOM      4  C   UNL     1      -2.676  12.525  21.121  0.00  0.00    +0.000 A 
ATOM      5  C   UNL     1      -3.219  12.745  22.380  0.00  0.00    +0.000 A 
ATOM      6  C   UNL     1      -2.589  12.158  23.448  0.00  0.00    +0.000 A 
ATOM      7  C   UNL     1      -1.458  11.355  23.233  0.00  0.00    +0.000 A 
ATOM      8  C   UNL     1      -1.003  11.005  21.933  0.00  0.00    +0.000 A 
ATOM      9  C   UNL     1       0.079  10.124  21.708  0.00  0.00    +0.000 A 
ATOM     10  C   UNL     1       0.484   9.714  20.411  0.00  0.00    +0.000 A 
ATOM     11  C   UNL     1       1.476   8.725  20.242  0.00  0.00    +0.000 A 
ATOM     12  C   UNL     1       1.877   8.279  18.978  0.00  0.00    +0.000 A 
ATOM     13  C   UNL     1       1.347   8.880  17.849  0.00  0.00    +0.000 A 
ATOM     14  C   UNL     1       0.381   9.877  17.997  0.00  0.00    +0.000 A 
ATOM     15  C   UNL     1      -0.121  10.278  19.271  0.00  0.00    +0.000 A 
ENDBRANCH   1   2
BRANCH   1  16
ATOM     16  P   UNL     1      -2.279  10.639  16.957  0.00  0.00    +0.000 P 
ATOM     17  O   UNL     1      -2.515  11.818  15.986  0.00  0.00    +0.000 OA
BRANCH  16  19
ATOM     18  C   UNL     1      -3.202   9.959  14.496  0.00  0.00    +0.000 C 
ATOM     19  O   UNL     1      -2.624   9.500  15.701  0.00  0.00    +0.000 OA
ENDBRANCH  16  19
BRANCH  16  20
ATOM     20  O   UNL     1      -3.759  10.212  17.568  0.00  0.00    +0.000 OA
ATOM     21  C   UNL     1      -4.677  11.143  18.096  0.00  0.00    +0.000 C 
ENDBRANCH  16  20
ENDBRANCH   1  16
BRANCH   1  22
ATOM     22  N   UNL     1      -0.888  12.760  17.692  0.00  0.00    +0.000 N 
ATOM     23  H   UNL     1      -0.692  12.591  16.713  0.00  0.00    +0.000 HD
BRANCH  22  24
ATOM     24  C   UNL     1       0.051  13.590  18.241  0.00  0.00    +0.000 A 
ATOM     25  C   UNL     1       1.417  13.359  18.232  0.00  0.00    +0.000 A 
ATOM     26  C   UNL     1       2.275  14.150  19.008  0.00  0.00    +0.000 A 
ATOM     27  C   UNL     1       1.766  15.172  19.821  0.00  0.00    +0.000 A 
ATOM     28  C   UNL     1       2.663  15.920  20.767  0.00  0.00    +0.000 C 
ATOM     29  C   UNL     1       0.419  15.489  19.743  0.00  0.00    +0.000 A 
ATOM     30  C   UNL     1      -0.425  14.702  18.964  0.00  0.00    +0.000 A 
ENDBRANCH  22  24
ENDBRANCH   1  22
TORSDOF 6
ENDMDL
MODEL 2
REMARK VINA RESULT:      -6.9      2.364      6.076
REMARK  Name = 
REMARK  9 active torsions:
REMARK  status: ('A' for Active; 'I' for Inactive)
REMARK    1  A    between atoms: C_1  and  O_2
REMARK    2  A    between atoms: O_2  and  P_3
REMARK    3  A    between atoms: P_3  and  O_5
REMARK    4  A    between atoms: P_3  and  C_7
REMARK    5  A    between atoms: O_5  and  C_6
REMARK    6  A    between atoms: C_7  and  N_8
REMARK    7  A    between atoms: C_7  and  C_16
REMARK    8  A    between atoms: N_8  and  C_9
REMARK    9  A    between atoms: C_12  and  C_13
REMARK                            x       y       z     vdW  Elec       q    Type
REMARK                         _______ _______ _______ _____ _____    ______ ____
ROOT
ATOM      1  C   UNL     1       0.275  11.518  18.712  0.00  0.00    +0.000 C 
ENDROOT
BRANCH   1   2
ATOM      2  C   UNL     1       0.526  10.325  19.661  0.00  0.00    +0.000 A 
ATOM      3  C   UNL     1       1.347   9.224  19.156  0.00  0.00    +0.000 A 
ATOM      4  C   UNL     1       1.911   9.142  17.840  0.00  0.00    +0.000 A 
ATOM      5  C   UNL     1       2.833   8.189  17.430  0.00  0.00    +0.000 A 
ATOM      6  C   UNL     1       3.067   7.135  18.277  0.00  0.00    +0.000 A 
ATOM      7  C   UNL     1       2.400   7.073  19.510  0.00  0.00    +0.000 A 
ATOM      8  C   UNL     1       1.581   8.129  19.993  0.00  0.00    +0.000 A 
ATOM      9  C   UNL     1       0.980   8.113  21.271  0.00  0.00    +0.000 A 
ATOM     10  C   UNL     1       0.226   9.201  21.784  0.00  0.00    +0.000 A 
ATOM     11  C   UNL     1      -0.235   9.197  23.117  0.00  0.00    +0.000 A 
ATOM     12  C   UNL     1      -0.956  10.267  23.660  0.00  0.00    +0.000 A 
ATOM     13  C   UNL     1      -1.303  11.331  22.847  0.00  0.00    +0.000 A 
ATOM     14  C   UNL     1      -0.875  11.342  21.518  0.00  0.00    +0.000 A 
ATOM     15  C   UNL     1      -0.052  10.314  20.967  0.00  0.00    +0.000 A 
ENDBRANCH   1   2
BRANCH   1  16
ATOM     16  P   UNL     1       0.585  13.130  19.523  0.00  0.00    +0.000 P 
ATOM     17  O   UNL     1      -0.070  13.837  18.313  0.00  0.00    +0.000 OA
BRANCH  16  19
ATOM     18  C   UNL     1       0.786  14.745  21.696  0.00  0.00    +0.000 C 
ATOM     19  O   UNL     1       0.878  14.654  20.288  0.00  0.00    +0.000 OA
ENDBRANCH  16  19
BRANCH  16  20
ATOM     20  O   UNL     1       2.218  13.106  19.243  0.00  0.00    +0.000 OA
ATOM     21  C   UNL     1       2.785  12.809  17.987  0.00  0.00    +0.000 C 
ENDBRANCH  16  20
ENDBRANCH   1  16
BRANCH   1  22
ATOM     22  N   UNL     1      -1.205  11.495  18.474  0.00  0.00    +0.000 N 
ATOM     23  H   UNL     1      -1.762  11.758  19.277  0.00  0.00    +0.000 HD
BRANCH  22  24
ATOM     24  C   UNL     1      -1.985  10.931  17.502  0.00  0.00    +0.000 A 
ATOM     25  C   UNL     1      -1.633   9.827  16.743  0.00  0.00    +0.000 A 
ATOM     26  C   UNL     1      -2.398   9.460  15.628  0.00  0.00    +0.000 A 
ATOM     27  C   UNL     1      -3.517  10.213  15.249  0.00  0.00    +0.000 A 
ATOM     28  C   UNL     1      -4.248   9.913  13.970  0.00  0.00    +0.000 C 
ATOM     29  C   UNL     1      -3.948  11.243  16.071  0.00  0.00    +0.000 A 
ATOM     30  C   UNL     1      -3.185  11.596  17.181  0.00  0.00    +0.000 A 
ENDBRANCH  22  24
ENDBRANCH   1  22
TORSDOF 6
ENDMDL
MODEL 3
REMARK VINA RESULT:      -6.9      2.240      4.980
REMARK  Name = 
REMARK  9 active torsions:
REMARK  status: ('A' for Active; 'I' for Inactive)
REMARK    1  A    between atoms: C_1  and  O_2
REMARK    2  A    between atoms: O_2  and  P_3
REMARK    3  A    between atoms: P_3  and  O_5
REMARK    4  A    between atoms: P_3  and  C_7
REMARK    5  A    between atoms: O_5  and  C_6
REMARK    6  A    between atoms: C_7  and  N_8
REMARK    7  A    between atoms: C_7  and  C_16
REMARK    8  A    between atoms: N_8  and  C_9
REMARK    9  A    between atoms: C_12  and  C_13
REMARK                            x       y       z     vdW  Elec       q    Type
REMARK                         _______ _______ _______ _____ _____    ______ ____
ROOT
ATOM      1  C   UNL     1       0.214  11.579  18.659  0.00  0.00    +0.000 C 
ENDROOT
BRANCH   1   2
ATOM      2  C   UNL     1       0.534  10.409  19.615  0.00  0.00    +0.000 A 
ATOM      3  C   UNL     1      -0.018  10.476  20.970  0.00  0.00    +0.000 A 
ATOM      4  C   UNL     1      -0.803  11.555  21.495  0.00  0.00    +0.000 A 
ATOM      5  C   UNL     1      -1.471  11.529  22.712  0.00  0.00    +0.000 A 
ATOM      6  C   UNL     1      -1.198  10.484  23.558  0.00  0.00    +0.000 A 
ATOM      7  C   UNL     1      -0.293   9.487  23.163  0.00  0.00    +0.000 A 
ATOM      8  C   UNL     1       0.265   9.433  21.857  0.00  0.00    +0.000 A 
ATOM      9  C   UNL     1       1.105   8.384  21.422  0.00  0.00    +0.000 A 
ATOM     10  C   UNL     1       1.599   8.289  20.095  0.00  0.00    +0.000 A 
ATOM     11  C   UNL     1       2.317   7.151  19.670  0.00  0.00    +0.000 A 
ATOM     12  C   UNL     1       2.792   7.015  18.361  0.00  0.00    +0.000 A 
ATOM     13  C   UNL     1       2.629   8.061  17.470  0.00  0.00    +0.000 A 
ATOM     14  C   UNL     1       1.941   9.205  17.880  0.00  0.00    +0.000 A 
ATOM     15  C   UNL     1       1.357   9.328  19.176  0.00  0.00    +0.000 A 
ENDBRANCH   1   2
BRANCH   1  16
ATOM     16  P   UNL     1       0.468  13.212  19.447  0.00  0.00    +0.000 P 
ATOM     17  O   UNL     1      -0.879  13.682  18.852  0.00  0.00    +0.000 OA
BRANCH  16  19
ATOM     18  C   UNL     1       1.549  14.848  21.325  0.00  0.00    +0.000 C 
ATOM     19  O   UNL     1       0.708  14.755  20.192  0.00  0.00    +0.000 OA
ENDBRANCH  16  19
BRANCH  16  20
ATOM     20  O   UNL     1       1.654  13.686  18.392  0.00  0.00    +0.000 OA
ATOM     21  C   UNL     1       2.899  13.032  18.281  0.00  0.00    +0.000 C 
ENDBRANCH  16  20
ENDBRANCH   1  16
BRANCH   1  22
ATOM     22  N   UNL     1      -1.267  11.490  18.447  0.00  0.00    +0.000 N 
ATOM     23  H   UNL     1      -1.820  11.688  19.272  0.00  0.00    +0.000 HD
BRANCH  22  24
ATOM     24  C   UNL     1      -2.037  10.927  17.467  0.00  0.00    +0.000 A 
ATOM     25  C   UNL     1      -1.675   9.827  16.705  0.00  0.00    +0.000 A 
ATOM     26  C   UNL     1      -2.430   9.463  15.583  0.00  0.00    +0.000 A 
ATOM     27  C   UNL     1      -3.548  10.215  15.197  0.00  0.00    +0.000 A 
ATOM     28  C   UNL     1      -4.267   9.919  13.911  0.00  0.00    +0.000 C 
ATOM     29  C   UNL     1      -3.988  11.240  16.020  0.00  0.00    +0.000 A 
ATOM     30  C   UNL     1      -3.236  11.591  17.138  0.00  0.00    +0.000 A 
ENDBRANCH  22  24
ENDBRANCH   1  22
TORSDOF 6
ENDMDL
MODEL 4
REMARK VINA RESULT:      -6.9      1.131      1.856
REMARK  Name = 
REMARK  9 active torsions:
REMARK  status: ('A' for Active; 'I' for Inactive)
REMARK    1  A    between atoms: C_1  and  O_2
REMARK    2  A    between atoms: O_2  and  P_3
REMARK    3  A    between atoms: P_3  and  O_5
REMARK    4  A    between atoms: P_3  and  C_7
REMARK    5  A    between atoms: O_5  and  C_6
REMARK    6  A    between atoms: C_7  and  N_8
REMARK    7  A    between atoms: C_7  and  C_16
REMARK    8  A    between atoms: N_8  and  C_9
REMARK    9  A    between atoms: C_12  and  C_13
REMARK                            x       y       z     vdW  Elec       q    Type
REMARK                         _______ _______ _______ _____ _____    ______ ____
ROOT
ATOM      1  C   UNL     1      -1.659  12.180  18.883  0.00  0.00    +0.000 C 
ENDROOT
BRANCH   1   2
ATOM      2  C   UNL     1      -1.518  11.757  20.363  0.00  0.00    +0.000 A 
ATOM      3  C   UNL     1      -2.360  12.444  21.344  0.00  0.00    +0.000 A 
ATOM      4  C   UNL     1      -3.283  13.502  21.051  0.00  0.00    +0.000 A 
ATOM      5  C   UNL     1      -4.204  14.021  21.951  0.00  0.00    +0.000 A 
ATOM      6  C   UNL     1      -4.088  13.637  23.262  0.00  0.00    +0.000 A 
ATOM      7  C   UNL     1      -3.081  12.734  23.636  0.00  0.00    +0.000 A 
ATOM      8  C   UNL     1      -2.244  12.085  22.690  0.00  0.00    +0.000 A 
ATOM      9  C   UNL     1      -1.290  11.107  23.049  0.00  0.00    +0.000 A 
ATOM     10  C   UNL     1      -0.509  10.403  22.097  0.00  0.00    +0.000 A 
ATOM     11  C   UNL     1       0.328   9.338  22.493  0.00  0.00    +0.000 A 
ATOM     12  C   UNL     1       1.089   8.606  21.574  0.00  0.00    +0.000 A 
ATOM     13  C   UNL     1       1.089   8.983  20.243  0.00  0.00    +0.000 A 
ATOM     14  C   UNL     1       0.285  10.050  19.836  0.00  0.00    +0.000 A 
ATOM     15  C   UNL     1      -0.578  10.747  20.733  0.00  0.00    +0.000 A 
ENDBRANCH   1   2
BRANCH   1  16
ATOM     16  P   UNL     1      -2.317  10.832  17.834  0.00  0.00    +0.000 P 
ATOM     17  O   UNL     1      -2.184  11.759  16.603  0.00  0.00    +0.000 OA
BRANCH  16  19
ATOM     18  C   UNL     1      -2.977   9.735  15.439  0.00  0.00    +0.000 C 
ATOM     19  O   UNL     1      -2.940   9.559  16.842  0.00  0.00    +0.000 OA
ENDBRANCH  16  19
BRANCH  16  20
ATOM     20  O   UNL     1      -3.873  10.982  18.386  0.00  0.00    +0.000 OA
ATOM     21  C   UNL     1      -4.831  11.822  17.782  0.00  0.00    +0.000 C 
ENDBRANCH  16  20
ENDBRANCH   1  16
BRANCH   1  22
ATOM     22  N   UNL     1      -0.247  12.365  18.416  0.00  0.00    +0.000 N 
ATOM     23  H   UNL     1       0.211  11.513  18.121  0.00  0.00    +0.000 HD
BRANCH  22  24
ATOM     24  C   UNL     1       0.658  13.381  18.561  0.00  0.00    +0.000 A 
ATOM     25  C   UNL     1       0.334  14.697  18.850  0.00  0.00    +0.000 A 
ATOM     26  C   UNL     1       1.307  15.702  18.760  0.00  0.00    +0.000 A 
ATOM     27  C   UNL     1       2.614  15.399  18.356  0.00  0.00    +0.000 A 
ATOM     28  C   UNL     1       3.616  16.492  18.112  0.00  0.00    +0.000 C 
ATOM     29  C   UNL     1       2.977  14.072  18.185  0.00  0.00    +0.000 A 
ATOM     30  C   UNL     1       2.006  13.079  18.283  0.00  0.00    +0.000 A 
ENDBRANCH  22  24
ENDBRANCH   1  22
TORSDOF 6
ENDMDL
MODEL 5
REMARK VINA RESULT:      -6.7      7.211     10.794
REMARK  Name = 
REMARK  9 active torsions:
REMARK  status: ('A' for Active; 'I' for Inactive)
REMARK    1  A    between atoms: C_1  and  O_2
REMARK    2  A    between atoms: O_2  and  P_3
REMARK    3  A    between atoms: P_3  and  O_5
REMARK    4  A    between atoms: P_3  and  C_7
REMARK    5  A    between atoms: O_5  and  C_6
REMARK    6  A    between atoms: C_7  and  N_8
REMARK    7  A    between atoms: C_7  and  C_16
REMARK    8  A    between atoms: N_8  and  C_9
REMARK    9  A    between atoms: C_12  and  C_13
REMARK                            x       y       z     vdW  Elec       q    Type
REMARK                         _______ _______ _______ _____ _____    ______ ____
ROOT
ATOM      1  C   UNL     1       5.591   4.866  16.878  0.00  0.00    +0.000 C 
ENDROOT
BRANCH   1   2
ATOM      2  C   UNL     1       4.177   4.997  17.487  0.00  0.00    +0.000 A 
ATOM      3  C   UNL     1       3.519   3.767  17.933  0.00  0.00    +0.000 A 
ATOM      4  C   UNL     1       4.063   2.445  17.821  0.00  0.00    +0.000 A 
ATOM      5  C   UNL     1       3.518   1.311  18.407  0.00  0.00    +0.000 A 
ATOM      6  C   UNL     1       2.268   1.428  18.959  0.00  0.00    +0.000 A 
ATOM      7  C   UNL     1       1.610   2.667  18.936  0.00  0.00    +0.000 A 
ATOM      8  C   UNL     1       2.236   3.858  18.480  0.00  0.00    +0.000 A 
ATOM      9  C   UNL     1       1.613   5.125  18.538  0.00  0.00    +0.000 A 
ATOM     10  C   UNL     1       2.266   6.325  18.154  0.00  0.00    +0.000 A 
ATOM     11  C   UNL     1       1.655   7.580  18.362  0.00  0.00    +0.000 A 
ATOM     12  C   UNL     1       2.285   8.782  18.021  0.00  0.00    +0.000 A 
ATOM     13  C   UNL     1       3.513   8.745  17.384  0.00  0.00    +0.000 A 
ATOM     14  C   UNL     1       4.123   7.511  17.149  0.00  0.00    +0.000 A 
ATOM     15  C   UNL     1       3.551   6.277  17.578  0.00  0.00    +0.000 A 
ENDBRANCH   1   2
BRANCH   1  16
ATOM     16  P   UNL     1       6.768   6.077  17.585  0.00  0.00    +0.000 P 
ATOM     17  O   UNL     1       7.924   5.322  16.889  0.00  0.00    +0.000 OA
BRANCH  16  19
ATOM     18  C   UNL     1       7.953   8.517  17.695  0.00  0.00    +0.000 C 
ATOM     19  O   UNL     1       7.881   7.220  18.254  0.00  0.00    +0.000 OA
ENDBRANCH  16  19
BRANCH  16  20
ATOM     20  O   UNL     1       6.660   5.480  19.127  0.00  0.00    +0.000 OA
ATOM     21  C   UNL     1       7.755   5.420  20.013  0.00  0.00    +0.000 C 
ENDBRANCH  16  20
ENDBRANCH   1  16
BRANCH   1  22
ATOM     22  N   UNL     1       5.419   5.297  15.452  0.00  0.00    +0.000 N 
ATOM     23  H   UNL     1       4.784   6.074  15.324  0.00  0.00    +0.000 HD
BRANCH  22  24
ATOM     24  C   UNL     1       5.709   4.700  14.256  0.00  0.00    +0.000 A 
ATOM     25  C   UNL     1       4.882   3.806  13.594  0.00  0.00    +0.000 A 
ATOM     26  C   UNL     1       5.359   3.083  12.493  0.00  0.00    +0.000 A 
ATOM     27  C   UNL     1       6.681   3.234  12.055  0.00  0.00    +0.000 A 
ATOM     28  C   UNL     1       7.238   2.352  10.973  0.00  0.00    +0.000 C 
ATOM     29  C   UNL     1       7.475   4.214  12.631  0.00  0.00    +0.000 A 
ATOM     30  C   UNL     1       6.992   4.932  13.721  0.00  0.00    +0.000 A 
ENDBRANCH  22  24
ENDBRANCH   1  22
TORSDOF 6
ENDMDL
MODEL 6
REMARK VINA RESULT:      -6.7      0.517      1.021
REMARK  Name = 
REMARK  9 active torsions:
REMARK  status: ('A' for Active; 'I' for Inactive)
REMARK    1  A    between atoms: C_1  and  O_2
REMARK    2  A    between atoms: O_2  and  P_3
REMARK    3  A    between atoms: P_3  and  O_5
REMARK    4  A    between atoms: P_3  and  C_7
REMARK    5  A    between atoms: O_5  and  C_6
REMARK    6  A    between atoms: C_7  and  N_8
REMARK    7  A    between atoms: C_7  and  C_16
REMARK    8  A    between atoms: N_8  and  C_9
REMARK    9  A    between atoms: C_12  and  C_13
REMARK                            x       y       z     vdW  Elec       q    Type
REMARK                         _______ _______ _______ _____ _____    ______ ____
ROOT
ATOM      1  C   UNL     1      -2.002  11.970  18.423  0.00  0.00    +0.000 C 
ENDROOT
BRANCH   1   2
ATOM      2  C   UNL     1      -1.304  11.340  19.649  0.00  0.00    +0.000 A 
ATOM      3  C   UNL     1      -1.768  11.753  20.975  0.00  0.00    +0.000 A 
ATOM      4  C   UNL     1      -2.795  12.719  21.233  0.00  0.00    +0.000 A 
ATOM      5  C   UNL     1      -3.353  12.969  22.479  0.00  0.00    +0.000 A 
ATOM      6  C   UNL     1      -2.742  12.401  23.567  0.00  0.00    +0.000 A 
ATOM      7  C   UNL     1      -1.615  11.585  23.385  0.00  0.00    +0.000 A 
ATOM      8  C   UNL     1      -1.145  11.204  22.099  0.00  0.00    +0.000 A 
ATOM      9  C   UNL     1      -0.068  10.310  21.908  0.00  0.00    +0.000 A 
ATOM     10  C   UNL     1       0.351   9.868  20.626  0.00  0.00    +0.000 A 
ATOM     11  C   UNL     1       1.338   8.869  20.491  0.00  0.00    +0.000 A 
ATOM     12  C   UNL     1       1.752   8.392  19.242  0.00  0.00    +0.000 A 
ATOM     13  C   UNL     1       1.242   8.972  18.094  0.00  0.00    +0.000 A 
ATOM     14  C   UNL     1       0.281   9.980  18.207  0.00  0.00    +0.000 A 
ATOM     15  C   UNL     1      -0.234  10.412  19.465  0.00  0.00    +0.000 A 
ENDBRANCH   1   2
BRANCH   1  16
ATOM     16  P   UNL     1      -2.397  10.732  17.134  0.00  0.00    +0.000 P 
ATOM     17  O   UNL     1      -2.159  11.815  16.056  0.00  0.00    +0.000 OA
BRANCH  16  19
ATOM     18  C   UNL     1      -3.231  10.005  14.654  0.00  0.00    +0.000 C 
ATOM     19  O   UNL     1      -2.769   9.562  15.915  0.00  0.00    +0.000 OA
ENDBRANCH  16  19
BRANCH  16  20
ATOM     20  O   UNL     1      -4.022  10.719  17.456  0.00  0.00    +0.000 OA
ATOM     21  C   UNL     1      -4.654  11.662  18.292  0.00  0.00    +0.000 C 
ENDBRANCH  16  20
ENDBRANCH   1  16
BRANCH   1  22
ATOM     22  N   UNL     1      -0.949  12.837  17.803  0.00  0.00    +0.000 N 
ATOM     23  H   UNL     1      -0.690  12.572  16.861  0.00  0.00    +0.000 HD
BRANCH  22  24
ATOM     24  C   UNL     1      -0.055  13.735  18.320  0.00  0.00    +0.000 A 
ATOM     25  C   UNL     1      -0.367  15.024  18.722  0.00  0.00    +0.000 A 
ATOM     26  C   UNL     1       0.650  15.936  19.029  0.00  0.00    +0.000 A 
ATOM     27  C   UNL     1       1.998  15.570  18.914  0.00  0.00    +0.000 A 
ATOM     28  C   UNL     1       3.089  16.589  19.095  0.00  0.00    +0.000 C 
ATOM     29  C   UNL     1       2.318  14.251  18.633  0.00  0.00    +0.000 A 
ATOM     30  C   UNL     1       1.300  13.349  18.336  0.00  0.00    +0.000 A 
ENDBRANCH  22  24
ENDBRANCH   1  22
TORSDOF 6
ENDMDL
MODEL 7
REMARK VINA RESULT:      -6.7      2.858      5.800
REMARK  Name = 
REMARK  9 active torsions:
REMARK  status: ('A' for Active; 'I' for Inactive)
REMARK    1  A    between atoms: C_1  and  O_2
REMARK    2  A    between atoms: O_2  and  P_3
REMARK    3  A    between atoms: P_3  and  O_5
REMARK    4  A    between atoms: P_3  and  C_7
REMARK    5  A    between atoms: O_5  and  C_6
REMARK    6  A    between atoms: C_7  and  N_8
REMARK    7  A    between atoms: C_7  and  C_16
REMARK    8  A    between atoms: N_8  and  C_9
REMARK    9  A    between atoms: C_12  and  C_13
REMARK                            x       y       z     vdW  Elec       q    Type
REMARK                         _______ _______ _______ _____ _____    ______ ____
ROOT
ATOM      1  C   UNL     1      -1.146  12.728  20.250  0.00  0.00    +0.000 C 
ENDROOT
BRANCH   1   2
ATOM      2  C   UNL     1      -2.656  12.500  20.015  0.00  0.00    +0.000 A 
ATOM      3  C   UNL     1      -3.062  11.971  18.712  0.00  0.00    +0.000 A 
ATOM      4  C   UNL     1      -2.179  11.677  17.621  0.00  0.00    +0.000 A 
ATOM      5  C   UNL     1      -2.546  11.008  16.462  0.00  0.00    +0.000 A 
ATOM      6  C   UNL     1      -3.886  10.794  16.257  0.00  0.00    +0.000 A 
ATOM      7  C   UNL     1      -4.814  11.225  17.217  0.00  0.00    +0.000 A 
ATOM      8  C   UNL     1      -4.424  11.764  18.472  0.00  0.00    +0.000 A 
ATOM      9  C   UNL     1      -5.350  12.116  19.479  0.00  0.00    +0.000 A 
ATOM     10  C   UNL     1      -4.957  12.581  20.761  0.00  0.00    +0.000 A 
ATOM     11  C   UNL     1      -5.911  12.786  21.780  0.00  0.00    +0.000 A 
ATOM     12  C   UNL     1      -5.552  13.216  23.063  0.00  0.00    +0.000 A 
ATOM     13  C   UNL     1      -4.231  13.533  23.325  0.00  0.00    +0.000 A 
ATOM     14  C   UNL     1      -3.276  13.359  22.321  0.00  0.00    +0.000 A 
ATOM     15  C   UNL     1      -3.597  12.824  21.038  0.00  0.00    +0.000 A 
ENDBRANCH   1   2
BRANCH   1  16
ATOM     16  P   UNL     1      -0.500  11.732  21.643  0.00  0.00    +0.000 P 
ATOM     17  O   UNL     1       0.853  12.469  21.512  0.00  0.00    +0.000 OA
BRANCH  16  19
ATOM     18  C   UNL     1      -0.403   9.489  23.171  0.00  0.00    +0.000 C 
ATOM     19  O   UNL     1       0.111  10.789  22.959  0.00  0.00    +0.000 OA
ENDBRANCH  16  19
BRANCH  16  20
ATOM     20  O   UNL     1      -0.376  10.335  20.759  0.00  0.00    +0.000 OA
ATOM     21  C   UNL     1       0.407  10.223  19.592  0.00  0.00    +0.000 C 
ENDBRANCH  16  20
ENDBRANCH   1  16
BRANCH   1  22
ATOM     22  N   UNL     1      -1.057  14.146  20.729  0.00  0.00    +0.000 N 
ATOM     23  H   UNL     1      -1.303  14.275  21.702  0.00  0.00    +0.000 HD
BRANCH  22  24
ATOM     24  C   UNL     1      -0.988  15.348  20.079  0.00  0.00    +0.000 A 
ATOM     25  C   UNL     1      -1.974  16.321  20.104  0.00  0.00    +0.000 A 
ATOM     26  C   UNL     1      -1.910  17.417  19.234  0.00  0.00    +0.000 A 
ATOM     27  C   UNL     1      -0.863  17.538  18.310  0.00  0.00    +0.000 A 
ATOM     28  C   UNL     1      -0.873  18.628  17.276  0.00  0.00    +0.000 C 
ATOM     29  C   UNL     1       0.189  16.637  18.361  0.00  0.00    +0.000 A 
ATOM     30  C   UNL     1       0.120  15.554  19.234  0.00  0.00    +0.000 A 
ENDBRANCH  22  24
ENDBRANCH   1  22
TORSDOF 6
ENDMDL
MODEL 8
REMARK VINA RESULT:      -6.6      1.170      3.834
REMARK  Name = 
REMARK  9 active torsions:
REMARK  status: ('A' for Active; 'I' for Inactive)
REMARK    1  A    between atoms: C_1  and  O_2
REMARK    2  A    between atoms: O_2  and  P_3
REMARK    3  A    between atoms: P_3  and  O_5
REMARK    4  A    between atoms: P_3  and  C_7
REMARK    5  A    between atoms: O_5  and  C_6
REMARK    6  A    between atoms: C_7  and  N_8
REMARK    7  A    between atoms: C_7  and  C_16
REMARK    8  A    between atoms: N_8  and  C_9
REMARK    9  A    between atoms: C_12  and  C_13
REMARK                            x       y       z     vdW  Elec       q    Type
REMARK                         _______ _______ _______ _____ _____    ______ ____
ROOT
ATOM      1  C   UNL     1      -1.655  12.264  18.912  0.00  0.00    +0.000 C 
ENDROOT
BRANCH   1   2
ATOM      2  C   UNL     1      -1.577  11.916  20.416  0.00  0.00    +0.000 A 
ATOM      3  C   UNL     1      -0.699  10.811  20.807  0.00  0.00    +0.000 A 
ATOM      4  C   UNL     1       0.071  10.002  19.907  0.00  0.00    +0.000 A 
ATOM      5  C   UNL     1       1.035   9.082  20.296  0.00  0.00    +0.000 A 
ATOM      6  C   UNL     1       1.114   8.781  21.632  0.00  0.00    +0.000 A 
ATOM      7  C   UNL     1       0.255   9.417  22.541  0.00  0.00    +0.000 A 
ATOM      8  C   UNL     1      -0.617  10.471  22.160  0.00  0.00    +0.000 A 
ATOM      9  C   UNL     1      -1.419  11.179  23.085  0.00  0.00    +0.000 A 
ATOM     10  C   UNL     1      -2.231  12.282  22.717  0.00  0.00    +0.000 A 
ATOM     11  C   UNL     1      -2.903  13.044  23.696  0.00  0.00    +0.000 A 
ATOM     12  C   UNL     1      -3.689  14.155  23.368  0.00  0.00    +0.000 A 
ATOM     13  C   UNL     1      -3.886  14.475  22.036  0.00  0.00    +0.000 A 
ATOM     14  C   UNL     1      -3.247  13.717  21.051  0.00  0.00    +0.000 A 
ATOM     15  C   UNL     1      -2.359  12.645  21.362  0.00  0.00    +0.000 A 
ENDBRANCH   1   2
BRANCH   1  16
ATOM     16  P   UNL     1      -2.353  10.895  17.917  0.00  0.00    +0.000 P 
ATOM     17  O   UNL     1      -2.193  11.767  16.650  0.00  0.00    +0.000 OA
BRANCH  16  19
ATOM     18  C   UNL     1      -2.958   9.681  15.564  0.00  0.00    +0.000 C 
ATOM     19  O   UNL     1      -3.012   9.602  16.975  0.00  0.00    +0.000 OA
ENDBRANCH  16  19
BRANCH  16  20
ATOM     20  O   UNL     1      -3.903  11.113  18.461  0.00  0.00    +0.000 OA
ATOM     21  C   UNL     1      -4.907  11.749  17.703  0.00  0.00    +0.000 C 
ENDBRANCH  16  20
ENDBRANCH   1  16
BRANCH   1  22
ATOM     22  N   UNL     1      -0.223  12.352  18.479  0.00  0.00    +0.000 N 
ATOM     23  H   UNL     1       0.195  11.464  18.231  0.00  0.00    +0.000 HD
BRANCH  22  24
ATOM     24  C   UNL     1       0.733  13.322  18.609  0.00  0.00    +0.000 A 
ATOM     25  C   UNL     1       0.478  14.658  18.871  0.00  0.00    +0.000 A 
ATOM     26  C   UNL     1       1.502  15.609  18.767  0.00  0.00    +0.000 A 
ATOM     27  C   UNL     1       2.794  15.230  18.376  0.00  0.00    +0.000 A 
ATOM     28  C   UNL     1       3.853  16.264  18.117  0.00  0.00    +0.000 C 
ATOM     29  C   UNL     1       3.088  13.882  18.233  0.00  0.00    +0.000 A 
ATOM     30  C   UNL     1       2.065  12.944  18.345  0.00  0.00    +0.000 A 
ENDBRANCH  22  24
ENDBRANCH   1  22
TORSDOF 6
ENDMDL
MODEL 9
REMARK VINA RESULT:      -6.6      2.689      5.437
REMARK  Name = 
REMARK  9 active torsions:
REMARK  status: ('A' for Active; 'I' for Inactive)
REMARK    1  A    between atoms: C_1  and  O_2
REMARK    2  A    between atoms: O_2  and  P_3
REMARK    3  A    between atoms: P_3  and  O_5
REMARK    4  A    between atoms: P_3  and  C_7
REMARK    5  A    between atoms: O_5  and  C_6
REMARK    6  A    between atoms: C_7  and  N_8
REMARK    7  A    between atoms: C_7  and  C_16
REMARK    8  A    between atoms: N_8  and  C_9
REMARK    9  A    between atoms: C_12  and  C_13
REMARK                            x       y       z     vdW  Elec       q    Type
REMARK                         _______ _______ _______ _____ _____    ______ ____
ROOT
ATOM      1  C   UNL     1      -0.394  12.255  19.866  0.00  0.00    +0.000 C 
ENDROOT
BRANCH   1   2
ATOM      2  C   UNL     1      -1.939  12.286  19.896  0.00  0.00    +0.000 A 
ATOM      3  C   UNL     1      -2.643  11.905  18.670  0.00  0.00    +0.000 A 
ATOM      4  C   UNL     1      -2.020  11.539  17.432  0.00  0.00    +0.000 A 
ATOM      5  C   UNL     1      -2.686  11.007  16.336  0.00  0.00    +0.000 A 
ATOM      6  C   UNL     1      -4.057  11.021  16.365  0.00  0.00    +0.000 A 
ATOM      7  C   UNL     1      -4.723  11.538  17.487  0.00  0.00    +0.000 A 
ATOM      8  C   UNL     1      -4.041  11.933  18.668  0.00  0.00    +0.000 A 
ATOM      9  C   UNL     1      -4.710  12.369  19.834  0.00  0.00    +0.000 A 
ATOM     10  C   UNL     1      -4.033  12.689  21.040  0.00  0.00    +0.000 A 
ATOM     11  C   UNL     1      -4.753  12.983  22.217  0.00  0.00    +0.000 A 
ATOM     12  C   UNL     1      -4.114  13.274  23.428  0.00  0.00    +0.000 A 
ATOM     13  C   UNL     1      -2.734  13.360  23.462  0.00  0.00    +0.000 A 
ATOM     14  C   UNL     1      -2.006  13.095  22.300  0.00  0.00    +0.000 A 
ATOM     15  C   UNL     1      -2.625  12.695  21.079  0.00  0.00    +0.000 A 
ENDBRANCH   1   2
BRANCH   1  16
ATOM     16  P   UNL     1       0.302  11.070  21.075  0.00  0.00    +0.000 P 
ATOM     17  O   UNL     1       1.429  12.083  21.383  0.00  0.00    +0.000 OA
BRANCH  16  19
ATOM     18  C   UNL     1       0.132   9.456  23.252  0.00  0.00    +0.000 C 
ATOM     19  O   UNL     1       0.960   9.949  22.217  0.00  0.00    +0.000 OA
ENDBRANCH  16  19
BRANCH  16  20
ATOM     20  O   UNL     1       0.886  10.033  19.921  0.00  0.00    +0.000 OA
ATOM     21  C   UNL     1       1.310  10.454  18.644  0.00  0.00    +0.000 C 
ENDBRANCH  16  20
ENDBRANCH   1  16
BRANCH   1  22
ATOM     22  N   UNL     1       0.011  13.602  20.384  0.00  0.00    +0.000 N 
ATOM     23  H   UNL     1      -0.085  13.712  21.386  0.00  0.00    +0.000 HD
BRANCH  22  24
ATOM     24  C   UNL     1       0.217  14.812  19.779  0.00  0.00    +0.000 A 
ATOM     25  C   UNL     1      -0.782  15.704  19.428  0.00  0.00    +0.000 A 
ATOM     26  C   UNL     1      -0.492  16.810  18.618  0.00  0.00    +0.000 A 
ATOM     27  C   UNL     1       0.805  17.020  18.131  0.00  0.00    +0.000 A 
ATOM     28  C   UNL     1       1.086  18.116  17.141  0.00  0.00    +0.000 C 
ATOM     29  C   UNL     1       1.833  16.204  18.576  0.00  0.00    +0.000 A 
ATOM     30  C   UNL     1       1.537  15.112  19.387  0.00  0.00    +0.000 A 
ENDBRANCH  22  24
ENDBRANCH   1  22
TORSDOF 6
ENDMDL
