MODEL 1
REMARK VINA RESULT:      -7.2      0.000      0.000
REMARK  Name = 
REMARK  11 active torsions:
REMARK  status: ('A' for Active; 'I' for Inactive)
REMARK    1  A    between atoms: C_2  and  O_3
REMARK    2  A    between atoms: C_2  and  C_4
REMARK    3  A    between atoms: C_4  and  N_5
REMARK    4  A    between atoms: N_5  and  C_6
REMARK    5  A    between atoms: C_6  and  N_8
REMARK    6  A    between atoms: N_8  and  C_9
REMARK    7  A    between atoms: C_12  and  N_13
REMARK    8  A    between atoms: N_14  and  C_15
REMARK    9  A    between atoms: C_18  and  O_19
REMARK   10  A    between atoms: C_20  and  C_21
REMARK   11  A    between atoms: C_21  and  O_23
REMARK                            x       y       z     vdW  Elec       q    Type
REMARK                         _______ _______ _______ _____ _____    ______ ____
ROOT
ATOM      1  C   UNL     1       6.319   5.075  18.266  0.00  0.00    +0.000 A 
ATOM      2  C   UNL     1       7.492   5.526  18.874  0.00  0.00    +0.000 A 
ATOM      3  C   UNL     1       7.996   6.804  18.580  0.00  0.00    +0.000 A 
ATOM      4  C   UNL     1       7.340   7.653  17.683  0.00  0.00    +0.000 A 
ATOM      5  C   UNL     1       6.141   7.202  17.110  0.00  0.00    +0.000 A 
ATOM      6  C   UNL     1       5.648   5.919  17.378  0.00  0.00    +0.000 A 
ENDROOT
BRANCH   1   7
ATOM      7  N   UNL     1       5.841   3.755  18.413  0.00  0.00    +0.000 N 
ATOM      8  H   UNL     1       6.390   3.026  17.961  0.00  0.00    +0.000 HD
BRANCH   7   9
ATOM      9  C   UNL     1       4.591   3.326  18.774  0.00  0.00    +0.000 C 
ATOM     10  S   UNL     1       3.654   2.173  18.016  0.00  0.00    +0.000 S 
BRANCH   9  11
ATOM     11  N   UNL     1       4.119   3.888  19.933  0.00  0.00    +0.000 N 
ATOM     12  H   UNL     1       4.624   3.595  20.762  0.00  0.00    +0.000 HD
BRANCH  11  13
ATOM     13  C   UNL     1       2.716   4.244  20.109  0.00  0.00    +0.000 C 
BRANCH  13  15
ATOM     14  O   UNL     1       2.460   3.004  22.199  0.00  0.00    +0.000 OA
ATOM     15  C   UNL     1       1.978   3.411  21.149  0.00  0.00    +0.000 C 
BRANCH  15  16
ATOM     16  O   UNL     1       0.685   3.173  20.816  0.00  0.00    +0.000 OA
ATOM     17  H   UNL     1       0.110   2.916  21.565  0.00  0.00    +0.000 HD
ENDBRANCH  15  16
ENDBRANCH  13  15
ENDBRANCH  11  13
ENDBRANCH   9  11
ENDBRANCH   7   9
ENDBRANCH   1   7
BRANCH   4  18
ATOM     18  N   UNL     1       7.905   8.921  17.397  0.00  0.00    +0.000 NA
ATOM     19  N   UNL     1       8.573   9.343  18.366  0.00  0.00    +0.000 NA
BRANCH  19  20
ATOM     20  C   UNL     1       9.102  10.632  18.162  0.00  0.00    +0.000 A 
ATOM     21  C   UNL     1      10.487  10.800  18.285  0.00  0.00    +0.000 A 
ATOM     22  C   UNL     1      11.073  12.067  18.221  0.00  0.00    +0.000 A 
ATOM     23  C   UNL     1      10.266  13.188  18.037  0.00  0.00    +0.000 A 
ATOM     24  C   UNL     1       8.877  13.053  17.902  0.00  0.00    +0.000 A 
ATOM     25  C   UNL     1       8.308  11.768  17.966  0.00  0.00    +0.000 A 
BRANCH  23  26
ATOM     26  O   UNL     1      10.847  14.431  18.003  0.00  0.00    +0.000 OA
ATOM     27  H   UNL     1      10.145  15.106  17.942  0.00  0.00    +0.000 HD
ENDBRANCH  23  26
BRANCH  24  28
ATOM     28  C   UNL     1       7.943  14.204  17.721  0.00  0.00    +0.000 C 
ATOM     29  O   UNL     1       8.328  15.362  17.716  0.00  0.00    +0.000 OA
BRANCH  28  30
ATOM     30  O   UNL     1       6.647  13.879  17.552  0.00  0.00    +0.000 OA
ATOM     31  H   UNL     1       6.396  13.803  16.603  0.00  0.00    +0.000 HD
ENDBRANCH  28  30
ENDBRANCH  24  28
ENDBRANCH  19  20
ENDBRANCH   4  18
TORSDOF 11
ENDMDL
MODEL 2
REMARK VINA RESULT:      -7.2      5.393      7.556
REMARK  Name = 
REMARK  11 active torsions:
REMARK  status: ('A' for Active; 'I' for Inactive)
REMARK    1  A    between atoms: C_2  and  O_3
REMARK    2  A    between atoms: C_2  and  C_4
REMARK    3  A    between atoms: C_4  and  N_5
REMARK    4  A    between atoms: N_5  and  C_6
REMARK    5  A    between atoms: C_6  and  N_8
REMARK    6  A    between atoms: N_8  and  C_9
REMARK    7  A    between atoms: C_12  and  N_13
REMARK    8  A    between atoms: N_14  and  C_15
REMARK    9  A    between atoms: C_18  and  O_19
REMARK   10  A    between atoms: C_20  and  C_21
REMARK   11  A    between atoms: C_21  and  O_23
REMARK                            x       y       z     vdW  Elec       q    Type
REMARK                         _______ _______ _______ _____ _____    ______ ____
ROOT
ATOM      1  C   UNL     1       3.982   4.755  17.735  0.00  0.00    +0.000 A 
ATOM      2  C   UNL     1       3.222   4.490  18.876  0.00  0.00    +0.000 A 
ATOM      3  C   UNL     1       2.530   5.527  19.522  0.00  0.00    +0.000 A 
ATOM      4  C   UNL     1       2.577   6.840  19.042  0.00  0.00    +0.000 A 
ATOM      5  C   UNL     1       3.312   7.083  17.871  0.00  0.00    +0.000 A 
ATOM      6  C   UNL     1       4.026   6.060  17.238  0.00  0.00    +0.000 A 
ENDROOT
BRANCH   1   7
ATOM      7  N   UNL     1       4.808   3.786  17.126  0.00  0.00    +0.000 N 
ATOM      8  H   UNL     1       4.710   2.833  17.469  0.00  0.00    +0.000 HD
BRANCH   7   9
ATOM      9  C   UNL     1       5.950   3.967  16.391  0.00  0.00    +0.000 C 
ATOM     10  S   UNL     1       6.095   4.004  14.730  0.00  0.00    +0.000 S 
BRANCH   9  11
ATOM     11  N   UNL     1       7.070   4.205  17.146  0.00  0.00    +0.000 N 
ATOM     12  H   UNL     1       7.247   3.494  17.847  0.00  0.00    +0.000 HD
BRANCH  11  13
ATOM     13  C   UNL     1       7.533   5.555  17.448  0.00  0.00    +0.000 C 
BRANCH  13  15
ATOM     14  O   UNL     1       6.942   5.324  19.808  0.00  0.00    +0.000 OA
ATOM     15  C   UNL     1       7.589   5.886  18.934  0.00  0.00    +0.000 C 
BRANCH  15  16
ATOM     16  O   UNL     1       8.472   6.875  19.222  0.00  0.00    +0.000 OA
ATOM     17  H   UNL     1       8.080   7.661  19.653  0.00  0.00    +0.000 HD
ENDBRANCH  15  16
ENDBRANCH  13  15
ENDBRANCH  11  13
ENDBRANCH   9  11
ENDBRANCH   7   9
ENDBRANCH   1   7
BRANCH   4  18
ATOM     18  N   UNL     1       1.886   7.856  19.746  0.00  0.00    +0.000 NA
ATOM     19  N   UNL     1       1.619   8.820  18.996  0.00  0.00    +0.000 NA
BRANCH  19  20
ATOM     20  C   UNL     1       0.991   9.891  19.662  0.00  0.00    +0.000 A 
ATOM     21  C   UNL     1       1.137  11.175  19.122  0.00  0.00    +0.000 A 
ATOM     22  C   UNL     1       0.651  12.302  19.790  0.00  0.00    +0.000 A 
ATOM     23  C   UNL     1       0.014  12.150  21.021  0.00  0.00    +0.000 A 
ATOM     24  C   UNL     1      -0.155  10.877  21.585  0.00  0.00    +0.000 A 
ATOM     25  C   UNL     1       0.339   9.755  20.894  0.00  0.00    +0.000 A 
BRANCH  23  26
ATOM     26  O   UNL     1      -0.435  13.265  21.682  0.00  0.00    +0.000 OA
ATOM     27  H   UNL     1      -0.677  13.946  21.026  0.00  0.00    +0.000 HD
ENDBRANCH  23  26
BRANCH  24  28
ATOM     28  C   UNL     1      -0.809  10.632  22.904  0.00  0.00    +0.000 C 
ATOM     29  O   UNL     1      -1.337  11.525  23.546  0.00  0.00    +0.000 OA
BRANCH  28  30
ATOM     30  O   UNL     1      -0.786   9.356  23.334  0.00  0.00    +0.000 OA
ATOM     31  H   UNL     1      -1.365   9.211  24.118  0.00  0.00    +0.000 HD
ENDBRANCH  28  30
ENDBRANCH  24  28
ENDBRANCH  19  20
ENDBRANCH   4  18
TORSDOF 11
ENDMDL
MODEL 3
REMARK VINA RESULT:      -7.2      2.050      2.389
REMARK  Name = 
REMARK  11 active torsions:
REMARK  status: ('A' for Active; 'I' for Inactive)
REMARK    1  A    between atoms: C_2  and  O_3
REMARK    2  A    between atoms: C_2  and  C_4
REMARK    3  A    between atoms: C_4  and  N_5
REMARK    4  A    between atoms: N_5  and  C_6
REMARK    5  A    between atoms: C_6  and  N_8
REMARK    6  A    between atoms: N_8  and  C_9
REMARK    7  A    between atoms: C_12  and  N_13
REMARK    8  A    between atoms: N_14  and  C_15
REMARK    9  A    between atoms: C_18  and  O_19
REMARK   10  A    between atoms: C_20  and  C_21
REMARK   11  A    between atoms: C_21  and  O_23
REMARK                            x       y       z     vdW  Elec       q    Type
REMARK                         _______ _______ _______ _____ _____    ______ ____
ROOT
ATOM      1  C   UNL     1       5.983   5.665  17.576  0.00  0.00    +0.000 A 
ATOM      2  C   UNL     1       6.918   5.449  18.590  0.00  0.00    +0.000 A 
ATOM      3  C   UNL     1       7.864   6.439  18.905  0.00  0.00    +0.000 A 
ATOM      4  C   UNL     1       7.890   7.660  18.221  0.00  0.00    +0.000 A 
ATOM      5  C   UNL     1       6.918   7.877  17.232  0.00  0.00    +0.000 A 
ATOM      6  C   UNL     1       5.991   6.884  16.895  0.00  0.00    +0.000 A 
ENDROOT
BRANCH   1   7
ATOM      7  N   UNL     1       5.103   4.659  17.123  0.00  0.00    +0.000 N 
ATOM      8  H   UNL     1       5.404   4.136  16.303  0.00  0.00    +0.000 HD
BRANCH   7   9
ATOM      9  C   UNL     1       3.771   4.493  17.395  0.00  0.00    +0.000 C 
ATOM     10  S   UNL     1       2.748   5.565  18.160  0.00  0.00    +0.000 S 
BRANCH   9  11
ATOM     11  N   UNL     1       3.241   3.325  16.909  0.00  0.00    +0.000 N 
ATOM     12  H   UNL     1       2.822   3.419  15.990  0.00  0.00    +0.000 HD
BRANCH  11  13
ATOM     13  C   UNL     1       2.681   2.301  17.784  0.00  0.00    +0.000 C 
BRANCH  13  15
ATOM     14  O   UNL     1       3.804   2.267  19.953  0.00  0.00    +0.000 OA
ATOM     15  C   UNL     1       3.643   1.779  18.842  0.00  0.00    +0.000 C 
BRANCH  15  16
ATOM     16  O   UNL     1       4.313   0.667  18.446  0.00  0.00    +0.000 OA
ATOM     17  H   UNL     1       5.288   0.754  18.449  0.00  0.00    +0.000 HD
ENDBRANCH  15  16
ENDBRANCH  13  15
ENDBRANCH  11  13
ENDBRANCH   9  11
ENDBRANCH   7   9
ENDBRANCH   1   7
BRANCH   4  18
ATOM     18  N   UNL     1       8.882   8.614  18.554  0.00  0.00    +0.000 NA
ATOM     19  N   UNL     1       8.446   9.779  18.424  0.00  0.00    +0.000 NA
BRANCH  19  20
ATOM     20  C   UNL     1       9.413  10.770  18.676  0.00  0.00    +0.000 A 
ATOM     21  C   UNL     1      10.013  10.795  19.943  0.00  0.00    +0.000 A 
ATOM     22  C   UNL     1      10.888  11.820  20.311  0.00  0.00    +0.000 A 
ATOM     23  C   UNL     1      11.166  12.844  19.407  0.00  0.00    +0.000 A 
ATOM     24  C   UNL     1      10.588  12.845  18.129  0.00  0.00    +0.000 A 
ATOM     25  C   UNL     1       9.713  11.801  17.777  0.00  0.00    +0.000 A 
BRANCH  23  26
ATOM     26  O   UNL     1      12.004  13.861  19.788  0.00  0.00    +0.000 OA
ATOM     27  H   UNL     1      12.409  14.252  18.991  0.00  0.00    +0.000 HD
ENDBRANCH  23  26
BRANCH  24  28
ATOM     28  C   UNL     1      10.822  13.912  17.112  0.00  0.00    +0.000 C 
ATOM     29  O   UNL     1      10.558  15.084  17.324  0.00  0.00    +0.000 OA
BRANCH  28  30
ATOM     30  O   UNL     1      11.353  13.496  15.946  0.00  0.00    +0.000 OA
ATOM     31  H   UNL     1      12.161  12.948  16.073  0.00  0.00    +0.000 HD
ENDBRANCH  28  30
ENDBRANCH  24  28
ENDBRANCH  19  20
ENDBRANCH   4  18
TORSDOF 11
ENDMDL
MODEL 4
REMARK VINA RESULT:      -7.1      1.704      2.287
REMARK  Name = 
REMARK  11 active torsions:
REMARK  status: ('A' for Active; 'I' for Inactive)
REMARK    1  A    between atoms: C_2  and  O_3
REMARK    2  A    between atoms: C_2  and  C_4
REMARK    3  A    between atoms: C_4  and  N_5
REMARK    4  A    between atoms: N_5  and  C_6
REMARK    5  A    between atoms: C_6  and  N_8
REMARK    6  A    between atoms: N_8  and  C_9
REMARK    7  A    between atoms: C_12  and  N_13
REMARK    8  A    between atoms: N_14  and  C_15
REMARK    9  A    between atoms: C_18  and  O_19
REMARK   10  A    between atoms: C_20  and  C_21
REMARK   11  A    between atoms: C_21  and  O_23
REMARK                            x       y       z     vdW  Elec       q    Type
REMARK                         _______ _______ _______ _____ _____    ______ ____
ROOT
ATOM      1  C   UNL     1       6.074   5.573  17.496  0.00  0.00    +0.000 A 
ATOM      2  C   UNL     1       6.087   6.848  16.928  0.00  0.00    +0.000 A 
ATOM      3  C   UNL     1       7.015   7.808  17.362  0.00  0.00    +0.000 A 
ATOM      4  C   UNL     1       7.948   7.514  18.362  0.00  0.00    +0.000 A 
ATOM      5  C   UNL     1       7.950   6.215  18.895  0.00  0.00    +0.000 A 
ATOM      6  C   UNL     1       7.009   5.263  18.486  0.00  0.00    +0.000 A 
ENDROOT
BRANCH   1   7
ATOM      7  N   UNL     1       5.080   4.615  17.201  0.00  0.00    +0.000 N 
ATOM      8  H   UNL     1       4.915   4.429  16.214  0.00  0.00    +0.000 HD
BRANCH   7   9
ATOM      9  C   UNL     1       4.074   4.143  18.002  0.00  0.00    +0.000 C 
ATOM     10  S   UNL     1       3.084   2.830  17.724  0.00  0.00    +0.000 S 
BRANCH   9  11
ATOM     11  N   UNL     1       3.940   4.817  19.189  0.00  0.00    +0.000 N 
ATOM     12  H   UNL     1       4.084   4.235  20.006  0.00  0.00    +0.000 HD
BRANCH  11  13
ATOM     13  C   UNL     1       3.036   5.952  19.343  0.00  0.00    +0.000 C 
BRANCH  13  15
ATOM     14  O   UNL     1       1.490   4.735  20.791  0.00  0.00    +0.000 OA
ATOM     15  C   UNL     1       2.004   5.793  20.451  0.00  0.00    +0.000 C 
BRANCH  15  16
ATOM     16  O   UNL     1       1.711   6.962  21.072  0.00  0.00    +0.000 OA
ATOM     17  H   UNL     1       0.879   7.385  20.778  0.00  0.00    +0.000 HD
ENDBRANCH  15  16
ENDBRANCH  13  15
ENDBRANCH  11  13
ENDBRANCH   9  11
ENDBRANCH   7   9
ENDBRANCH   1   7
BRANCH   4  18
ATOM     18  N   UNL     1       8.844   8.526  18.788  0.00  0.00    +0.000 NA
ATOM     19  N   UNL     1       8.561   9.625  18.263  0.00  0.00    +0.000 NA
BRANCH  19  20
ATOM     20  C   UNL     1       9.462  10.653  18.597  0.00  0.00    +0.000 A 
ATOM     21  C   UNL     1       9.790  10.825  19.949  0.00  0.00    +0.000 A 
ATOM     22  C   UNL     1      10.577  11.898  20.373  0.00  0.00    +0.000 A 
ATOM     23  C   UNL     1      11.041  12.823  19.439  0.00  0.00    +0.000 A 
ATOM     24  C   UNL     1      10.737  12.675  18.078  0.00  0.00    +0.000 A 
ATOM     25  C   UNL     1       9.946  11.585  17.671  0.00  0.00    +0.000 A 
BRANCH  23  26
ATOM     26  O   UNL     1      11.789  13.889  19.869  0.00  0.00    +0.000 OA
ATOM     27  H   UNL     1      11.956  13.792  20.826  0.00  0.00    +0.000 HD
ENDBRANCH  23  26
BRANCH  24  28
ATOM     28  C   UNL     1      11.180  13.630  17.019  0.00  0.00    +0.000 C 
ATOM     29  O   UNL     1      10.922  14.821  17.065  0.00  0.00    +0.000 OA
BRANCH  28  30
ATOM     30  O   UNL     1      11.893  13.088  16.012  0.00  0.00    +0.000 OA
ATOM     31  H   UNL     1      11.853  12.105  16.007  0.00  0.00    +0.000 HD
ENDBRANCH  28  30
ENDBRANCH  24  28
ENDBRANCH  19  20
ENDBRANCH   4  18
TORSDOF 11
ENDMDL
MODEL 5
REMARK VINA RESULT:      -7.0      6.346      8.340
REMARK  Name = 
REMARK  11 active torsions:
REMARK  status: ('A' for Active; 'I' for Inactive)
REMARK    1  A    between atoms: C_2  and  O_3
REMARK    2  A    between atoms: C_2  and  C_4
REMARK    3  A    between atoms: C_4  and  N_5
REMARK    4  A    between atoms: N_5  and  C_6
REMARK    5  A    between atoms: C_6  and  N_8
REMARK    6  A    between atoms: N_8  and  C_9
REMARK    7  A    between atoms: C_12  and  N_13
REMARK    8  A    between atoms: N_14  and  C_15
REMARK    9  A    between atoms: C_18  and  O_19
REMARK   10  A    between atoms: C_20  and  C_21
REMARK   11  A    between atoms: C_21  and  O_23
REMARK                            x       y       z     vdW  Elec       q    Type
REMARK                         _______ _______ _______ _____ _____    ______ ____
ROOT
ATOM      1  C   UNL     1       3.974   5.661  18.479  0.00  0.00    +0.000 A 
ATOM      2  C   UNL     1       3.183   5.616  19.629  0.00  0.00    +0.000 A 
ATOM      3  C   UNL     1       2.321   6.681  19.938  0.00  0.00    +0.000 A 
ATOM      4  C   UNL     1       2.227   7.802  19.106  0.00  0.00    +0.000 A 
ATOM      5  C   UNL     1       2.997   7.814  17.933  0.00  0.00    +0.000 A 
ATOM      6  C   UNL     1       3.879   6.769  17.635  0.00  0.00    +0.000 A 
ENDROOT
BRANCH   1   7
ATOM      7  N   UNL     1       4.957   4.690  18.191  0.00  0.00    +0.000 N 
ATOM      8  H   UNL     1       4.700   3.722  18.373  0.00  0.00    +0.000 HD
BRANCH   7   9
ATOM      9  C   UNL     1       6.307   4.855  18.025  0.00  0.00    +0.000 C 
ATOM     10  S   UNL     1       7.362   5.672  19.026  0.00  0.00    +0.000 S 
BRANCH   9  11
ATOM     11  N   UNL     1       6.821   4.203  16.933  0.00  0.00    +0.000 N 
ATOM     12  H   UNL     1       7.819   4.338  16.811  0.00  0.00    +0.000 HD
BRANCH  11  13
ATOM     13  C   UNL     1       6.038   3.972  15.724  0.00  0.00    +0.000 C 
BRANCH  13  15
ATOM     14  O   UNL     1       7.520   5.293  14.302  0.00  0.00    +0.000 OA
ATOM     15  C   UNL     1       6.742   4.357  14.431  0.00  0.00    +0.000 C 
BRANCH  15  16
ATOM     16  O   UNL     1       6.445   3.527  13.400  0.00  0.00    +0.000 OA
ATOM     17  H   UNL     1       5.493   3.470  13.181  0.00  0.00    +0.000 HD
ENDBRANCH  15  16
ENDBRANCH  13  15
ENDBRANCH  11  13
ENDBRANCH   9  11
ENDBRANCH   7   9
ENDBRANCH   1   7
BRANCH   4  18
ATOM     18  N   UNL     1       1.364   8.863  19.476  0.00  0.00    +0.000 NA
ATOM     19  N   UNL     1       1.215   8.907  20.717  0.00  0.00    +0.000 NA
BRANCH  19  20
ATOM     20  C   UNL     1       0.311   9.902  21.137  0.00  0.00    +0.000 A 
ATOM     21  C   UNL     1      -0.016   9.959  22.498  0.00  0.00    +0.000 A 
ATOM     22  C   UNL     1      -0.997  10.835  22.972  0.00  0.00    +0.000 A 
ATOM     23  C   UNL     1      -1.669  11.665  22.076  0.00  0.00    +0.000 A 
ATOM     24  C   UNL     1      -1.359  11.637  20.708  0.00  0.00    +0.000 A 
ATOM     25  C   UNL     1      -0.366  10.751  20.252  0.00  0.00    +0.000 A 
BRANCH  23  26
ATOM     26  O   UNL     1      -2.650  12.500  22.546  0.00  0.00    +0.000 OA
ATOM     27  H   UNL     1      -3.164  12.840  21.790  0.00  0.00    +0.000 HD
ENDBRANCH  23  26
BRANCH  24  28
ATOM     28  C   UNL     1      -2.045  12.479  19.683  0.00  0.00    +0.000 C 
ATOM     29  O   UNL     1      -2.594  11.999  18.706  0.00  0.00    +0.000 OA
BRANCH  28  30
ATOM     30  O   UNL     1      -2.024  13.806  19.915  0.00  0.00    +0.000 OA
ATOM     31  H   UNL     1      -1.235  14.087  20.432  0.00  0.00    +0.000 HD
ENDBRANCH  28  30
ENDBRANCH  24  28
ENDBRANCH  19  20
ENDBRANCH   4  18
TORSDOF 11
ENDMDL
MODEL 6
REMARK VINA RESULT:      -7.0      1.630      2.322
REMARK  Name = 
REMARK  11 active torsions:
REMARK  status: ('A' for Active; 'I' for Inactive)
REMARK    1  A    between atoms: C_2  and  O_3
REMARK    2  A    between atoms: C_2  and  C_4
REMARK    3  A    between atoms: C_4  and  N_5
REMARK    4  A    between atoms: N_5  and  C_6
REMARK    5  A    between atoms: C_6  and  N_8
REMARK    6  A    between atoms: N_8  and  C_9
REMARK    7  A    between atoms: C_12  and  N_13
REMARK    8  A    between atoms: N_14  and  C_15
REMARK    9  A    between atoms: C_18  and  O_19
REMARK   10  A    between atoms: C_20  and  C_21
REMARK   11  A    between atoms: C_21  and  O_23
REMARK                            x       y       z     vdW  Elec       q    Type
REMARK                         _______ _______ _______ _____ _____    ______ ____
ROOT
ATOM      1  C   UNL     1       6.901   5.570  18.163  0.00  0.00    +0.000 A 
ATOM      2  C   UNL     1       6.507   6.532  17.230  0.00  0.00    +0.000 A 
ATOM      3  C   UNL     1       7.085   7.812  17.246  0.00  0.00    +0.000 A 
ATOM      4  C   UNL     1       8.065   8.154  18.184  0.00  0.00    +0.000 A 
ATOM      5  C   UNL     1       8.479   7.165  19.089  0.00  0.00    +0.000 A 
ATOM      6  C   UNL     1       7.888   5.896  19.096  0.00  0.00    +0.000 A 
ENDROOT
BRANCH   1   7
ATOM      7  N   UNL     1       6.260   4.319  18.286  0.00  0.00    +0.000 N 
ATOM      8  H   UNL     1       6.846   3.499  18.142  0.00  0.00    +0.000 HD
BRANCH   7   9
ATOM      9  C   UNL     1       4.923   4.027  18.235  0.00  0.00    +0.000 C 
ATOM     10  S   UNL     1       4.013   3.658  16.886  0.00  0.00    +0.000 S 
BRANCH   9  11
ATOM     11  N   UNL     1       4.313   3.980  19.462  0.00  0.00    +0.000 N 
ATOM     12  H   UNL     1       4.962   4.000  20.241  0.00  0.00    +0.000 HD
BRANCH  11  13
ATOM     13  C   UNL     1       3.050   3.282  19.678  0.00  0.00    +0.000 C 
BRANCH  13  15
ATOM     14  O   UNL     1       1.125   3.416  21.176  0.00  0.00    +0.000 OA
ATOM     15  C   UNL     1       2.146   3.918  20.725  0.00  0.00    +0.000 C 
BRANCH  15  16
ATOM     16  O   UNL     1       2.600   5.123  21.154  0.00  0.00    +0.000 OA
ATOM     17  H   UNL     1       1.900   5.756  21.410  0.00  0.00    +0.000 HD
ENDBRANCH  15  16
ENDBRANCH  13  15
ENDBRANCH  11  13
ENDBRANCH   9  11
ENDBRANCH   7   9
ENDBRANCH   1   7
BRANCH   4  18
ATOM     18  N   UNL     1       8.595   9.468  18.178  0.00  0.00    +0.000 NA
ATOM     19  N   UNL     1       9.227   9.701  19.231  0.00  0.00    +0.000 NA
BRANCH  19  20
ATOM     20  C   UNL     1       9.718  11.019  19.308  0.00  0.00    +0.000 A 
ATOM     21  C   UNL     1       9.307  11.810  20.390  0.00  0.00    +0.000 A 
ATOM     22  C   UNL     1       9.651  13.162  20.471  0.00  0.00    +0.000 A 
ATOM     23  C   UNL     1      10.410  13.740  19.455  0.00  0.00    +0.000 A 
ATOM     24  C   UNL     1      10.843  12.974  18.363  0.00  0.00    +0.000 A 
ATOM     25  C   UNL     1      10.490  11.613  18.303  0.00  0.00    +0.000 A 
BRANCH  23  26
ATOM     26  O   UNL     1      10.718  15.075  19.529  0.00  0.00    +0.000 OA
ATOM     27  H   UNL     1       9.902  15.577  19.717  0.00  0.00    +0.000 HD
ENDBRANCH  23  26
BRANCH  24  28
ATOM     28  C   UNL     1      11.643  13.522  17.228  0.00  0.00    +0.000 C 
ATOM     29  O   UNL     1      11.684  14.715  16.975  0.00  0.00    +0.000 OA
BRANCH  28  30
ATOM     30  O   UNL     1      12.325  12.612  16.506  0.00  0.00    +0.000 OA
ATOM     31  H   UNL     1      11.786  11.815  16.297  0.00  0.00    +0.000 HD
ENDBRANCH  28  30
ENDBRANCH  24  28
ENDBRANCH  19  20
ENDBRANCH   4  18
TORSDOF 11
ENDMDL
MODEL 7
REMARK VINA RESULT:      -7.0      2.204      2.644
REMARK  Name = 
REMARK  11 active torsions:
REMARK  status: ('A' for Active; 'I' for Inactive)
REMARK    1  A    between atoms: C_2  and  O_3
REMARK    2  A    between atoms: C_2  and  C_4
REMARK    3  A    between atoms: C_4  and  N_5
REMARK    4  A    between atoms: N_5  and  C_6
REMARK    5  A    between atoms: C_6  and  N_8
REMARK    6  A    between atoms: N_8  and  C_9
REMARK    7  A    between atoms: C_12  and  N_13
REMARK    8  A    between atoms: N_14  and  C_15
REMARK    9  A    between atoms: C_18  and  O_19
REMARK   10  A    between atoms: C_20  and  C_21
REMARK   11  A    between atoms: C_21  and  O_23
REMARK                            x       y       z     vdW  Elec       q    Type
REMARK                         _______ _______ _______ _____ _____    ______ ____
ROOT
ATOM      1  C   UNL     1       6.383   5.038  17.463  0.00  0.00    +0.000 A 
ATOM      2  C   UNL     1       6.465   6.235  16.749  0.00  0.00    +0.000 A 
ATOM      3  C   UNL     1       7.254   7.293  17.230  0.00  0.00    +0.000 A 
ATOM      4  C   UNL     1       7.977   7.175  18.422  0.00  0.00    +0.000 A 
ATOM      5  C   UNL     1       7.917   5.952  19.107  0.00  0.00    +0.000 A 
ATOM      6  C   UNL     1       7.111   4.904  18.647  0.00  0.00    +0.000 A 
ENDROOT
BRANCH   1   7
ATOM      7  N   UNL     1       5.502   3.995  17.105  0.00  0.00    +0.000 N 
ATOM      8  H   UNL     1       5.744   3.470  16.268  0.00  0.00    +0.000 HD
BRANCH   7   9
ATOM      9  C   UNL     1       4.206   3.788  17.501  0.00  0.00    +0.000 C 
ATOM     10  S   UNL     1       3.063   4.942  17.881  0.00  0.00    +0.000 S 
BRANCH   9  11
ATOM     11  N   UNL     1       3.828   2.470  17.512  0.00  0.00    +0.000 N 
ATOM     12  H   UNL     1       3.439   2.151  16.632  0.00  0.00    +0.000 HD
BRANCH  11  13
ATOM     13  C   UNL     1       3.348   1.808  18.721  0.00  0.00    +0.000 C 
BRANCH  13  15
ATOM     14  O   UNL     1       5.183   2.120  20.302  0.00  0.00    +0.000 OA
ATOM     15  C   UNL     1       4.006   2.286  20.007  0.00  0.00    +0.000 C 
BRANCH  15  16
ATOM     16  O   UNL     1       3.154   2.960  20.819  0.00  0.00    +0.000 OA
ATOM     17  H   UNL     1       3.228   2.735  21.769  0.00  0.00    +0.000 HD
ENDBRANCH  15  16
ENDBRANCH  13  15
ENDBRANCH  11  13
ENDBRANCH   9  11
ENDBRANCH   7   9
ENDBRANCH   1   7
BRANCH   4  18
ATOM     18  N   UNL     1       8.734   8.281  18.880  0.00  0.00    +0.000 NA
ATOM     19  N   UNL     1       8.387   9.333  18.300  0.00  0.00    +0.000 NA
BRANCH  19  20
ATOM     20  C   UNL     1       9.155  10.455  18.668  0.00  0.00    +0.000 A 
ATOM     21  C   UNL     1      10.150  10.888  17.782  0.00  0.00    +0.000 A 
ATOM     22  C   UNL     1      11.034  11.913  18.129  0.00  0.00    +0.000 A 
ATOM     23  C   UNL     1      10.932  12.514  19.382  0.00  0.00    +0.000 A 
ATOM     24  C   UNL     1       9.942  12.109  20.289  0.00  0.00    +0.000 A 
ATOM     25  C   UNL     1       9.059  11.077  19.918  0.00  0.00    +0.000 A 
BRANCH  23  26
ATOM     26  O   UNL     1      11.822  13.500  19.725  0.00  0.00    +0.000 OA
ATOM     27  H   UNL     1      11.604  14.309  19.224  0.00  0.00    +0.000 HD
ENDBRANCH  23  26
BRANCH  24  28
ATOM     28  C   UNL     1       9.778  12.689  21.655  0.00  0.00    +0.000 C 
ATOM     29  O   UNL     1       9.951  13.874  21.885  0.00  0.00    +0.000 OA
BRANCH  28  30
ATOM     30  O   UNL     1       9.416  11.817  22.616  0.00  0.00    +0.000 OA
ATOM     31  H   UNL     1       8.479  11.930  22.896  0.00  0.00    +0.000 HD
ENDBRANCH  28  30
ENDBRANCH  24  28
ENDBRANCH  19  20
ENDBRANCH   4  18
TORSDOF 11
ENDMDL
MODEL 8
REMARK VINA RESULT:      -7.0      6.676      8.511
REMARK  Name = 
REMARK  11 active torsions:
REMARK  status: ('A' for Active; 'I' for Inactive)
REMARK    1  A    between atoms: C_2  and  O_3
REMARK    2  A    between atoms: C_2  and  C_4
REMARK    3  A    between atoms: C_4  and  N_5
REMARK    4  A    between atoms: N_5  and  C_6
REMARK    5  A    between atoms: C_6  and  N_8
REMARK    6  A    between atoms: N_8  and  C_9
REMARK    7  A    between atoms: C_12  and  N_13
REMARK    8  A    between atoms: N_14  and  C_15
REMARK    9  A    between atoms: C_18  and  O_19
REMARK   10  A    between atoms: C_20  and  C_21
REMARK   11  A    between atoms: C_21  and  O_23
REMARK                            x       y       z     vdW  Elec       q    Type
REMARK                         _______ _______ _______ _____ _____    ______ ____
ROOT
ATOM      1  C   UNL     1       4.017   5.877  18.538  0.00  0.00    +0.000 A 
ATOM      2  C   UNL     1       3.062   6.082  19.535  0.00  0.00    +0.000 A 
ATOM      3  C   UNL     1       2.224   7.209  19.493  0.00  0.00    +0.000 A 
ATOM      4  C   UNL     1       2.319   8.144  18.456  0.00  0.00    +0.000 A 
ATOM      5  C   UNL     1       3.256   7.903  17.440  0.00  0.00    +0.000 A 
ATOM      6  C   UNL     1       4.112   6.797  17.491  0.00  0.00    +0.000 A 
ENDROOT
BRANCH   1   7
ATOM      7  N   UNL     1       4.977   4.844  18.600  0.00  0.00    +0.000 N 
ATOM      8  H   UNL     1       4.755   4.062  19.214  0.00  0.00    +0.000 HD
BRANCH   7   9
ATOM      9  C   UNL     1       6.297   4.871  18.238  0.00  0.00    +0.000 C 
ATOM     10  S   UNL     1       7.522   5.769  18.928  0.00  0.00    +0.000 S 
BRANCH   9  11
ATOM     11  N   UNL     1       6.620   3.999  17.230  0.00  0.00    +0.000 N 
ATOM     12  H   UNL     1       7.609   3.780  17.183  0.00  0.00    +0.000 HD
BRANCH  11  13
ATOM     13  C   UNL     1       5.875   3.947  15.977  0.00  0.00    +0.000 C 
BRANCH  13  15
ATOM     14  O   UNL     1       7.512   5.234  14.699  0.00  0.00    +0.000 OA
ATOM     15  C   UNL     1       6.682   4.335  14.745  0.00  0.00    +0.000 C 
BRANCH  15  16
ATOM     16  O   UNL     1       6.415   3.552  13.670  0.00  0.00    +0.000 OA
ATOM     17  H   UNL     1       7.106   2.891  13.463  0.00  0.00    +0.000 HD
ENDBRANCH  15  16
ENDBRANCH  13  15
ENDBRANCH  11  13
ENDBRANCH   9  11
ENDBRANCH   7   9
ENDBRANCH   1   7
BRANCH   4  18
ATOM     18  N   UNL     1       1.472   9.279  18.474  0.00  0.00    +0.000 NA
ATOM     19  N   UNL     1       0.606   9.179  19.371  0.00  0.00    +0.000 NA
BRANCH  19  20
ATOM     20  C   UNL     1      -0.307  10.250  19.390  0.00  0.00    +0.000 A 
ATOM     21  C   UNL     1      -0.288  11.109  20.497  0.00  0.00    +0.000 A 
ATOM     22  C   UNL     1      -1.243  12.118  20.648  0.00  0.00    +0.000 A 
ATOM     23  C   UNL     1      -2.239  12.272  19.685  0.00  0.00    +0.000 A 
ATOM     24  C   UNL     1      -2.281  11.434  18.562  0.00  0.00    +0.000 A 
ATOM     25  C   UNL     1      -1.308  10.426  18.426  0.00  0.00    +0.000 A 
BRANCH  23  26
ATOM     26  O   UNL     1      -3.189  13.247  19.856  0.00  0.00    +0.000 OA
ATOM     27  H   UNL     1      -2.976  13.756  20.662  0.00  0.00    +0.000 HD
ENDBRANCH  23  26
BRANCH  24  28
ATOM     28  C   UNL     1      -3.324  11.522  17.497  0.00  0.00    +0.000 C 
ATOM     29  O   UNL     1      -3.176  11.018  16.395  0.00  0.00    +0.000 OA
BRANCH  28  30
ATOM     30  O   UNL     1      -4.444  12.188  17.836  0.00  0.00    +0.000 OA
ATOM     31  H   UNL     1      -4.858  11.838  18.658  0.00  0.00    +0.000 HD
ENDBRANCH  28  30
ENDBRANCH  24  28
ENDBRANCH  19  20
ENDBRANCH   4  18
TORSDOF 11
ENDMDL
MODEL 9
REMARK VINA RESULT:      -7.0      5.470      7.922
REMARK  Name = 
REMARK  11 active torsions:
REMARK  status: ('A' for Active; 'I' for Inactive)
REMARK    1  A    between atoms: C_2  and  O_3
REMARK    2  A    between atoms: C_2  and  C_4
REMARK    3  A    between atoms: C_4  and  N_5
REMARK    4  A    between atoms: N_5  and  C_6
REMARK    5  A    between atoms: C_6  and  N_8
REMARK    6  A    between atoms: N_8  and  C_9
REMARK    7  A    between atoms: C_12  and  N_13
REMARK    8  A    between atoms: N_14  and  C_15
REMARK    9  A    between atoms: C_18  and  O_19
REMARK   10  A    between atoms: C_20  and  C_21
REMARK   11  A    between atoms: C_21  and  O_23
REMARK                            x       y       z     vdW  Elec       q    Type
REMARK                         _______ _______ _______ _____ _____    ______ ____
ROOT
ATOM      1  C   UNL     1       4.180   4.719  17.998  0.00  0.00    +0.000 A 
ATOM      2  C   UNL     1       3.858   6.030  17.644  0.00  0.00    +0.000 A 
ATOM      3  C   UNL     1       3.062   6.818  18.492  0.00  0.00    +0.000 A 
ATOM      4  C   UNL     1       2.581   6.317  19.706  0.00  0.00    +0.000 A 
ATOM      5  C   UNL     1       2.947   5.012  20.068  0.00  0.00    +0.000 A 
ATOM      6  C   UNL     1       3.716   4.212  19.214  0.00  0.00    +0.000 A 
ENDROOT
BRANCH   1   7
ATOM      7  N   UNL     1       4.855   3.836  17.128  0.00  0.00    +0.000 N 
ATOM      8  H   UNL     1       4.794   2.846  17.356  0.00  0.00    +0.000 HD
BRANCH   7   9
ATOM      9  C   UNL     1       5.848   4.109  16.225  0.00  0.00    +0.000 C 
ATOM     10  S   UNL     1       5.678   4.486  14.609  0.00  0.00    +0.000 S 
BRANCH   9  11
ATOM     11  N   UNL     1       7.108   4.126  16.766  0.00  0.00    +0.000 N 
ATOM     12  H   UNL     1       7.649   3.292  16.566  0.00  0.00    +0.000 HD
BRANCH  11  13
ATOM     13  C   UNL     1       7.410   4.821  18.013  0.00  0.00    +0.000 C 
BRANCH  13  15
ATOM     14  O   UNL     1       7.582   6.949  16.825  0.00  0.00    +0.000 OA
ATOM     15  C   UNL     1       7.743   6.297  17.850  0.00  0.00    +0.000 C 
BRANCH  15  16
ATOM     16  O   UNL     1       8.226   6.859  18.986  0.00  0.00    +0.000 OA
ATOM     17  H   UNL     1       7.770   6.583  19.806  0.00  0.00    +0.000 HD
ENDBRANCH  15  16
ENDBRANCH  13  15
ENDBRANCH  11  13
ENDBRANCH   9  11
ENDBRANCH   7   9
ENDBRANCH   1   7
BRANCH   4  18
ATOM     18  N   UNL     1       1.758   7.141  20.513  0.00  0.00    +0.000 NA
ATOM     19  N   UNL     1       1.641   8.283  20.015  0.00  0.00    +0.000 NA
BRANCH  19  20
ATOM     20  C   UNL     1       0.888   9.166  20.812  0.00  0.00    +0.000 A 
ATOM     21  C   UNL     1       0.660   8.813  22.149  0.00  0.00    +0.000 A 
ATOM     22  C   UNL     1      -0.179   9.573  22.967  0.00  0.00    +0.000 A 
ATOM     23  C   UNL     1      -0.811  10.701  22.445  0.00  0.00    +0.000 A 
ATOM     24  C   UNL     1      -0.598  11.085  21.113  0.00  0.00    +0.000 A 
ATOM     25  C   UNL     1       0.255  10.309  20.308  0.00  0.00    +0.000 A 
BRANCH  23  26
ATOM     26  O   UNL     1      -1.656  11.424  23.248  0.00  0.00    +0.000 OA
ATOM     27  H   UNL     1      -1.465  12.374  23.132  0.00  0.00    +0.000 HD
ENDBRANCH  23  26
BRANCH  24  28
ATOM     28  C   UNL     1      -1.250  12.268  20.476  0.00  0.00    +0.000 C 
ATOM     29  O   UNL     1      -0.611  13.129  19.894  0.00  0.00    +0.000 OA
BRANCH  28  30
ATOM     30  O   UNL     1      -2.592  12.315  20.576  0.00  0.00    +0.000 OA
ATOM     31  H   UNL     1      -3.043  12.064  19.738  0.00  0.00    +0.000 HD
ENDBRANCH  28  30
ENDBRANCH  24  28
ENDBRANCH  19  20
ENDBRANCH   4  18
TORSDOF 11
ENDMDL
