MODEL 1
REMARK VINA RESULT:      -6.2      0.000      0.000
REMARK  Name = 
REMARK  6 active torsions:
REMARK  status: ('A' for Active; 'I' for Inactive)
REMARK    1  A    between atoms: C_2  and  O_3
REMARK    2  A    between atoms: C_2  and  C_4
REMARK    3  A    between atoms: C_4  and  O_5
REMARK    4  A    between atoms: O_5  and  C_6
REMARK    5  A    between atoms: C_12  and  C_13
REMARK    6  A    between atoms: N_14  and  O_15
REMARK                            x       y       z     vdW  Elec       q    Type
REMARK                         _______ _______ _______ _____ _____    ______ ____
ROOT
ATOM      1  C   UNL     1       4.025   4.752  17.532  0.00  0.00    +0.000 A 
ATOM      2  C   UNL     1       2.776   4.197  17.226  0.00  0.00    +0.000 A 
ATOM      3  C   UNL     1       1.966   3.678  18.241  0.00  0.00    +0.000 A 
ATOM      4  C   UNL     1       2.391   3.733  19.565  0.00  0.00    +0.000 A 
ATOM      5 BR   UNL     1       1.313   2.987  20.926  0.00  0.00    +0.000 Br
ATOM      6  C   UNL     1       3.602   4.332  19.893  0.00  0.00    +0.000 A 
ATOM      7  C   UNL     1       4.416   4.855  18.878  0.00  0.00    +0.000 A 
ENDROOT
BRANCH   7   8
ATOM      8  C   UNL     1       5.693   5.501  19.245  0.00  0.00    +0.000 C 
ATOM      9  N   UNL     1       6.790   4.825  19.388  0.00  0.00    +0.000 NA
BRANCH   9  10
ATOM     10  O   UNL     1       7.821   5.702  19.738  0.00  0.00    +0.000 OA
ATOM     11  H   UNL     1       8.615   5.151  19.606  0.00  0.00    +0.000 HD
ENDBRANCH   9  10
ENDBRANCH   7   8
BRANCH   1  12
ATOM     12  O   UNL     1       4.892   5.211  16.569  0.00  0.00    +0.000 OA
BRANCH  12  13
ATOM     13  C   UNL     1       5.682   4.195  15.936  0.00  0.00    +0.000 C 
BRANCH  13  15
ATOM     14  O   UNL     1       7.516   5.250  14.758  0.00  0.00    +0.000 OA
ATOM     15  C   UNL     1       7.112   4.680  15.761  0.00  0.00    +0.000 C 
BRANCH  15  16
ATOM     16  O   UNL     1       7.909   4.417  16.822  0.00  0.00    +0.000 OA
ATOM     17  H   UNL     1       8.848   4.381  16.543  0.00  0.00    +0.000 HD
ENDBRANCH  15  16
ENDBRANCH  13  15
ENDBRANCH  12  13
ENDBRANCH   1  12
TORSDOF 6
ENDMDL
MODEL 2
REMARK VINA RESULT:      -6.0      2.878      3.873
REMARK  Name = 
REMARK  6 active torsions:
REMARK  status: ('A' for Active; 'I' for Inactive)
REMARK    1  A    between atoms: C_2  and  O_3
REMARK    2  A    between atoms: C_2  and  C_4
REMARK    3  A    between atoms: C_4  and  O_5
REMARK    4  A    between atoms: O_5  and  C_6
REMARK    5  A    between atoms: C_12  and  C_13
REMARK    6  A    between atoms: N_14  and  O_15
REMARK                            x       y       z     vdW  Elec       q    Type
REMARK                         _______ _______ _______ _____ _____    ______ ____
ROOT
ATOM      1  C   UNL     1       3.485   3.952  17.624  0.00  0.00    +0.000 A 
ATOM      2  C   UNL     1       2.141   4.329  17.735  0.00  0.00    +0.000 A 
ATOM      3  C   UNL     1       1.794   5.676  17.875  0.00  0.00    +0.000 A 
ATOM      4  C   UNL     1       2.786   6.652  17.882  0.00  0.00    +0.000 A 
ATOM      5 BR   UNL     1       2.314   8.466  18.120  0.00  0.00    +0.000 Br
ATOM      6  C   UNL     1       4.122   6.301  17.716  0.00  0.00    +0.000 A 
ATOM      7  C   UNL     1       4.472   4.951  17.573  0.00  0.00    +0.000 A 
ENDROOT
BRANCH   7   8
ATOM      8  C   UNL     1       5.894   4.597  17.383  0.00  0.00    +0.000 C 
ATOM      9  N   UNL     1       6.689   4.379  18.383  0.00  0.00    +0.000 NA
BRANCH   9  10
ATOM     10  O   UNL     1       7.962   4.072  17.894  0.00  0.00    +0.000 OA
ATOM     11  H   UNL     1       7.824   4.094  16.929  0.00  0.00    +0.000 HD
ENDBRANCH   9  10
ENDBRANCH   7   8
BRANCH   1  12
ATOM     12  O   UNL     1       3.889   2.640  17.556  0.00  0.00    +0.000 OA
BRANCH  12  13
ATOM     13  C   UNL     1       3.339   1.787  18.571  0.00  0.00    +0.000 C 
BRANCH  13  15
ATOM     14  O   UNL     1       3.244   2.545  20.869  0.00  0.00    +0.000 OA
ATOM     15  C   UNL     1       3.918   2.151  19.928  0.00  0.00    +0.000 C 
BRANCH  15  16
ATOM     16  O   UNL     1       5.261   2.005  20.002  0.00  0.00    +0.000 OA
ATOM     17  H   UNL     1       5.506   1.059  19.924  0.00  0.00    +0.000 HD
ENDBRANCH  15  16
ENDBRANCH  13  15
ENDBRANCH  12  13
ENDBRANCH   1  12
TORSDOF 6
ENDMDL
MODEL 3
REMARK VINA RESULT:      -5.8      1.111      1.384
REMARK  Name = 
REMARK  6 active torsions:
REMARK  status: ('A' for Active; 'I' for Inactive)
REMARK    1  A    between atoms: C_2  and  O_3
REMARK    2  A    between atoms: C_2  and  C_4
REMARK    3  A    between atoms: C_4  and  O_5
REMARK    4  A    between atoms: O_5  and  C_6
REMARK    5  A    between atoms: C_12  and  C_13
REMARK    6  A    between atoms: N_14  and  O_15
REMARK                            x       y       z     vdW  Elec       q    Type
REMARK                         _______ _______ _______ _____ _____    ______ ____
ROOT
ATOM      1  C   UNL     1       4.729   4.124  17.300  0.00  0.00    +0.000 A 
ATOM      2  C   UNL     1       3.439   3.616  17.104  0.00  0.00    +0.000 A 
ATOM      3  C   UNL     1       2.460   3.771  18.091  0.00  0.00    +0.000 A 
ATOM      4  C   UNL     1       2.762   4.454  19.266  0.00  0.00    +0.000 A 
ATOM      5 BR   UNL     1       1.450   4.617  20.617  0.00  0.00    +0.000 Br
ATOM      6  C   UNL     1       4.021   5.014  19.453  0.00  0.00    +0.000 A 
ATOM      7  C   UNL     1       5.003   4.862  18.465  0.00  0.00    +0.000 A 
ENDROOT
BRANCH   7   8
ATOM      8  C   UNL     1       6.330   5.476  18.673  0.00  0.00    +0.000 C 
ATOM      9  N   UNL     1       7.018   5.278  19.754  0.00  0.00    +0.000 NA
BRANCH   9  10
ATOM     10  O   UNL     1       8.220   5.987  19.664  0.00  0.00    +0.000 OA
ATOM     11  H   UNL     1       8.099   6.496  18.841  0.00  0.00    +0.000 HD
ENDBRANCH   9  10
ENDBRANCH   7   8
BRANCH   1  12
ATOM     12  O   UNL     1       5.748   3.939  16.397  0.00  0.00    +0.000 OA
BRANCH  12  13
ATOM     13  C   UNL     1       5.473   4.414  15.071  0.00  0.00    +0.000 C 
BRANCH  13  15
ATOM     14  O   UNL     1       7.686   5.367  14.838  0.00  0.00    +0.000 OA
ATOM     15  C   UNL     1       6.773   4.720  14.347  0.00  0.00    +0.000 C 
BRANCH  15  16
ATOM     16  O   UNL     1       6.828   4.214  13.093  0.00  0.00    +0.000 OA
ATOM     17  H   UNL     1       6.746   3.238  13.117  0.00  0.00    +0.000 HD
ENDBRANCH  15  16
ENDBRANCH  13  15
ENDBRANCH  12  13
ENDBRANCH   1  12
TORSDOF 6
ENDMDL
MODEL 4
REMARK VINA RESULT:      -5.8      2.453      2.665
REMARK  Name = 
REMARK  6 active torsions:
REMARK  status: ('A' for Active; 'I' for Inactive)
REMARK    1  A    between atoms: C_2  and  O_3
REMARK    2  A    between atoms: C_2  and  C_4
REMARK    3  A    between atoms: C_4  and  O_5
REMARK    4  A    between atoms: O_5  and  C_6
REMARK    5  A    between atoms: C_12  and  C_13
REMARK    6  A    between atoms: N_14  and  O_15
REMARK                            x       y       z     vdW  Elec       q    Type
REMARK                         _______ _______ _______ _____ _____    ______ ____
ROOT
ATOM      1  C   UNL     1       3.690   5.615  17.696  0.00  0.00    +0.000 A 
ATOM      2  C   UNL     1       3.348   6.954  17.472  0.00  0.00    +0.000 A 
ATOM      3  C   UNL     1       2.652   7.678  18.446  0.00  0.00    +0.000 A 
ATOM      4  C   UNL     1       2.316   7.073  19.653  0.00  0.00    +0.000 A 
ATOM      5 BR   UNL     1       1.333   8.042  20.944  0.00  0.00    +0.000 Br
ATOM      6  C   UNL     1       2.698   5.762  19.915  0.00  0.00    +0.000 A 
ATOM      7  C   UNL     1       3.397   5.034  18.942  0.00  0.00    +0.000 A 
ENDROOT
BRANCH   7   8
ATOM      8  C   UNL     1       3.807   3.647  19.242  0.00  0.00    +0.000 C 
ATOM      9  N   UNL     1       5.021   3.347  19.586  0.00  0.00    +0.000 NA
BRANCH   9  10
ATOM     10  O   UNL     1       5.105   1.968  19.800  0.00  0.00    +0.000 OA
ATOM     11  H   UNL     1       6.026   1.862  20.104  0.00  0.00    +0.000 HD
ENDBRANCH   9  10
ENDBRANCH   7   8
BRANCH   1  12
ATOM     12  O   UNL     1       4.309   4.835  16.749  0.00  0.00    +0.000 OA
BRANCH  12  13
ATOM     13  C   UNL     1       5.240   5.532  15.909  0.00  0.00    +0.000 C 
BRANCH  13  15
ATOM     14  O   UNL     1       7.633   5.889  16.006  0.00  0.00    +0.000 OA
ATOM     15  C   UNL     1       6.664   5.222  16.339  0.00  0.00    +0.000 C 
BRANCH  15  16
ATOM     16  O   UNL     1       6.767   4.128  17.128  0.00  0.00    +0.000 OA
ATOM     17  H   UNL     1       6.452   4.330  18.034  0.00  0.00    +0.000 HD
ENDBRANCH  15  16
ENDBRANCH  13  15
ENDBRANCH  12  13
ENDBRANCH   1  12
TORSDOF 6
ENDMDL
MODEL 5
REMARK VINA RESULT:      -5.7      1.825      1.992
REMARK  Name = 
REMARK  6 active torsions:
REMARK  status: ('A' for Active; 'I' for Inactive)
REMARK    1  A    between atoms: C_2  and  O_3
REMARK    2  A    between atoms: C_2  and  C_4
REMARK    3  A    between atoms: C_4  and  O_5
REMARK    4  A    between atoms: O_5  and  C_6
REMARK    5  A    between atoms: C_12  and  C_13
REMARK    6  A    between atoms: N_14  and  O_15
REMARK                            x       y       z     vdW  Elec       q    Type
REMARK                         _______ _______ _______ _____ _____    ______ ____
ROOT
ATOM      1  C   UNL     1       4.920   4.235  17.058  0.00  0.00    +0.000 A 
ATOM      2  C   UNL     1       3.722   3.519  17.182  0.00  0.00    +0.000 A 
ATOM      3  C   UNL     1       2.818   3.827  18.204  0.00  0.00    +0.000 A 
ATOM      4  C   UNL     1       3.097   4.863  19.090  0.00  0.00    +0.000 A 
ATOM      5 BR   UNL     1       1.895   5.242  20.497  0.00  0.00    +0.000 Br
ATOM      6  C   UNL     1       4.255   5.621  18.946  0.00  0.00    +0.000 A 
ATOM      7  C   UNL     1       5.162   5.317  17.921  0.00  0.00    +0.000 A 
ENDROOT
BRANCH   7   8
ATOM      8  C   UNL     1       6.379   6.141  17.774  0.00  0.00    +0.000 C 
ATOM      9  N   UNL     1       6.469   7.084  16.889  0.00  0.00    +0.000 NA
BRANCH   9  10
ATOM     10  O   UNL     1       7.730   7.680  16.986  0.00  0.00    +0.000 OA
ATOM     11  H   UNL     1       7.586   8.540  16.551  0.00  0.00    +0.000 HD
ENDBRANCH   9  10
ENDBRANCH   7   8
BRANCH   1  12
ATOM     12  O   UNL     1       5.876   3.930  16.119  0.00  0.00    +0.000 OA
BRANCH  12  13
ATOM     13  C   UNL     1       5.533   4.285  14.772  0.00  0.00    +0.000 C 
BRANCH  13  15
ATOM     14  O   UNL     1       7.004   4.298  12.848  0.00  0.00    +0.000 OA
ATOM     15  C   UNL     1       6.786   4.658  13.996  0.00  0.00    +0.000 C 
BRANCH  15  16
ATOM     16  O   UNL     1       7.650   5.427  14.698  0.00  0.00    +0.000 OA
ATOM     17  H   UNL     1       7.332   6.353  14.733  0.00  0.00    +0.000 HD
ENDBRANCH  15  16
ENDBRANCH  13  15
ENDBRANCH  12  13
ENDBRANCH   1  12
TORSDOF 6
ENDMDL
MODEL 6
REMARK VINA RESULT:      -5.7      3.293      4.529
REMARK  Name = 
REMARK  6 active torsions:
REMARK  status: ('A' for Active; 'I' for Inactive)
REMARK    1  A    between atoms: C_2  and  O_3
REMARK    2  A    between atoms: C_2  and  C_4
REMARK    3  A    between atoms: C_4  and  O_5
REMARK    4  A    between atoms: O_5  and  C_6
REMARK    5  A    between atoms: C_12  and  C_13
REMARK    6  A    between atoms: N_14  and  O_15
REMARK                            x       y       z     vdW  Elec       q    Type
REMARK                         _______ _______ _______ _____ _____    ______ ____
ROOT
ATOM      1  C   UNL     1       4.828   4.417  17.711  0.00  0.00    +0.000 A 
ATOM      2  C   UNL     1       4.367   4.043  16.443  0.00  0.00    +0.000 A 
ATOM      3  C   UNL     1       5.170   4.234  15.314  0.00  0.00    +0.000 A 
ATOM      4  C   UNL     1       6.443   4.778  15.452  0.00  0.00    +0.000 A 
ATOM      5 BR   UNL     1       7.504   5.079  13.917  0.00  0.00    +0.000 Br
ATOM      6  C   UNL     1       6.939   5.103  16.710  0.00  0.00    +0.000 A 
ATOM      7  C   UNL     1       6.137   4.910  17.844  0.00  0.00    +0.000 A 
ENDROOT
BRANCH   7   8
ATOM      8  C   UNL     1       6.685   5.247  19.174  0.00  0.00    +0.000 C 
ATOM      9  N   UNL     1       7.939   5.088  19.462  0.00  0.00    +0.000 NA
BRANCH   9  10
ATOM     10  O   UNL     1       8.155   5.485  20.785  0.00  0.00    +0.000 OA
ATOM     11  H   UNL     1       8.404   4.646  21.215  0.00  0.00    +0.000 HD
ENDBRANCH   9  10
ENDBRANCH   7   8
BRANCH   1  12
ATOM     12  O   UNL     1       4.056   4.319  18.844  0.00  0.00    +0.000 OA
BRANCH  12  13
ATOM     13  C   UNL     1       3.321   3.093  18.968  0.00  0.00    +0.000 C 
BRANCH  13  15
ATOM     14  O   UNL     1       4.966   2.008  20.375  0.00  0.00    +0.000 OA
ATOM     15  C   UNL     1       4.252   1.966  19.383  0.00  0.00    +0.000 C 
BRANCH  15  16
ATOM     16  O   UNL     1       4.226   0.904  18.546  0.00  0.00    +0.000 OA
ATOM     17  H   UNL     1       3.756   0.152  18.964  0.00  0.00    +0.000 HD
ENDBRANCH  15  16
ENDBRANCH  13  15
ENDBRANCH  12  13
ENDBRANCH   1  12
TORSDOF 6
ENDMDL
MODEL 7
REMARK VINA RESULT:      -5.7      1.338      1.421
REMARK  Name = 
REMARK  6 active torsions:
REMARK  status: ('A' for Active; 'I' for Inactive)
REMARK    1  A    between atoms: C_2  and  O_3
REMARK    2  A    between atoms: C_2  and  C_4
REMARK    3  A    between atoms: C_4  and  O_5
REMARK    4  A    between atoms: O_5  and  C_6
REMARK    5  A    between atoms: C_12  and  C_13
REMARK    6  A    between atoms: N_14  and  O_15
REMARK                            x       y       z     vdW  Elec       q    Type
REMARK                         _______ _______ _______ _____ _____    ______ ____
ROOT
ATOM      1  C   UNL     1       4.525   6.093  17.733  0.00  0.00    +0.000 A 
ATOM      2  C   UNL     1       3.144   6.315  17.668  0.00  0.00    +0.000 A 
ATOM      3  C   UNL     1       2.285   5.702  18.586  0.00  0.00    +0.000 A 
ATOM      4  C   UNL     1       2.806   4.883  19.584  0.00  0.00    +0.000 A 
ATOM      5 BR   UNL     1       1.637   4.018  20.791  0.00  0.00    +0.000 Br
ATOM      6  C   UNL     1       4.179   4.696  19.698  0.00  0.00    +0.000 A 
ATOM      7  C   UNL     1       5.042   5.312  18.780  0.00  0.00    +0.000 A 
ENDROOT
BRANCH   7   8
ATOM      8  C   UNL     1       6.500   5.115  18.924  0.00  0.00    +0.000 C 
ATOM      9  N   UNL     1       7.143   5.488  19.986  0.00  0.00    +0.000 NA
BRANCH   9  10
ATOM     10  O   UNL     1       8.497   5.176  19.831  0.00  0.00    +0.000 OA
ATOM     11  H   UNL     1       8.851   5.341  20.724  0.00  0.00    +0.000 HD
ENDBRANCH   9  10
ENDBRANCH   7   8
BRANCH   1  12
ATOM     12  O   UNL     1       5.407   6.611  16.815  0.00  0.00    +0.000 OA
BRANCH  12  13
ATOM     13  C   UNL     1       5.323   6.033  15.505  0.00  0.00    +0.000 C 
BRANCH  13  15
ATOM     14  O   UNL     1       7.633   5.449  15.074  0.00  0.00    +0.000 OA
ATOM     15  C   UNL     1       6.486   5.080  15.281  0.00  0.00    +0.000 C 
BRANCH  15  16
ATOM     16  O   UNL     1       6.135   3.774  15.325  0.00  0.00    +0.000 OA
ATOM     17  H   UNL     1       5.834   3.533  16.226  0.00  0.00    +0.000 HD
ENDBRANCH  15  16
ENDBRANCH  13  15
ENDBRANCH  12  13
ENDBRANCH   1  12
TORSDOF 6
ENDMDL
MODEL 8
REMARK VINA RESULT:      -5.6      2.676      3.084
REMARK  Name = 
REMARK  6 active torsions:
REMARK  status: ('A' for Active; 'I' for Inactive)
REMARK    1  A    between atoms: C_2  and  O_3
REMARK    2  A    between atoms: C_2  and  C_4
REMARK    3  A    between atoms: C_4  and  O_5
REMARK    4  A    between atoms: O_5  and  C_6
REMARK    5  A    between atoms: C_12  and  C_13
REMARK    6  A    between atoms: N_14  and  O_15
REMARK                            x       y       z     vdW  Elec       q    Type
REMARK                         _______ _______ _______ _____ _____    ______ ____
ROOT
ATOM      1  C   UNL     1       3.915   5.747  17.376  0.00  0.00    +0.000 A 
ATOM      2  C   UNL     1       3.889   4.351  17.487  0.00  0.00    +0.000 A 
ATOM      3  C   UNL     1       3.032   3.730  18.402  0.00  0.00    +0.000 A 
ATOM      4  C   UNL     1       2.184   4.501  19.191  0.00  0.00    +0.000 A 
ATOM      5 BR   UNL     1       1.064   3.659  20.460  0.00  0.00    +0.000 Br
ATOM      6  C   UNL     1       2.155   5.884  19.054  0.00  0.00    +0.000 A 
ATOM      7  C   UNL     1       3.011   6.509  18.136  0.00  0.00    +0.000 A 
ENDROOT
BRANCH   7   8
ATOM      8  C   UNL     1       2.958   7.979  17.992  0.00  0.00    +0.000 C 
ATOM      9  N   UNL     1       1.940   8.582  17.462  0.00  0.00    +0.000 NA
BRANCH   9  10
ATOM     10  O   UNL     1       2.179   9.959  17.459  0.00  0.00    +0.000 OA
ATOM     11  H   UNL     1       1.830  10.231  18.328  0.00  0.00    +0.000 HD
ENDBRANCH   9  10
ENDBRANCH   7   8
BRANCH   1  12
ATOM     12  O   UNL     1       4.786   6.413  16.547  0.00  0.00    +0.000 OA
BRANCH  12  13
ATOM     13  C   UNL     1       5.676   5.568  15.805  0.00  0.00    +0.000 C 
BRANCH  13  15
ATOM     14  O   UNL     1       7.655   4.615  16.824  0.00  0.00    +0.000 OA
ATOM     15  C   UNL     1       7.065   5.607  16.419  0.00  0.00    +0.000 C 
BRANCH  15  16
ATOM     16  O   UNL     1       7.595   6.850  16.485  0.00  0.00    +0.000 OA
ATOM     17  H   UNL     1       8.286   6.962  15.798  0.00  0.00    +0.000 HD
ENDBRANCH  15  16
ENDBRANCH  13  15
ENDBRANCH  12  13
ENDBRANCH   1  12
TORSDOF 6
ENDMDL
MODEL 9
REMARK VINA RESULT:      -5.6      3.125      4.347
REMARK  Name = 
REMARK  6 active torsions:
REMARK  status: ('A' for Active; 'I' for Inactive)
REMARK    1  A    between atoms: C_2  and  O_3
REMARK    2  A    between atoms: C_2  and  C_4
REMARK    3  A    between atoms: C_4  and  O_5
REMARK    4  A    between atoms: O_5  and  C_6
REMARK    5  A    between atoms: C_12  and  C_13
REMARK    6  A    between atoms: N_14  and  O_15
REMARK                            x       y       z     vdW  Elec       q    Type
REMARK                         _______ _______ _______ _____ _____    ______ ____
ROOT
ATOM      1  C   UNL     1       3.943   4.809  19.280  0.00  0.00    +0.000 A 
ATOM      2  C   UNL     1       2.928   5.409  20.036  0.00  0.00    +0.000 A 
ATOM      3  C   UNL     1       2.356   6.616  19.621  0.00  0.00    +0.000 A 
ATOM      4  C   UNL     1       2.780   7.215  18.439  0.00  0.00    +0.000 A 
ATOM      5 BR   UNL     1       2.038   8.870  17.909  0.00  0.00    +0.000 Br
ATOM      6  C   UNL     1       3.746   6.605  17.646  0.00  0.00    +0.000 A 
ATOM      7  C   UNL     1       4.320   5.394  18.059  0.00  0.00    +0.000 A 
ENDROOT
BRANCH   7   8
ATOM      8  C   UNL     1       5.335   4.751  17.198  0.00  0.00    +0.000 C 
ATOM      9  N   UNL     1       5.028   3.820  16.351  0.00  0.00    +0.000 NA
BRANCH   9  10
ATOM     10  O   UNL     1       6.188   3.407  15.689  0.00  0.00    +0.000 OA
ATOM     11  H   UNL     1       6.509   2.686  16.262  0.00  0.00    +0.000 HD
ENDBRANCH   9  10
ENDBRANCH   7   8
BRANCH   1  12
ATOM     12  O   UNL     1       4.590   3.663  19.676  0.00  0.00    +0.000 OA
BRANCH  12  13
ATOM     13  C   UNL     1       3.725   2.574  20.027  0.00  0.00    +0.000 C 
BRANCH  13  15
ATOM     14  O   UNL     1       1.956   1.964  18.490  0.00  0.00    +0.000 OA
ATOM     15  C   UNL     1       3.146   1.943  18.772  0.00  0.00    +0.000 C 
BRANCH  15  16
ATOM     16  O   UNL     1       4.072   1.345  17.988  0.00  0.00    +0.000 OA
ATOM     17  H   UNL     1       3.636   0.847  17.265  0.00  0.00    +0.000 HD
ENDBRANCH  15  16
ENDBRANCH  13  15
ENDBRANCH  12  13
ENDBRANCH   1  12
TORSDOF 6
ENDMDL
