MODEL 1
REMARK VINA RESULT:      -7.6      0.000      0.000
REMARK  Name = 
REMARK  12 active torsions:
REMARK  status: ('A' for Active; 'I' for Inactive)
REMARK    1  A    between atoms: C_1  and  O_2
REMARK    2  A    between atoms: O_2  and  C_3
REMARK    3  A    between atoms: C_6  and  C_7
REMARK    4  A    between atoms: C_8  and  C_9
REMARK    5  A    between atoms: C_11  and  O_12
REMARK    6  A    between atoms: O_12  and  C_13
REMARK    7  A    between atoms: C_14  and  O_15
REMARK    8  A    between atoms: O_15  and  C_16
REMARK    9  A    between atoms: C_17  and  O_18
REMARK   10  A    between atoms: O_18  and  C_19
REMARK   11  A    between atoms: C_24  and  O_25
REMARK   12  A    between atoms: C_27  and  O_28
REMARK                            x       y       z     vdW  Elec       q    Type
REMARK                         _______ _______ _______ _____ _____    ______ ____
ROOT
ATOM      1  C   UNL     1       3.670   4.526  18.873  0.00  0.00    +0.000 C 
ATOM      2  C   UNL     1       2.513   5.063  19.287  0.00  0.00    +0.000 C 
ATOM      3  C   UNL     1       1.611   3.914  19.538  0.00  0.00    +0.000 C 
ATOM      4  O   UNL     1       0.506   4.011  20.046  0.00  0.00    +0.000 OA
ATOM      5  C   UNL     1       2.205   2.637  19.037  0.00  0.00    +0.000 C 
ATOM      6  C   UNL     1       3.667   3.024  18.842  0.00  0.00    +0.000 C 
ENDROOT
BRANCH   1  10
ATOM      7  C   UNL     1       7.198   6.775  17.913  0.00  0.00    +0.000 A 
ATOM      8  C   UNL     1       6.044   6.876  17.124  0.00  0.00    +0.000 A 
ATOM      9  C   UNL     1       4.893   6.139  17.423  0.00  0.00    +0.000 A 
ATOM     10  C   UNL     1       4.878   5.282  18.525  0.00  0.00    +0.000 A 
ATOM     11  C   UNL     1       6.037   5.150  19.299  0.00  0.00    +0.000 A 
ATOM     12  C   UNL     1       7.184   5.898  19.002  0.00  0.00    +0.000 A 
BRANCH   7  14
ATOM     13  C   UNL     1       8.242   8.929  17.970  0.00  0.00    +0.000 C 
ATOM     14  O   UNL     1       8.211   7.592  17.488  0.00  0.00    +0.000 OA
ENDBRANCH   7  14
BRANCH  12  15
ATOM     15  O   UNL     1       8.279   5.746  19.809  0.00  0.00    +0.000 OA
ATOM     16  H   UNL     1       8.231   6.380  20.542  0.00  0.00    +0.000 HD
ENDBRANCH  12  15
ENDBRANCH   1  10
BRANCH   2  17
ATOM     17  C   UNL     1       2.143   6.454  19.485  0.00  0.00    +0.000 A 
ATOM     18  C   UNL     1       2.177   7.346  18.407  0.00  0.00    +0.000 A 
ATOM     19  C   UNL     1       1.791   8.682  18.563  0.00  0.00    +0.000 A 
ATOM     20  C   UNL     1       1.367   9.132  19.835  0.00  0.00    +0.000 A 
ATOM     21  C   UNL     1       1.345   8.222  20.924  0.00  0.00    +0.000 A 
ATOM     22  C   UNL     1       1.735   6.895  20.736  0.00  0.00    +0.000 A 
BRANCH  19  23
ATOM     23  O   UNL     1       1.808   9.571  17.520  0.00  0.00    +0.000 OA
ATOM     24  C   UNL     1       2.564  10.768  17.654  0.00  0.00    +0.000 C 
ENDBRANCH  19  23
BRANCH  20  25
ATOM     25  O   UNL     1       0.949  10.401  20.167  0.00  0.00    +0.000 OA
ATOM     26  C   UNL     1      -0.332  10.850  19.760  0.00  0.00    +0.000 C 
ENDBRANCH  20  25
BRANCH  21  27
ATOM     27  O   UNL     1       0.924   8.720  22.140  0.00  0.00    +0.000 OA
ATOM     28  C   UNL     1      -0.458   8.595  22.452  0.00  0.00    +0.000 C 
ENDBRANCH  21  27
ENDBRANCH   2  17
BRANCH   6  29
ATOM     29  O   UNL     1       4.150   2.518  17.608  0.00  0.00    +0.000 OA
ATOM     30  H   UNL     1       5.050   2.853  17.465  0.00  0.00    +0.000 HD
ENDBRANCH   6  29
TORSDOF 8
ENDMDL
MODEL 2
REMARK VINA RESULT:      -7.6      1.373      5.949
REMARK  Name = 
REMARK  12 active torsions:
REMARK  status: ('A' for Active; 'I' for Inactive)
REMARK    1  A    between atoms: C_1  and  O_2
REMARK    2  A    between atoms: O_2  and  C_3
REMARK    3  A    between atoms: C_6  and  C_7
REMARK    4  A    between atoms: C_8  and  C_9
REMARK    5  A    between atoms: C_11  and  O_12
REMARK    6  A    between atoms: O_12  and  C_13
REMARK    7  A    between atoms: C_14  and  O_15
REMARK    8  A    between atoms: O_15  and  C_16
REMARK    9  A    between atoms: C_17  and  O_18
REMARK   10  A    between atoms: O_18  and  C_19
REMARK   11  A    between atoms: C_24  and  O_25
REMARK   12  A    between atoms: C_27  and  O_28
REMARK                            x       y       z     vdW  Elec       q    Type
REMARK                         _______ _______ _______ _____ _____    ______ ____
ROOT
ATOM      1  C   UNL     1       2.189   4.360  19.084  0.00  0.00    +0.000 C 
ATOM      2  C   UNL     1       3.305   3.879  18.516  0.00  0.00    +0.000 C 
ATOM      3  C   UNL     1       3.101   2.415  18.421  0.00  0.00    +0.000 C 
ATOM      4  O   UNL     1       3.860   1.656  17.841  0.00  0.00    +0.000 OA
ATOM      5  C   UNL     1       1.883   1.985  19.173  0.00  0.00    +0.000 C 
ATOM      6  C   UNL     1       1.157   3.310  19.380  0.00  0.00    +0.000 C 
ENDROOT
BRANCH   1  10
ATOM      7  C   UNL     1       1.476   8.516  19.888  0.00  0.00    +0.000 A 
ATOM      8  C   UNL     1       1.320   7.552  20.893  0.00  0.00    +0.000 A 
ATOM      9  C   UNL     1       1.539   6.194  20.637  0.00  0.00    +0.000 A 
ATOM     10  C   UNL     1       1.923   5.775  19.362  0.00  0.00    +0.000 A 
ATOM     11  C   UNL     1       2.049   6.727  18.344  0.00  0.00    +0.000 A 
ATOM     12  C   UNL     1       1.837   8.088  18.606  0.00  0.00    +0.000 A 
BRANCH   7  14
ATOM     13  C   UNL     1      -0.062  10.323  20.204  0.00  0.00    +0.000 C 
ATOM     14  O   UNL     1       1.250   9.792  20.328  0.00  0.00    +0.000 OA
ENDBRANCH   7  14
BRANCH  12  15
ATOM     15  O   UNL     1       2.000   8.975  17.577  0.00  0.00    +0.000 OA
ATOM     16  H   UNL     1       1.210   8.966  17.014  0.00  0.00    +0.000 HD
ENDBRANCH  12  15
ENDBRANCH   1  10
BRANCH   2  17
ATOM     17  C   UNL     1       4.496   4.573  18.055  0.00  0.00    +0.000 A 
ATOM     18  C   UNL     1       4.683   4.807  16.689  0.00  0.00    +0.000 A 
ATOM     19  C   UNL     1       5.803   5.505  16.223  0.00  0.00    +0.000 A 
ATOM     20  C   UNL     1       6.760   5.972  17.154  0.00  0.00    +0.000 A 
ATOM     21  C   UNL     1       6.565   5.721  18.537  0.00  0.00    +0.000 A 
ATOM     22  C   UNL     1       5.436   5.024  18.971  0.00  0.00    +0.000 A 
BRANCH  19  23
ATOM     23  O   UNL     1       6.004   5.753  14.890  0.00  0.00    +0.000 OA
ATOM     24  C   UNL     1       6.751   4.816  14.125  0.00  0.00    +0.000 C 
ENDBRANCH  19  23
BRANCH  20  25
ATOM     25  O   UNL     1       7.909   6.676  16.877  0.00  0.00    +0.000 OA
ATOM     26  C   UNL     1       8.008   8.040  17.253  0.00  0.00    +0.000 C 
ENDBRANCH  20  25
BRANCH  21  27
ATOM     27  O   UNL     1       7.532   6.200  19.396  0.00  0.00    +0.000 OA
ATOM     28  C   UNL     1       8.282   5.242  20.134  0.00  0.00    +0.000 C 
ENDBRANCH  21  27
ENDBRANCH   2  17
BRANCH   6  29
ATOM     29  O   UNL     1       0.671   3.402  20.710  0.00  0.00    +0.000 OA
ATOM     30  H   UNL     1       0.058   2.667  20.869  0.00  0.00    +0.000 HD
ENDBRANCH   6  29
TORSDOF 8
ENDMDL
MODEL 3
REMARK VINA RESULT:      -7.5      1.049      1.089
REMARK  Name = 
REMARK  12 active torsions:
REMARK  status: ('A' for Active; 'I' for Inactive)
REMARK    1  A    between atoms: C_1  and  O_2
REMARK    2  A    between atoms: O_2  and  C_3
REMARK    3  A    between atoms: C_6  and  C_7
REMARK    4  A    between atoms: C_8  and  C_9
REMARK    5  A    between atoms: C_11  and  O_12
REMARK    6  A    between atoms: O_12  and  C_13
REMARK    7  A    between atoms: C_14  and  O_15
REMARK    8  A    between atoms: O_15  and  C_16
REMARK    9  A    between atoms: C_17  and  O_18
REMARK   10  A    between atoms: O_18  and  C_19
REMARK   11  A    between atoms: C_24  and  O_25
REMARK   12  A    between atoms: C_27  and  O_28
REMARK                            x       y       z     vdW  Elec       q    Type
REMARK                         _______ _______ _______ _____ _____    ______ ____
ROOT
ATOM      1  C   UNL     1       4.175   4.800  17.858  0.00  0.00    +0.000 C 
ATOM      2  C   UNL     1       2.932   5.250  18.082  0.00  0.00    +0.000 C 
ATOM      3  C   UNL     1       2.034   4.127  17.726  0.00  0.00    +0.000 C 
ATOM      4  O   UNL     1       0.829   4.128  17.920  0.00  0.00    +0.000 OA
ATOM      5  C   UNL     1       2.783   3.025  17.050  0.00  0.00    +0.000 C 
ATOM      6  C   UNL     1       4.229   3.376  17.383  0.00  0.00    +0.000 C 
ENDROOT
BRANCH   1  10
ATOM      7  C   UNL     1       7.754   7.051  18.599  0.00  0.00    +0.000 A 
ATOM      8  C   UNL     1       6.910   7.374  17.528  0.00  0.00    +0.000 A 
ATOM      9  C   UNL     1       5.747   6.639  17.272  0.00  0.00    +0.000 A 
ATOM     10  C   UNL     1       5.407   5.561  18.091  0.00  0.00    +0.000 A 
ATOM     11  C   UNL     1       6.261   5.211  19.143  0.00  0.00    +0.000 A 
ATOM     12  C   UNL     1       7.420   5.956  19.402  0.00  0.00    +0.000 A 
BRANCH   7  14
ATOM     13  C   UNL     1       8.624   9.275  18.432  0.00  0.00    +0.000 C 
ATOM     14  O   UNL     1       8.824   7.897  18.713  0.00  0.00    +0.000 OA
ENDBRANCH   7  14
BRANCH  12  15
ATOM     15  O   UNL     1       8.203   5.582  20.460  0.00  0.00    +0.000 OA
ATOM     16  H   UNL     1       8.529   6.373  20.917  0.00  0.00    +0.000 HD
ENDBRANCH  12  15
ENDBRANCH   1  10
BRANCH   2  17
ATOM     17  C   UNL     1       2.477   6.539  18.575  0.00  0.00    +0.000 A 
ATOM     18  C   UNL     1       2.420   7.637  17.710  0.00  0.00    +0.000 A 
ATOM     19  C   UNL     1       1.952   8.880  18.152  0.00  0.00    +0.000 A 
ATOM     20  C   UNL     1       1.538   9.023  19.496  0.00  0.00    +0.000 A 
ATOM     21  C   UNL     1       1.608   7.905  20.368  0.00  0.00    +0.000 A 
ATOM     22  C   UNL     1       2.078   6.677  19.897  0.00  0.00    +0.000 A 
BRANCH  19  23
ATOM     23  O   UNL     1       1.880   9.968  17.320  0.00  0.00    +0.000 OA
ATOM     24  C   UNL     1       2.608  11.140  17.663  0.00  0.00    +0.000 C 
ENDBRANCH  19  23
BRANCH  20  25
ATOM     25  O   UNL     1       1.048  10.160  20.095  0.00  0.00    +0.000 OA
ATOM     26  C   UNL     1      -0.246  10.633  19.759  0.00  0.00    +0.000 C 
ENDBRANCH  20  25
BRANCH  21  27
ATOM     27  O   UNL     1       1.192   8.105  21.667  0.00  0.00    +0.000 OA
ATOM     28  C   UNL     1      -0.208   8.054  21.919  0.00  0.00    +0.000 C 
ENDBRANCH  21  27
ENDBRANCH   2  17
BRANCH   6  29
ATOM     29  O   UNL     1       5.049   3.230  16.234  0.00  0.00    +0.000 OA
ATOM     30  H   UNL     1       5.168   2.283  16.055  0.00  0.00    +0.000 HD
ENDBRANCH   6  29
TORSDOF 8
ENDMDL
MODEL 4
REMARK VINA RESULT:      -7.4      0.182      2.262
REMARK  Name = 
REMARK  12 active torsions:
REMARK  status: ('A' for Active; 'I' for Inactive)
REMARK    1  A    between atoms: C_1  and  O_2
REMARK    2  A    between atoms: O_2  and  C_3
REMARK    3  A    between atoms: C_6  and  C_7
REMARK    4  A    between atoms: C_8  and  C_9
REMARK    5  A    between atoms: C_11  and  O_12
REMARK    6  A    between atoms: O_12  and  C_13
REMARK    7  A    between atoms: C_14  and  O_15
REMARK    8  A    between atoms: O_15  and  C_16
REMARK    9  A    between atoms: C_17  and  O_18
REMARK   10  A    between atoms: O_18  and  C_19
REMARK   11  A    between atoms: C_24  and  O_25
REMARK   12  A    between atoms: C_27  and  O_28
REMARK                            x       y       z     vdW  Elec       q    Type
REMARK                         _______ _______ _______ _____ _____    ______ ____
ROOT
ATOM      1  C   UNL     1       3.690   4.563  18.861  0.00  0.00    +0.000 C 
ATOM      2  C   UNL     1       2.530   5.064  19.312  0.00  0.00    +0.000 C 
ATOM      3  C   UNL     1       1.689   3.888  19.632  0.00  0.00    +0.000 C 
ATOM      4  O   UNL     1       0.603   3.954  20.185  0.00  0.00    +0.000 OA
ATOM      5  C   UNL     1       2.313   2.622  19.140  0.00  0.00    +0.000 C 
ATOM      6  C   UNL     1       3.748   3.062  18.870  0.00  0.00    +0.000 C 
ENDROOT
BRANCH   1  10
ATOM      7  C   UNL     1       7.075   6.926  17.686  0.00  0.00    +0.000 A 
ATOM      8  C   UNL     1       5.894   6.937  16.932  0.00  0.00    +0.000 A 
ATOM      9  C   UNL     1       4.789   6.161  17.301  0.00  0.00    +0.000 A 
ATOM     10  C   UNL     1       4.849   5.357  18.440  0.00  0.00    +0.000 A 
ATOM     11  C   UNL     1       6.036   5.314  19.181  0.00  0.00    +0.000 A 
ATOM     12  C   UNL     1       7.137   6.100  18.813  0.00  0.00    +0.000 A 
BRANCH   7  14
ATOM     13  C   UNL     1       8.153   9.062  17.767  0.00  0.00    +0.000 C 
ATOM     14  O   UNL     1       8.035   7.768  17.192  0.00  0.00    +0.000 OA
ENDBRANCH   7  14
BRANCH  12  15
ATOM     15  O   UNL     1       8.262   6.036  19.589  0.00  0.00    +0.000 OA
ATOM     16  H   UNL     1       8.605   5.129  19.588  0.00  0.00    +0.000 HD
ENDBRANCH  12  15
ENDBRANCH   1  10
BRANCH   2  17
ATOM     17  C   UNL     1       2.111   6.445  19.488  0.00  0.00    +0.000 A 
ATOM     18  C   UNL     1       1.731   6.903  20.754  0.00  0.00    +0.000 A 
ATOM     19  C   UNL     1       1.358   8.237  20.956  0.00  0.00    +0.000 A 
ATOM     20  C   UNL     1       1.363   9.128  19.858  0.00  0.00    +0.000 A 
ATOM     21  C   UNL     1       1.742   8.651  18.576  0.00  0.00    +0.000 A 
ATOM     22  C   UNL     1       2.110   7.314  18.406  0.00  0.00    +0.000 A 
BRANCH  19  23
ATOM     23  O   UNL     1       0.989   8.710  22.188  0.00  0.00    +0.000 OA
ATOM     24  C   UNL     1      -0.395   8.792  22.503  0.00  0.00    +0.000 C 
ENDBRANCH  19  23
BRANCH  20  25
ATOM     25  O   UNL     1       1.035  10.464  19.874  0.00  0.00    +0.000 OA
ATOM     26  C   UNL     1      -0.321  10.859  19.746  0.00  0.00    +0.000 C 
ENDBRANCH  20  25
BRANCH  21  27
ATOM     27  O   UNL     1       1.726   9.565  17.544  0.00  0.00    +0.000 OA
ATOM     28  C   UNL     1       2.620  10.668  17.636  0.00  0.00    +0.000 C 
ENDBRANCH  21  27
ENDBRANCH   2  17
BRANCH   6  29
ATOM     29  O   UNL     1       4.198   2.541  17.630  0.00  0.00    +0.000 OA
ATOM     30  H   UNL     1       3.433   2.423  17.045  0.00  0.00    +0.000 HD
ENDBRANCH   6  29
TORSDOF 8
ENDMDL
MODEL 5
REMARK VINA RESULT:      -7.3      1.328      5.929
REMARK  Name = 
REMARK  12 active torsions:
REMARK  status: ('A' for Active; 'I' for Inactive)
REMARK    1  A    between atoms: C_1  and  O_2
REMARK    2  A    between atoms: O_2  and  C_3
REMARK    3  A    between atoms: C_6  and  C_7
REMARK    4  A    between atoms: C_8  and  C_9
REMARK    5  A    between atoms: C_11  and  O_12
REMARK    6  A    between atoms: O_12  and  C_13
REMARK    7  A    between atoms: C_14  and  O_15
REMARK    8  A    between atoms: O_15  and  C_16
REMARK    9  A    between atoms: C_17  and  O_18
REMARK   10  A    between atoms: O_18  and  C_19
REMARK   11  A    between atoms: C_24  and  O_25
REMARK   12  A    between atoms: C_27  and  O_28
REMARK                            x       y       z     vdW  Elec       q    Type
REMARK                         _______ _______ _______ _____ _____    ______ ____
ROOT
ATOM      1  C   UNL     1       2.163   4.606  18.929  0.00  0.00    +0.000 C 
ATOM      2  C   UNL     1       3.281   4.077  18.410  0.00  0.00    +0.000 C 
ATOM      3  C   UNL     1       3.037   2.617  18.350  0.00  0.00    +0.000 C 
ATOM      4  O   UNL     1       3.791   1.820  17.816  0.00  0.00    +0.000 OA
ATOM      5  C   UNL     1       1.783   2.245  19.074  0.00  0.00    +0.000 C 
ATOM      6  C   UNL     1       1.091   3.596  19.221  0.00  0.00    +0.000 C 
ENDROOT
BRANCH   1  10
ATOM      7  C   UNL     1       1.420   8.776  19.626  0.00  0.00    +0.000 A 
ATOM      8  C   UNL     1       1.573   8.281  18.324  0.00  0.00    +0.000 A 
ATOM      9  C   UNL     1       1.826   6.925  18.088  0.00  0.00    +0.000 A 
ATOM     10  C   UNL     1       1.930   6.036  19.159  0.00  0.00    +0.000 A 
ATOM     11  C   UNL     1       1.812   6.528  20.464  0.00  0.00    +0.000 A 
ATOM     12  C   UNL     1       1.548   7.885  20.696  0.00  0.00    +0.000 A 
BRANCH   7  14
ATOM     13  C   UNL     1      -0.215  10.525  19.667  0.00  0.00    +0.000 C 
ATOM     14  O   UNL     1       1.146  10.117  19.661  0.00  0.00    +0.000 OA
ENDBRANCH   7  14
BRANCH  12  15
ATOM     15  O   UNL     1       1.417   8.303  21.992  0.00  0.00    +0.000 OA
ATOM     16  H   UNL     1       1.052   9.202  22.007  0.00  0.00    +0.000 HD
ENDBRANCH  12  15
ENDBRANCH   1  10
BRANCH   2  17
ATOM     17  C   UNL     1       4.506   4.723  17.969  0.00  0.00    +0.000 A 
ATOM     18  C   UNL     1       4.732   4.932  16.604  0.00  0.00    +0.000 A 
ATOM     19  C   UNL     1       5.887   5.584  16.156  0.00  0.00    +0.000 A 
ATOM     20  C   UNL     1       6.838   6.030  17.103  0.00  0.00    +0.000 A 
ATOM     21  C   UNL     1       6.603   5.804  18.485  0.00  0.00    +0.000 A 
ATOM     22  C   UNL     1       5.440   5.153  18.901  0.00  0.00    +0.000 A 
BRANCH  19  23
ATOM     23  O   UNL     1       6.127   5.806  14.825  0.00  0.00    +0.000 OA
ATOM     24  C   UNL     1       6.767   4.789  14.066  0.00  0.00    +0.000 C 
ENDBRANCH  19  23
BRANCH  20  25
ATOM     25  O   UNL     1       8.018   6.689  16.845  0.00  0.00    +0.000 OA
ATOM     26  C   UNL     1       8.165   8.047  17.227  0.00  0.00    +0.000 C 
ENDBRANCH  20  25
BRANCH  21  27
ATOM     27  O   UNL     1       7.566   6.261  19.360  0.00  0.00    +0.000 OA
ATOM     28  C   UNL     1       8.295   5.285  20.095  0.00  0.00    +0.000 C 
ENDBRANCH  21  27
ENDBRANCH   2  17
BRANCH   6  29
ATOM     29  O   UNL     1       0.567   3.741  20.531  0.00  0.00    +0.000 OA
ATOM     30  H   UNL     1       1.096   3.201  21.140  0.00  0.00    +0.000 HD
ENDBRANCH   6  29
TORSDOF 8
ENDMDL
MODEL 6
REMARK VINA RESULT:      -7.2      1.312      6.283
REMARK  Name = 
REMARK  12 active torsions:
REMARK  status: ('A' for Active; 'I' for Inactive)
REMARK    1  A    between atoms: C_1  and  O_2
REMARK    2  A    between atoms: O_2  and  C_3
REMARK    3  A    between atoms: C_6  and  C_7
REMARK    4  A    between atoms: C_8  and  C_9
REMARK    5  A    between atoms: C_11  and  O_12
REMARK    6  A    between atoms: O_12  and  C_13
REMARK    7  A    between atoms: C_14  and  O_15
REMARK    8  A    between atoms: O_15  and  C_16
REMARK    9  A    between atoms: C_17  and  O_18
REMARK   10  A    between atoms: O_18  and  C_19
REMARK   11  A    between atoms: C_24  and  O_25
REMARK   12  A    between atoms: C_27  and  O_28
REMARK                            x       y       z     vdW  Elec       q    Type
REMARK                         _______ _______ _______ _____ _____    ______ ____
ROOT
ATOM      1  C   UNL     1       2.058   4.360  19.114  0.00  0.00    +0.000 C 
ATOM      2  C   UNL     1       3.198   3.915  18.567  0.00  0.00    +0.000 C 
ATOM      3  C   UNL     1       2.979   2.472  18.314  0.00  0.00    +0.000 C 
ATOM      4  O   UNL     1       3.760   1.758  17.706  0.00  0.00    +0.000 OA
ATOM      5  C   UNL     1       1.711   1.996  18.946  0.00  0.00    +0.000 C 
ATOM      6  C   UNL     1       0.993   3.308  19.242  0.00  0.00    +0.000 C 
ENDROOT
BRANCH   1  10
ATOM      7  C   UNL     1       1.358   8.431  20.284  0.00  0.00    +0.000 A 
ATOM      8  C   UNL     1       1.158   7.379  21.187  0.00  0.00    +0.000 A 
ATOM      9  C   UNL     1       1.372   6.048  20.811  0.00  0.00    +0.000 A 
ATOM     10  C   UNL     1       1.796   5.746  19.516  0.00  0.00    +0.000 A 
ATOM     11  C   UNL     1       1.967   6.789  18.597  0.00  0.00    +0.000 A 
ATOM     12  C   UNL     1       1.760   8.121  18.980  0.00  0.00    +0.000 A 
BRANCH   7  14
ATOM     13  C   UNL     1      -0.192  10.182  20.796  0.00  0.00    +0.000 C 
ATOM     14  O   UNL     1       1.130   9.662  20.835  0.00  0.00    +0.000 OA
ENDBRANCH   7  14
BRANCH  12  15
ATOM     15  O   UNL     1       1.967   9.099  18.046  0.00  0.00    +0.000 OA
ATOM     16  H   UNL     1       2.893   9.079  17.756  0.00  0.00    +0.000 HD
ENDBRANCH  12  15
ENDBRANCH   1  10
BRANCH   2  17
ATOM     17  C   UNL     1       4.425   4.626  18.248  0.00  0.00    +0.000 A 
ATOM     18  C   UNL     1       5.314   4.978  19.269  0.00  0.00    +0.000 A 
ATOM     19  C   UNL     1       6.518   5.631  18.984  0.00  0.00    +0.000 A 
ATOM     20  C   UNL     1       6.832   5.944  17.641  0.00  0.00    +0.000 A 
ATOM     21  C   UNL     1       5.919   5.591  16.613  0.00  0.00    +0.000 A 
ATOM     22  C   UNL     1       4.726   4.938  16.929  0.00  0.00    +0.000 A 
BRANCH  19  23
ATOM     23  O   UNL     1       7.408   5.978  19.968  0.00  0.00    +0.000 OA
ATOM     24  C   UNL     1       8.547   5.154  20.182  0.00  0.00    +0.000 C 
ENDBRANCH  19  23
BRANCH  20  25
ATOM     25  O   UNL     1       7.965   6.572  17.180  0.00  0.00    +0.000 OA
ATOM     26  C   UNL     1       8.149   7.958  17.418  0.00  0.00    +0.000 C 
ENDBRANCH  20  25
BRANCH  21  27
ATOM     27  O   UNL     1       6.278   5.922  15.324  0.00  0.00    +0.000 OA
ATOM     28  C   UNL     1       6.644   4.857  14.454  0.00  0.00    +0.000 C 
ENDBRANCH  21  27
ENDBRANCH   2  17
BRANCH   6  29
ATOM     29  O   UNL     1       0.430   3.279  20.544  0.00  0.00    +0.000 OA
ATOM     30  H   UNL     1      -0.529   3.410  20.471  0.00  0.00    +0.000 HD
ENDBRANCH   6  29
TORSDOF 8
ENDMDL
MODEL 7
REMARK VINA RESULT:      -7.2      2.047      6.199
REMARK  Name = 
REMARK  12 active torsions:
REMARK  status: ('A' for Active; 'I' for Inactive)
REMARK    1  A    between atoms: C_1  and  O_2
REMARK    2  A    between atoms: O_2  and  C_3
REMARK    3  A    between atoms: C_6  and  C_7
REMARK    4  A    between atoms: C_8  and  C_9
REMARK    5  A    between atoms: C_11  and  O_12
REMARK    6  A    between atoms: O_12  and  C_13
REMARK    7  A    between atoms: C_14  and  O_15
REMARK    8  A    between atoms: O_15  and  C_16
REMARK    9  A    between atoms: C_17  and  O_18
REMARK   10  A    between atoms: O_18  and  C_19
REMARK   11  A    between atoms: C_24  and  O_25
REMARK   12  A    between atoms: C_27  and  O_28
REMARK                            x       y       z     vdW  Elec       q    Type
REMARK                         _______ _______ _______ _____ _____    ______ ____
ROOT
ATOM      1  C   UNL     1       2.414   4.226  18.957  0.00  0.00    +0.000 C 
ATOM      2  C   UNL     1       3.372   3.558  18.298  0.00  0.00    +0.000 C 
ATOM      3  C   UNL     1       3.094   2.123  18.545  0.00  0.00    +0.000 C 
ATOM      4  O   UNL     1       3.690   1.209  17.999  0.00  0.00    +0.000 OA
ATOM      5  C   UNL     1       2.036   1.945  19.586  0.00  0.00    +0.000 C 
ATOM      6  C   UNL     1       1.421   3.339  19.652  0.00  0.00    +0.000 C 
ENDROOT
BRANCH   1  10
ATOM      7  C   UNL     1       1.917   8.489  19.061  0.00  0.00    +0.000 A 
ATOM      8  C   UNL     1       2.140   7.820  17.850  0.00  0.00    +0.000 A 
ATOM      9  C   UNL     1       2.314   6.432  17.808  0.00  0.00    +0.000 A 
ATOM     10  C   UNL     1       2.266   5.685  18.986  0.00  0.00    +0.000 A 
ATOM     11  C   UNL     1       2.077   6.349  20.204  0.00  0.00    +0.000 A 
ATOM     12  C   UNL     1       1.893   7.738  20.241  0.00  0.00    +0.000 A 
BRANCH   7  14
ATOM     13  C   UNL     1       0.409  10.335  18.836  0.00  0.00    +0.000 C 
ATOM     14  O   UNL     1       1.738   9.837  18.905  0.00  0.00    +0.000 OA
ENDBRANCH   7  14
BRANCH  12  15
ATOM     15  O   UNL     1       1.687   8.328  21.458  0.00  0.00    +0.000 OA
ATOM     16  H   UNL     1       1.682   7.648  22.151  0.00  0.00    +0.000 HD
ENDBRANCH  12  15
ENDBRANCH   1  10
BRANCH   2  17
ATOM     17  C   UNL     1       4.472   4.053  17.489  0.00  0.00    +0.000 A 
ATOM     18  C   UNL     1       4.343   4.113  16.097  0.00  0.00    +0.000 A 
ATOM     19  C   UNL     1       5.375   4.620  15.298  0.00  0.00    +0.000 A 
ATOM     20  C   UNL     1       6.566   5.069  15.914  0.00  0.00    +0.000 A 
ATOM     21  C   UNL     1       6.690   4.995  17.326  0.00  0.00    +0.000 A 
ATOM     22  C   UNL     1       5.643   4.487  18.096  0.00  0.00    +0.000 A 
BRANCH  19  23
ATOM     23  O   UNL     1       5.268   4.695  13.934  0.00  0.00    +0.000 OA
ATOM     24  C   UNL     1       5.256   3.489  13.181  0.00  0.00    +0.000 C 
ENDBRANCH  19  23
BRANCH  20  25
ATOM     25  O   UNL     1       7.672   5.599  15.290  0.00  0.00    +0.000 OA
ATOM     26  C   UNL     1       7.982   5.217  13.960  0.00  0.00    +0.000 C 
ENDBRANCH  20  25
BRANCH  21  27
ATOM     27  O   UNL     1       7.875   5.448  17.869  0.00  0.00    +0.000 OA
ATOM     28  C   UNL     1       7.842   5.905  19.216  0.00  0.00    +0.000 C 
ENDBRANCH  21  27
ENDBRANCH   2  17
BRANCH   6  29
ATOM     29  O   UNL     1       1.217   3.724  21.002  0.00  0.00    +0.000 OA
ATOM     30  H   UNL     1       0.324   4.093  21.089  0.00  0.00    +0.000 HD
ENDBRANCH   6  29
TORSDOF 8
ENDMDL
MODEL 8
REMARK VINA RESULT:      -6.9      0.905      1.477
REMARK  Name = 
REMARK  12 active torsions:
REMARK  status: ('A' for Active; 'I' for Inactive)
REMARK    1  A    between atoms: C_1  and  O_2
REMARK    2  A    between atoms: O_2  and  C_3
REMARK    3  A    between atoms: C_6  and  C_7
REMARK    4  A    between atoms: C_8  and  C_9
REMARK    5  A    between atoms: C_11  and  O_12
REMARK    6  A    between atoms: O_12  and  C_13
REMARK    7  A    between atoms: C_14  and  O_15
REMARK    8  A    between atoms: O_15  and  C_16
REMARK    9  A    between atoms: C_17  and  O_18
REMARK   10  A    between atoms: O_18  and  C_19
REMARK   11  A    between atoms: C_24  and  O_25
REMARK   12  A    between atoms: C_27  and  O_28
REMARK                            x       y       z     vdW  Elec       q    Type
REMARK                         _______ _______ _______ _____ _____    ______ ____
ROOT
ATOM      1  C   UNL     1       3.638   4.382  19.021  0.00  0.00    +0.000 C 
ATOM      2  C   UNL     1       2.509   4.884  19.542  0.00  0.00    +0.000 C 
ATOM      3  C   UNL     1       1.742   3.712  20.026  0.00  0.00    +0.000 C 
ATOM      4  O   UNL     1       0.710   3.790  20.673  0.00  0.00    +0.000 OA
ATOM      5  C   UNL     1       2.361   2.430  19.569  0.00  0.00    +0.000 C 
ATOM      6  C   UNL     1       3.749   2.888  19.133  0.00  0.00    +0.000 C 
ENDROOT
BRANCH   1  10
ATOM      7  C   UNL     1       6.834   6.646  17.264  0.00  0.00    +0.000 A 
ATOM      8  C   UNL     1       6.902   6.223  18.598  0.00  0.00    +0.000 A 
ATOM      9  C   UNL     1       5.860   5.493  19.183  0.00  0.00    +0.000 A 
ATOM     10  C   UNL     1       4.726   5.173  18.435  0.00  0.00    +0.000 A 
ATOM     11  C   UNL     1       4.635   5.621  17.112  0.00  0.00    +0.000 A 
ATOM     12  C   UNL     1       5.684   6.343  16.528  0.00  0.00    +0.000 A 
BRANCH   7  14
ATOM     13  C   UNL     1       8.294   8.526  17.521  0.00  0.00    +0.000 C 
ATOM     14  O   UNL     1       7.955   7.317  16.857  0.00  0.00    +0.000 OA
ENDBRANCH   7  14
BRANCH  12  15
ATOM     15  O   UNL     1       5.550   6.732  15.223  0.00  0.00    +0.000 OA
ATOM     16  H   UNL     1       4.670   6.481  14.899  0.00  0.00    +0.000 HD
ENDBRANCH  12  15
ENDBRANCH   1  10
BRANCH   2  17
ATOM     17  C   UNL     1       2.061   6.261  19.657  0.00  0.00    +0.000 A 
ATOM     18  C   UNL     1       2.172   7.125  18.562  0.00  0.00    +0.000 A 
ATOM     19  C   UNL     1       1.715   8.446  18.636  0.00  0.00    +0.000 A 
ATOM     20  C   UNL     1       1.140   8.909  19.842  0.00  0.00    +0.000 A 
ATOM     21  C   UNL     1       1.041   8.028  20.950  0.00  0.00    +0.000 A 
ATOM     22  C   UNL     1       1.504   6.715  20.844  0.00  0.00    +0.000 A 
BRANCH  19  23
ATOM     23  O   UNL     1       1.805   9.307  17.574  0.00  0.00    +0.000 OA
ATOM     24  C   UNL     1       2.481  10.546  17.753  0.00  0.00    +0.000 C 
ENDBRANCH  19  23
BRANCH  20  25
ATOM     25  O   UNL     1       0.635  10.166  20.089  0.00  0.00    +0.000 OA
ATOM     26  C   UNL     1      -0.687  10.486  19.690  0.00  0.00    +0.000 C 
ENDBRANCH  20  25
BRANCH  21  27
ATOM     27  O   UNL     1       0.472   8.537  22.098  0.00  0.00    +0.000 OA
ATOM     28  C   UNL     1       1.316   9.280  22.970  0.00  0.00    +0.000 C 
ENDBRANCH  21  27
ENDBRANCH   2  17
BRANCH   6  29
ATOM     29  O   UNL     1       4.100   2.287  17.897  0.00  0.00    +0.000 OA
ATOM     30  H   UNL     1       3.516   1.527  17.743  0.00  0.00    +0.000 HD
ENDBRANCH   6  29
TORSDOF 8
ENDMDL
MODEL 9
REMARK VINA RESULT:      -6.9      0.804      2.668
REMARK  Name = 
REMARK  12 active torsions:
REMARK  status: ('A' for Active; 'I' for Inactive)
REMARK    1  A    between atoms: C_1  and  O_2
REMARK    2  A    between atoms: O_2  and  C_3
REMARK    3  A    between atoms: C_6  and  C_7
REMARK    4  A    between atoms: C_8  and  C_9
REMARK    5  A    between atoms: C_11  and  O_12
REMARK    6  A    between atoms: O_12  and  C_13
REMARK    7  A    between atoms: C_14  and  O_15
REMARK    8  A    between atoms: O_15  and  C_16
REMARK    9  A    between atoms: C_17  and  O_18
REMARK   10  A    between atoms: O_18  and  C_19
REMARK   11  A    between atoms: C_24  and  O_25
REMARK   12  A    between atoms: C_27  and  O_28
REMARK                            x       y       z     vdW  Elec       q    Type
REMARK                         _______ _______ _______ _____ _____    ______ ____
ROOT
ATOM      1  C   UNL     1       3.535   4.437  19.000  0.00  0.00    +0.000 C 
ATOM      2  C   UNL     1       2.418   4.961  19.525  0.00  0.00    +0.000 C 
ATOM      3  C   UNL     1       1.622   3.803  19.995  0.00  0.00    +0.000 C 
ATOM      4  O   UNL     1       0.592   3.900  20.642  0.00  0.00    +0.000 OA
ATOM      5  C   UNL     1       2.209   2.512  19.524  0.00  0.00    +0.000 C 
ATOM      6  C   UNL     1       3.609   2.939  19.095  0.00  0.00    +0.000 C 
ENDROOT
BRANCH   1  10
ATOM      7  C   UNL     1       6.786   6.642  17.269  0.00  0.00    +0.000 A 
ATOM      8  C   UNL     1       6.860   6.166  18.585  0.00  0.00    +0.000 A 
ATOM      9  C   UNL     1       5.801   5.456  19.161  0.00  0.00    +0.000 A 
ATOM     10  C   UNL     1       4.643   5.208  18.424  0.00  0.00    +0.000 A 
ATOM     11  C   UNL     1       4.546   5.709  17.120  0.00  0.00    +0.000 A 
ATOM     12  C   UNL     1       5.613   6.411  16.544  0.00  0.00    +0.000 A 
BRANCH   7  14
ATOM     13  C   UNL     1       8.267   8.510  17.500  0.00  0.00    +0.000 C 
ATOM     14  O   UNL     1       7.926   7.285  16.866  0.00  0.00    +0.000 OA
ENDBRANCH   7  14
BRANCH  12  15
ATOM     15  O   UNL     1       5.472   6.854  15.256  0.00  0.00    +0.000 OA
ATOM     16  H   UNL     1       6.000   7.659  15.131  0.00  0.00    +0.000 HD
ENDBRANCH  12  15
ENDBRANCH   1  10
BRANCH   2  17
ATOM     17  C   UNL     1       2.005   6.348  19.654  0.00  0.00    +0.000 A 
ATOM     18  C   UNL     1       1.627   6.850  20.904  0.00  0.00    +0.000 A 
ATOM     19  C   UNL     1       1.259   8.192  21.061  0.00  0.00    +0.000 A 
ATOM     20  C   UNL     1       1.266   9.045  19.933  0.00  0.00    +0.000 A 
ATOM     21  C   UNL     1       1.642   8.523  18.668  0.00  0.00    +0.000 A 
ATOM     22  C   UNL     1       2.006   7.180  18.544  0.00  0.00    +0.000 A 
BRANCH  19  23
ATOM     23  O   UNL     1       0.892   8.708  22.277  0.00  0.00    +0.000 OA
ATOM     24  C   UNL     1      -0.492   8.824  22.581  0.00  0.00    +0.000 C 
ENDBRANCH  19  23
BRANCH  20  25
ATOM     25  O   UNL     1       0.943  10.382  19.904  0.00  0.00    +0.000 OA
ATOM     26  C   UNL     1      -0.405  10.778  19.712  0.00  0.00    +0.000 C 
ENDBRANCH  20  25
BRANCH  21  27
ATOM     27  O   UNL     1       1.629   9.402  17.606  0.00  0.00    +0.000 OA
ATOM     28  C   UNL     1       2.578  10.462  17.624  0.00  0.00    +0.000 C 
ENDBRANCH  21  27
ENDBRANCH   2  17
BRANCH   6  29
ATOM     29  O   UNL     1       3.946   2.344  17.853  0.00  0.00    +0.000 OA
ATOM     30  H   UNL     1       3.874   1.380  17.940  0.00  0.00    +0.000 HD
ENDBRANCH   6  29
TORSDOF 8
ENDMDL
