MODEL 1
REMARK VINA RESULT:      -8.8      0.000      0.000
REMARK  Name = 
REMARK  4 active torsions:
REMARK  status: ('A' for Active; 'I' for Inactive)
REMARK    1  A    between atoms: C_2  and  C_22
REMARK    2  A    between atoms: N_3  and  C_4
REMARK    3  A    between atoms: C_7  and  C_8
REMARK    4  A    between atoms: C_12  and  C_13
REMARK                            x       y       z     vdW  Elec       q    Type
REMARK                         _______ _______ _______ _____ _____    ______ ____
ROOT
ATOM      1  C   UNL     1       1.502   8.648  19.041  0.00  0.00    +0.000 A 
ATOM      2  C   UNL     1       2.147   8.834  17.823  0.00  0.00    +0.000 A 
ATOM      3  C   UNL     1       3.186   7.983  17.433  0.00  0.00    +0.000 A 
ATOM      4  C   UNL     1       3.598   6.910  18.239  0.00  0.00    +0.000 A 
ATOM      5  C   UNL     1       2.926   6.729  19.459  0.00  0.00    +0.000 A 
ATOM      6  C   UNL     1       1.905   7.595  19.864  0.00  0.00    +0.000 A 
ENDROOT
BRANCH   4   7
ATOM      7  C   UNL     1       4.701   6.022  17.827  0.00  0.00    +0.000 A 
ATOM      8  C   UNL     1       5.552   5.420  18.752  0.00  0.00    +0.000 A 
ATOM      9  N   UNL     1       6.582   4.600  18.442  0.00  0.00    +0.000 NA
ATOM     10  C   UNL     1       6.799   4.383  17.125  0.00  0.00    +0.000 A 
ATOM     11  C   UNL     1       6.044   4.924  16.084  0.00  0.00    +0.000 A 
ATOM     12  C   UNL     1       4.972   5.743  16.476  0.00  0.00    +0.000 A 
BRANCH  11  13
ATOM     13  C   UNL     1       6.359   4.667  14.663  0.00  0.00    +0.000 A 
ATOM     14  C   UNL     1       5.596   3.770  13.895  0.00  0.00    +0.000 A 
ATOM     15  C   UNL     1       5.912   3.499  12.561  0.00  0.00    +0.000 A 
ATOM     16  C   UNL     1       6.992   4.133  11.957  0.00  0.00    +0.000 A 
ATOM     17  C   UNL     1       7.757   5.036  12.687  0.00  0.00    +0.000 A 
ATOM     18  C   UNL     1       7.446   5.296  14.026  0.00  0.00    +0.000 A 
ENDBRANCH  11  13
ENDBRANCH   4   7
BRANCH   1  21
ATOM     19  O   UNL     1       1.621  11.451  19.909  0.00  0.00    +0.000 OA
ATOM     20  C   UNL     1       0.586  10.788  19.923  0.00  0.00    +0.000 C 
ATOM     21  N   UNL     1       0.469   9.479  19.511  0.00  0.00    +0.000 N 
ATOM     22  H   UNL     1      -0.464   9.089  19.468  0.00  0.00    +0.000 HD
BRANCH  20  23
ATOM     23  C   UNL     1      -0.645  11.449  20.445  0.00  0.00    +0.000 A 
ATOM     24  C   UNL     1      -0.743  11.520  21.849  0.00  0.00    +0.000 A 
ATOM     25  C   UNL     1      -1.835  12.128  22.464  0.00  0.00    +0.000 A 
ATOM     26  C   UNL     1      -2.846  12.680  21.687  0.00  0.00    +0.000 A 
ATOM     27  C   UNL     1      -2.764  12.620  20.296  0.00  0.00    +0.000 A 
ATOM     28  C   UNL     1      -1.669  12.010  19.669  0.00  0.00    +0.000 A 
ATOM     29 CL   UNL     1      -1.673  12.039  17.940  0.00  0.00    +0.000 Cl
ENDBRANCH  20  23
ENDBRANCH   1  21
TORSDOF 4
ENDMDL
MODEL 2
REMARK VINA RESULT:      -8.7      1.061      1.385
REMARK  Name = 
REMARK  4 active torsions:
REMARK  status: ('A' for Active; 'I' for Inactive)
REMARK    1  A    between atoms: C_2  and  C_22
REMARK    2  A    between atoms: N_3  and  C_4
REMARK    3  A    between atoms: C_7  and  C_8
REMARK    4  A    between atoms: C_12  and  C_13
REMARK                            x       y       z     vdW  Elec       q    Type
REMARK                         _______ _______ _______ _____ _____    ______ ____
ROOT
ATOM      1  C   UNL     1       1.526   8.548  19.111  0.00  0.00    +0.000 A 
ATOM      2  C   UNL     1       2.142   8.733  17.878  0.00  0.00    +0.000 A 
ATOM      3  C   UNL     1       3.176   7.886  17.468  0.00  0.00    +0.000 A 
ATOM      4  C   UNL     1       3.613   6.819  18.269  0.00  0.00    +0.000 A 
ATOM      5  C   UNL     1       2.969   6.639  19.505  0.00  0.00    +0.000 A 
ATOM      6  C   UNL     1       1.952   7.501  19.930  0.00  0.00    +0.000 A 
ENDROOT
BRANCH   4   7
ATOM      7  C   UNL     1       4.711   5.935  17.836  0.00  0.00    +0.000 A 
ATOM      8  C   UNL     1       5.563   5.312  18.746  0.00  0.00    +0.000 A 
ATOM      9  N   UNL     1       6.589   4.496  18.416  0.00  0.00    +0.000 NA
ATOM     10  C   UNL     1       6.801   4.303  17.094  0.00  0.00    +0.000 A 
ATOM     11  C   UNL     1       6.045   4.868  16.067  0.00  0.00    +0.000 A 
ATOM     12  C   UNL     1       4.977   5.682  16.478  0.00  0.00    +0.000 A 
BRANCH  11  13
ATOM     13  C   UNL     1       6.354   4.638  14.639  0.00  0.00    +0.000 A 
ATOM     14  C   UNL     1       5.591   3.751  13.860  0.00  0.00    +0.000 A 
ATOM     15  C   UNL     1       5.902   3.506  12.519  0.00  0.00    +0.000 A 
ATOM     16  C   UNL     1       6.976   4.156  11.922  0.00  0.00    +0.000 A 
ATOM     17  C   UNL     1       7.740   5.049  12.664  0.00  0.00    +0.000 A 
ATOM     18  C   UNL     1       7.434   5.283  14.008  0.00  0.00    +0.000 A 
ENDBRANCH  11  13
ENDBRANCH   4   7
BRANCH   1  21
ATOM     19  O   UNL     1       1.567  11.431  19.667  0.00  0.00    +0.000 OA
ATOM     20  C   UNL     1       0.580  10.726  19.861  0.00  0.00    +0.000 C 
ATOM     21  N   UNL     1       0.499   9.375  19.602  0.00  0.00    +0.000 N 
ATOM     22  H   UNL     1      -0.410   8.938  19.699  0.00  0.00    +0.000 HD
BRANCH  20  23
ATOM     23  C   UNL     1      -0.629  11.380  20.441  0.00  0.00    +0.000 A 
ATOM     24  C   UNL     1      -1.387  12.153  19.540  0.00  0.00    +0.000 A 
ATOM     25  C   UNL     1      -2.549  12.804  19.951  0.00  0.00    +0.000 A 
ATOM     26  C   UNL     1      -2.976  12.688  21.268  0.00  0.00    +0.000 A 
ATOM     27  C   UNL     1      -2.238  11.924  22.173  0.00  0.00    +0.000 A 
ATOM     28  C   UNL     1      -1.068  11.267  21.768  0.00  0.00    +0.000 A 
ATOM     29 CL   UNL     1      -0.271  10.323  22.978  0.00  0.00    +0.000 Cl
ENDBRANCH  20  23
ENDBRANCH   1  21
TORSDOF 4
ENDMDL
MODEL 3
REMARK VINA RESULT:      -8.6      0.424      1.001
REMARK  Name = 
REMARK  4 active torsions:
REMARK  status: ('A' for Active; 'I' for Inactive)
REMARK    1  A    between atoms: C_2  and  C_22
REMARK    2  A    between atoms: N_3  and  C_4
REMARK    3  A    between atoms: C_7  and  C_8
REMARK    4  A    between atoms: C_12  and  C_13
REMARK                            x       y       z     vdW  Elec       q    Type
REMARK                         _______ _______ _______ _____ _____    ______ ____
ROOT
ATOM      1  C   UNL     1       1.452   8.641  19.241  0.00  0.00    +0.000 A 
ATOM      2  C   UNL     1       1.822   7.561  20.034  0.00  0.00    +0.000 A 
ATOM      3  C   UNL     1       2.840   6.694  19.623  0.00  0.00    +0.000 A 
ATOM      4  C   UNL     1       3.530   6.892  18.417  0.00  0.00    +0.000 A 
ATOM      5  C   UNL     1       3.151   7.996  17.635  0.00  0.00    +0.000 A 
ATOM      6  C   UNL     1       2.115   8.849  18.031  0.00  0.00    +0.000 A 
ENDROOT
BRANCH   4   7
ATOM      7  C   UNL     1       4.595   5.968  17.984  0.00  0.00    +0.000 A 
ATOM      8  C   UNL     1       5.411   5.299  18.895  0.00  0.00    +0.000 A 
ATOM      9  N   UNL     1       6.405   4.444  18.565  0.00  0.00    +0.000 NA
ATOM     10  C   UNL     1       6.622   4.259  17.243  0.00  0.00    +0.000 A 
ATOM     11  C   UNL     1       5.901   4.867  16.215  0.00  0.00    +0.000 A 
ATOM     12  C   UNL     1       4.864   5.720  16.626  0.00  0.00    +0.000 A 
BRANCH  11  13
ATOM     13  C   UNL     1       6.215   4.640  14.788  0.00  0.00    +0.000 A 
ATOM     14  C   UNL     1       5.412   3.811  13.985  0.00  0.00    +0.000 A 
ATOM     15  C   UNL     1       5.726   3.569  12.645  0.00  0.00    +0.000 A 
ATOM     16  C   UNL     1       6.844   4.164  12.071  0.00  0.00    +0.000 A 
ATOM     17  C   UNL     1       7.648   5.000  12.837  0.00  0.00    +0.000 A 
ATOM     18  C   UNL     1       7.339   5.231  14.181  0.00  0.00    +0.000 A 
ENDBRANCH  11  13
ENDBRANCH   4   7
BRANCH   1  21
ATOM     19  O   UNL     1       1.400  10.722  21.312  0.00  0.00    +0.000 OA
ATOM     20  C   UNL     1       0.445  10.487  20.574  0.00  0.00    +0.000 C 
ATOM     21  N   UNL     1       0.421   9.538  19.575  0.00  0.00    +0.000 N 
ATOM     22  H   UNL     1      -0.388   9.528  18.966  0.00  0.00    +0.000 HD
BRANCH  20  23
ATOM     23  C   UNL     1      -0.798  11.284  20.784  0.00  0.00    +0.000 A 
ATOM     24  C   UNL     1      -1.183  11.457  22.128  0.00  0.00    +0.000 A 
ATOM     25  C   UNL     1      -2.317  12.196  22.463  0.00  0.00    +0.000 A 
ATOM     26  C   UNL     1      -3.081  12.778  21.460  0.00  0.00    +0.000 A 
ATOM     27  C   UNL     1      -2.713  12.618  20.124  0.00  0.00    +0.000 A 
ATOM     28  C   UNL     1      -1.575  11.877  19.778  0.00  0.00    +0.000 A 
ATOM     29 CL   UNL     1      -1.210  11.791  18.091  0.00  0.00    +0.000 Cl
ENDBRANCH  20  23
ENDBRANCH   1  21
TORSDOF 4
ENDMDL
MODEL 4
REMARK VINA RESULT:      -8.5      1.146      1.712
REMARK  Name = 
REMARK  4 active torsions:
REMARK  status: ('A' for Active; 'I' for Inactive)
REMARK    1  A    between atoms: C_2  and  C_22
REMARK    2  A    between atoms: N_3  and  C_4
REMARK    3  A    between atoms: C_7  and  C_8
REMARK    4  A    between atoms: C_12  and  C_13
REMARK                            x       y       z     vdW  Elec       q    Type
REMARK                         _______ _______ _______ _____ _____    ______ ____
ROOT
ATOM      1  C   UNL     1       1.574   8.732  19.026  0.00  0.00    +0.000 A 
ATOM      2  C   UNL     1       1.904   7.636  19.815  0.00  0.00    +0.000 A 
ATOM      3  C   UNL     1       2.915   6.754  19.420  0.00  0.00    +0.000 A 
ATOM      4  C   UNL     1       3.639   6.953  18.233  0.00  0.00    +0.000 A 
ATOM      5  C   UNL     1       3.301   8.073  17.455  0.00  0.00    +0.000 A 
ATOM      6  C   UNL     1       2.272   8.941  17.835  0.00  0.00    +0.000 A 
ENDROOT
BRANCH   4   7
ATOM      7  C   UNL     1       4.697   6.014  17.816  0.00  0.00    +0.000 A 
ATOM      8  C   UNL     1       5.498   5.343  18.738  0.00  0.00    +0.000 A 
ATOM      9  N   UNL     1       6.485   4.475  18.424  0.00  0.00    +0.000 NA
ATOM     10  C   UNL     1       6.711   4.277  17.105  0.00  0.00    +0.000 A 
ATOM     11  C   UNL     1       6.005   4.885  16.067  0.00  0.00    +0.000 A 
ATOM     12  C   UNL     1       4.974   5.753  16.462  0.00  0.00    +0.000 A 
BRANCH  11  13
ATOM     13  C   UNL     1       6.328   4.644  14.644  0.00  0.00    +0.000 A 
ATOM     14  C   UNL     1       5.565   3.761  13.860  0.00  0.00    +0.000 A 
ATOM     15  C   UNL     1       5.888   3.506  12.524  0.00  0.00    +0.000 A 
ATOM     16  C   UNL     1       6.976   4.142  11.936  0.00  0.00    +0.000 A 
ATOM     17  C   UNL     1       7.740   5.031  12.682  0.00  0.00    +0.000 A 
ATOM     18  C   UNL     1       7.422   5.275  14.022  0.00  0.00    +0.000 A 
ENDBRANCH  11  13
ENDBRANCH   4   7
BRANCH   1  21
ATOM     19  O   UNL     1       1.351  10.539  21.329  0.00  0.00    +0.000 OA
ATOM     20  C   UNL     1       0.492  10.459  20.455  0.00  0.00    +0.000 C 
ATOM     21  N   UNL     1       0.553   9.644  19.345  0.00  0.00    +0.000 N 
ATOM     22  H   UNL     1      -0.169   9.761  18.645  0.00  0.00    +0.000 HD
BRANCH  20  23
ATOM     23  C   UNL     1      -0.729  11.302  20.613  0.00  0.00    +0.000 A 
ATOM     24  C   UNL     1      -1.226  11.873  19.425  0.00  0.00    +0.000 A 
ATOM     25  C   UNL     1      -2.371  12.667  19.432  0.00  0.00    +0.000 A 
ATOM     26  C   UNL     1      -3.042  12.900  20.626  0.00  0.00    +0.000 A 
ATOM     27  C   UNL     1      -2.564  12.341  21.812  0.00  0.00    +0.000 A 
ATOM     28  C   UNL     1      -1.413  11.541  21.814  0.00  0.00    +0.000 A 
ATOM     29 CL   UNL     1      -0.954  10.878  23.343  0.00  0.00    +0.000 Cl
ENDBRANCH  20  23
ENDBRANCH   1  21
TORSDOF 4
ENDMDL
MODEL 5
REMARK VINA RESULT:      -8.3      1.113      1.505
REMARK  Name = 
REMARK  4 active torsions:
REMARK  status: ('A' for Active; 'I' for Inactive)
REMARK    1  A    between atoms: C_2  and  C_22
REMARK    2  A    between atoms: N_3  and  C_4
REMARK    3  A    between atoms: C_7  and  C_8
REMARK    4  A    between atoms: C_12  and  C_13
REMARK                            x       y       z     vdW  Elec       q    Type
REMARK                         _______ _______ _______ _____ _____    ______ ____
ROOT
ATOM      1  C   UNL     1       1.565   8.694  19.071  0.00  0.00    +0.000 A 
ATOM      2  C   UNL     1       1.901   7.593  19.850  0.00  0.00    +0.000 A 
ATOM      3  C   UNL     1       2.921   6.724  19.449  0.00  0.00    +0.000 A 
ATOM      4  C   UNL     1       3.647   6.941  18.267  0.00  0.00    +0.000 A 
ATOM      5  C   UNL     1       3.303   8.066  17.500  0.00  0.00    +0.000 A 
ATOM      6  C   UNL     1       2.265   8.921  17.885  0.00  0.00    +0.000 A 
ENDROOT
BRANCH   4   7
ATOM      7  C   UNL     1       4.715   6.015  17.844  0.00  0.00    +0.000 A 
ATOM      8  C   UNL     1       5.538   5.364  18.762  0.00  0.00    +0.000 A 
ATOM      9  N   UNL     1       6.534   4.509  18.442  0.00  0.00    +0.000 NA
ATOM     10  C   UNL     1       6.747   4.304  17.121  0.00  0.00    +0.000 A 
ATOM     11  C   UNL     1       6.019   4.893  16.088  0.00  0.00    +0.000 A 
ATOM     12  C   UNL     1       4.980   5.748  16.489  0.00  0.00    +0.000 A 
BRANCH  11  13
ATOM     13  C   UNL     1       6.328   4.646  14.663  0.00  0.00    +0.000 A 
ATOM     14  C   UNL     1       5.557   3.760  13.890  0.00  0.00    +0.000 A 
ATOM     15  C   UNL     1       5.868   3.499  12.552  0.00  0.00    +0.000 A 
ATOM     16  C   UNL     1       6.950   4.132  11.951  0.00  0.00    +0.000 A 
ATOM     17  C   UNL     1       7.722   5.025  12.686  0.00  0.00    +0.000 A 
ATOM     18  C   UNL     1       7.417   5.274  14.028  0.00  0.00    +0.000 A 
ENDBRANCH  11  13
ENDBRANCH   4   7
BRANCH   1  21
ATOM     19  O   UNL     1      -0.674   9.632  17.418  0.00  0.00    +0.000 OA
ATOM     20  C   UNL     1      -0.486  10.014  18.571  0.00  0.00    +0.000 C 
ATOM     21  N   UNL     1       0.534   9.594  19.396  0.00  0.00    +0.000 N 
ATOM     22  H   UNL     1       0.506   9.902  20.361  0.00  0.00    +0.000 HD
BRANCH  20  23
ATOM     23  C   UNL     1      -1.430  11.029  19.121  0.00  0.00    +0.000 A 
ATOM     24  C   UNL     1      -0.914  11.839  20.151  0.00  0.00    +0.000 A 
ATOM     25  C   UNL     1      -1.688  12.837  20.739  0.00  0.00    +0.000 A 
ATOM     26  C   UNL     1      -2.990  13.047  20.303  0.00  0.00    +0.000 A 
ATOM     27  C   UNL     1      -3.517  12.256  19.282  0.00  0.00    +0.000 A 
ATOM     28  C   UNL     1      -2.746  11.249  18.685  0.00  0.00    +0.000 A 
ATOM     29 CL   UNL     1      -3.506  10.370  17.406  0.00  0.00    +0.000 Cl
ENDBRANCH  20  23
ENDBRANCH   1  21
TORSDOF 4
ENDMDL
MODEL 6
REMARK VINA RESULT:      -8.3      1.775      2.193
REMARK  Name = 
REMARK  4 active torsions:
REMARK  status: ('A' for Active; 'I' for Inactive)
REMARK    1  A    between atoms: C_2  and  C_22
REMARK    2  A    between atoms: N_3  and  C_4
REMARK    3  A    between atoms: C_7  and  C_8
REMARK    4  A    between atoms: C_12  and  C_13
REMARK                            x       y       z     vdW  Elec       q    Type
REMARK                         _______ _______ _______ _____ _____    ______ ____
ROOT
ATOM      1  C   UNL     1       1.399   8.965  19.747  0.00  0.00    +0.000 A 
ATOM      2  C   UNL     1       1.849   8.925  18.431  0.00  0.00    +0.000 A 
ATOM      3  C   UNL     1       2.485   7.783  17.933  0.00  0.00    +0.000 A 
ATOM      4  C   UNL     1       2.673   6.642  18.728  0.00  0.00    +0.000 A 
ATOM      5  C   UNL     1       2.200   6.696  20.050  0.00  0.00    +0.000 A 
ATOM      6  C   UNL     1       1.588   7.846  20.559  0.00  0.00    +0.000 A 
ENDROOT
BRANCH   4   7
ATOM      7  C   UNL     1       3.353   5.445  18.201  0.00  0.00    +0.000 A 
ATOM      8  C   UNL     1       3.307   4.216  18.858  0.00  0.00    +0.000 A 
ATOM      9  N   UNL     1       3.910   3.084  18.432  0.00  0.00    +0.000 NA
ATOM     10  C   UNL     1       4.628   3.181  17.289  0.00  0.00    +0.000 A 
ATOM     11  C   UNL     1       4.779   4.340  16.529  0.00  0.00    +0.000 A 
ATOM     12  C   UNL     1       4.104   5.473  17.012  0.00  0.00    +0.000 A 
BRANCH  11  13
ATOM     13  C   UNL     1       5.607   4.380  15.304  0.00  0.00    +0.000 A 
ATOM     14  C   UNL     1       6.792   5.135  15.247  0.00  0.00    +0.000 A 
ATOM     15  C   UNL     1       7.558   5.202  14.080  0.00  0.00    +0.000 A 
ATOM     16  C   UNL     1       7.165   4.499  12.946  0.00  0.00    +0.000 A 
ATOM     17  C   UNL     1       6.006   3.733  12.977  0.00  0.00    +0.000 A 
ATOM     18  C   UNL     1       5.234   3.678  14.142  0.00  0.00    +0.000 A 
ENDBRANCH  11  13
ENDBRANCH   4   7
BRANCH   1  21
ATOM     19  O   UNL     1      -1.241  10.120  19.182  0.00  0.00    +0.000 OA
ATOM     20  C   UNL     1      -0.463  10.596  20.007  0.00  0.00    +0.000 C 
ATOM     21  N   UNL     1       0.777  10.086  20.324  0.00  0.00    +0.000 N 
ATOM     22  H   UNL     1       1.266  10.510  21.104  0.00  0.00    +0.000 HD
BRANCH  20  23
ATOM     23  C   UNL     1      -0.888  11.839  20.713  0.00  0.00    +0.000 A 
ATOM     24  C   UNL     1      -1.040  12.976  19.895  0.00  0.00    +0.000 A 
ATOM     25  C   UNL     1      -1.449  14.197  20.428  0.00  0.00    +0.000 A 
ATOM     26  C   UNL     1      -1.718  14.301  21.786  0.00  0.00    +0.000 A 
ATOM     27  C   UNL     1      -1.575  13.185  22.611  0.00  0.00    +0.000 A 
ATOM     28  C   UNL     1      -1.163  11.953  22.083  0.00  0.00    +0.000 A 
ATOM     29 CL   UNL     1      -1.064  10.643  23.207  0.00  0.00    +0.000 Cl
ENDBRANCH  20  23
ENDBRANCH   1  21
TORSDOF 4
ENDMDL
MODEL 7
REMARK VINA RESULT:      -8.2      1.213      1.548
REMARK  Name = 
REMARK  4 active torsions:
REMARK  status: ('A' for Active; 'I' for Inactive)
REMARK    1  A    between atoms: C_2  and  C_22
REMARK    2  A    between atoms: N_3  and  C_4
REMARK    3  A    between atoms: C_7  and  C_8
REMARK    4  A    between atoms: C_12  and  C_13
REMARK                            x       y       z     vdW  Elec       q    Type
REMARK                         _______ _______ _______ _____ _____    ______ ____
ROOT
ATOM      1  C   UNL     1       1.546   8.803  18.971  0.00  0.00    +0.000 A 
ATOM      2  C   UNL     1       2.267   8.995  17.798  0.00  0.00    +0.000 A 
ATOM      3  C   UNL     1       3.268   8.094  17.424  0.00  0.00    +0.000 A 
ATOM      4  C   UNL     1       3.566   6.963  18.202  0.00  0.00    +0.000 A 
ATOM      5  C   UNL     1       2.818   6.778  19.376  0.00  0.00    +0.000 A 
ATOM      6  C   UNL     1       1.834   7.693  19.767  0.00  0.00    +0.000 A 
ENDROOT
BRANCH   4   7
ATOM      7  C   UNL     1       4.630   6.021  17.808  0.00  0.00    +0.000 A 
ATOM      8  C   UNL     1       5.409   5.349  18.748  0.00  0.00    +0.000 A 
ATOM      9  N   UNL     1       6.400   4.477  18.455  0.00  0.00    +0.000 NA
ATOM     10  C   UNL     1       6.654   4.277  17.142  0.00  0.00    +0.000 A 
ATOM     11  C   UNL     1       5.972   4.886  16.088  0.00  0.00    +0.000 A 
ATOM     12  C   UNL     1       4.936   5.758  16.461  0.00  0.00    +0.000 A 
BRANCH  11  13
ATOM     13  C   UNL     1       6.325   4.643  14.673  0.00  0.00    +0.000 A 
ATOM     14  C   UNL     1       5.595   3.739  13.882  0.00  0.00    +0.000 A 
ATOM     15  C   UNL     1       5.947   3.482  12.554  0.00  0.00    +0.000 A 
ATOM     16  C   UNL     1       7.031   4.138  11.980  0.00  0.00    +0.000 A 
ATOM     17  C   UNL     1       7.763   5.049  12.733  0.00  0.00    +0.000 A 
ATOM     18  C   UNL     1       7.416   5.294  14.066  0.00  0.00    +0.000 A 
ENDBRANCH  11  13
ENDBRANCH   4   7
BRANCH   1  21
ATOM     19  O   UNL     1      -0.803   9.837  17.545  0.00  0.00    +0.000 OA
ATOM     20  C   UNL     1      -0.531  10.148  18.702  0.00  0.00    +0.000 C 
ATOM     21  N   UNL     1       0.545   9.681  19.424  0.00  0.00    +0.000 N 
ATOM     22  H   UNL     1       0.587   9.929  20.405  0.00  0.00    +0.000 HD
BRANCH  20  23
ATOM     23  C   UNL     1      -1.430  11.127  19.378  0.00  0.00    +0.000 A 
ATOM     24  C   UNL     1      -2.654  11.374  18.726  0.00  0.00    +0.000 A 
ATOM     25  C   UNL     1      -3.591  12.256  19.262  0.00  0.00    +0.000 A 
ATOM     26  C   UNL     1      -3.324  12.900  20.462  0.00  0.00    +0.000 A 
ATOM     27  C   UNL     1      -2.118  12.666  21.123  0.00  0.00    +0.000 A 
ATOM     28  C   UNL     1      -1.169  11.782  20.591  0.00  0.00    +0.000 A 
ATOM     29 CL   UNL     1       0.264  11.552  21.530  0.00  0.00    +0.000 Cl
ENDBRANCH  20  23
ENDBRANCH   1  21
TORSDOF 4
ENDMDL
MODEL 8
REMARK VINA RESULT:      -8.2      1.412      1.880
REMARK  Name = 
REMARK  4 active torsions:
REMARK  status: ('A' for Active; 'I' for Inactive)
REMARK    1  A    between atoms: C_2  and  C_22
REMARK    2  A    between atoms: N_3  and  C_4
REMARK    3  A    between atoms: C_7  and  C_8
REMARK    4  A    between atoms: C_12  and  C_13
REMARK                            x       y       z     vdW  Elec       q    Type
REMARK                         _______ _______ _______ _____ _____    ______ ____
ROOT
ATOM      1  C   UNL     1       1.153   9.162  19.431  0.00  0.00    +0.000 A 
ATOM      2  C   UNL     1       1.795   9.155  18.197  0.00  0.00    +0.000 A 
ATOM      3  C   UNL     1       2.704   8.142  17.876  0.00  0.00    +0.000 A 
ATOM      4  C   UNL     1       2.983   7.096  18.769  0.00  0.00    +0.000 A 
ATOM      5  C   UNL     1       2.316   7.112  20.005  0.00  0.00    +0.000 A 
ATOM      6  C   UNL     1       1.426   8.140  20.340  0.00  0.00    +0.000 A 
ENDROOT
BRANCH   4   7
ATOM      7  C   UNL     1       3.950   6.036  18.429  0.00  0.00    +0.000 A 
ATOM      8  C   UNL     1       4.490   5.188  19.395  0.00  0.00    +0.000 A 
ATOM      9  N   UNL     1       5.382   4.201  19.152  0.00  0.00    +0.000 NA
ATOM     10  C   UNL     1       5.784   4.060  17.868  0.00  0.00    +0.000 A 
ATOM     11  C   UNL     1       5.346   4.839  16.797  0.00  0.00    +0.000 A 
ATOM     12  C   UNL     1       4.400   5.827  17.113  0.00  0.00    +0.000 A 
BRANCH  11  13
ATOM     13  C   UNL     1       5.855   4.648  15.421  0.00  0.00    +0.000 A 
ATOM     14  C   UNL     1       7.059   5.238  14.998  0.00  0.00    +0.000 A 
ATOM     15  C   UNL     1       7.524   5.087  13.689  0.00  0.00    +0.000 A 
ATOM     16  C   UNL     1       6.802   4.327  12.775  0.00  0.00    +0.000 A 
ATOM     17  C   UNL     1       5.616   3.720  13.168  0.00  0.00    +0.000 A 
ATOM     18  C   UNL     1       5.146   3.883  14.475  0.00  0.00    +0.000 A 
ENDBRANCH  11  13
ENDBRANCH   4   7
BRANCH   1  21
ATOM     19  O   UNL     1       1.623  11.525  21.110  0.00  0.00    +0.000 OA
ATOM     20  C   UNL     1       0.522  11.244  20.640  0.00  0.00    +0.000 C 
ATOM     21  N   UNL     1       0.249  10.162  19.834  0.00  0.00    +0.000 N 
ATOM     22  H   UNL     1      -0.675  10.112  19.422  0.00  0.00    +0.000 HD
BRANCH  20  23
ATOM     23  C   UNL     1      -0.620  12.140  20.985  0.00  0.00    +0.000 A 
ATOM     24  C   UNL     1      -0.844  13.204  20.090  0.00  0.00    +0.000 A 
ATOM     25  C   UNL     1      -1.890  14.104  20.288  0.00  0.00    +0.000 A 
ATOM     26  C   UNL     1      -2.733  13.952  21.381  0.00  0.00    +0.000 A 
ATOM     27  C   UNL     1      -2.527  12.902  22.276  0.00  0.00    +0.000 A 
ATOM     28  C   UNL     1      -1.477  11.993  22.085  0.00  0.00    +0.000 A 
ATOM     29 CL   UNL     1      -1.359  10.717  23.246  0.00  0.00    +0.000 Cl
ENDBRANCH  20  23
ENDBRANCH   1  21
TORSDOF 4
ENDMDL
MODEL 9
REMARK VINA RESULT:      -8.2      1.711      2.150
REMARK  Name = 
REMARK  4 active torsions:
REMARK  status: ('A' for Active; 'I' for Inactive)
REMARK    1  A    between atoms: C_2  and  C_22
REMARK    2  A    between atoms: N_3  and  C_4
REMARK    3  A    between atoms: C_7  and  C_8
REMARK    4  A    between atoms: C_12  and  C_13
REMARK                            x       y       z     vdW  Elec       q    Type
REMARK                         _______ _______ _______ _____ _____    ______ ____
ROOT
ATOM      1  C   UNL     1       0.831   9.626  19.660  0.00  0.00    +0.000 A 
ATOM      2  C   UNL     1       1.404   9.454  18.404  0.00  0.00    +0.000 A 
ATOM      3  C   UNL     1       2.197   8.335  18.133  0.00  0.00    +0.000 A 
ATOM      4  C   UNL     1       2.425   7.344  19.101  0.00  0.00    +0.000 A 
ATOM      5  C   UNL     1       1.827   7.528  20.359  0.00  0.00    +0.000 A 
ATOM      6  C   UNL     1       1.056   8.660  20.642  0.00  0.00    +0.000 A 
ENDROOT
BRANCH   4   7
ATOM      7  C   UNL     1       3.270   6.171  18.812  0.00  0.00    +0.000 A 
ATOM      8  C   UNL     1       3.472   5.156  19.746  0.00  0.00    +0.000 A 
ATOM      9  N   UNL     1       4.236   4.058  19.547  0.00  0.00    +0.000 NA
ATOM     10  C   UNL     1       4.862   3.973  18.351  0.00  0.00    +0.000 A 
ATOM     11  C   UNL     1       4.771   4.913  17.325  0.00  0.00    +0.000 A 
ATOM     12  C   UNL     1       3.939   6.014  17.585  0.00  0.00    +0.000 A 
BRANCH  11  13
ATOM     13  C   UNL     1       5.511   4.769  16.053  0.00  0.00    +0.000 A 
ATOM     14  C   UNL     1       4.950   4.097  14.953  0.00  0.00    +0.000 A 
ATOM     15  C   UNL     1       5.661   3.930  13.761  0.00  0.00    +0.000 A 
ATOM     16  C   UNL     1       6.946   4.448  13.636  0.00  0.00    +0.000 A 
ATOM     17  C   UNL     1       7.520   5.131  14.701  0.00  0.00    +0.000 A 
ATOM     18  C   UNL     1       6.812   5.285  15.898  0.00  0.00    +0.000 A 
ENDBRANCH  11  13
ENDBRANCH   4   7
BRANCH   1  21
ATOM     19  O   UNL     1       1.573  12.009  21.207  0.00  0.00    +0.000 OA
ATOM     20  C   UNL     1       0.443  11.825  20.760  0.00  0.00    +0.000 C 
ATOM     21  N   UNL     1       0.045  10.737  20.013  0.00  0.00    +0.000 N 
ATOM     22  H   UNL     1      -0.883  10.767  19.610  0.00  0.00    +0.000 HD
BRANCH  20  23
ATOM     23  C   UNL     1      -0.590  12.857  21.062  0.00  0.00    +0.000 A 
ATOM     24  C   UNL     1      -0.571  13.993  20.230  0.00  0.00    +0.000 A 
ATOM     25  C   UNL     1      -1.495  15.024  20.395  0.00  0.00    +0.000 A 
ATOM     26  C   UNL     1      -2.457  14.933  21.393  0.00  0.00    +0.000 A 
ATOM     27  C   UNL     1      -2.492  13.814  22.225  0.00  0.00    +0.000 A 
ATOM     28  C   UNL     1      -1.567  12.773  22.065  0.00  0.00    +0.000 A 
ATOM     29 CL   UNL     1      -1.747  11.428  23.136  0.00  0.00    +0.000 Cl
ENDBRANCH  20  23
ENDBRANCH   1  21
TORSDOF 4
ENDMDL
