MODEL 1
REMARK VINA RESULT:      -5.6      0.000      0.000
REMARK  Name = 
REMARK  5 active torsions:
REMARK  status: ('A' for Active; 'I' for Inactive)
REMARK    1  A    between atoms: C_1  and  O_2
REMARK    2  A    between atoms: O_2  and  C_3
REMARK    3  A    between atoms: C_3  and  C_4
REMARK    4  A    between atoms: C_7  and  O_8
REMARK    5  A    between atoms: O_8  and  O_9
REMARK                            x       y       z     vdW  Elec       q    Type
REMARK                         _______ _______ _______ _____ _____    ______ ____
ROOT
ATOM      1  C   UNL     1       6.658   4.984  15.822  0.00  0.00    +0.000 C 
ATOM      2  C   UNL     1       5.717   3.770  15.785  0.00  0.00    +0.000 C 
ATOM      3  C   UNL     1       5.962   6.200  16.464  0.00  0.00    +0.000 C 
ATOM      4  C   UNL     1       5.808   6.062  17.971  0.00  0.00    +0.000 C 
ATOM      5  C   UNL     1       7.151   5.713  18.606  0.00  0.00    +0.000 C 
ATOM      6  C   UNL     1       7.743   4.482  17.918  0.00  0.00    +0.000 C 
ATOM      7  O   UNL     1       7.869   4.649  16.506  0.00  0.00    +0.000 OA
ENDROOT
BRANCH   1   9
ATOM      8  C   UNL     1       6.639   4.206  13.542  0.00  0.00    +0.000 C 
ATOM      9  O   UNL     1       6.917   5.272  14.438  0.00  0.00    +0.000 OA
ENDBRANCH   1   9
BRANCH   5  10
ATOM     10  O   UNL     1       6.982   5.426  19.997  0.00  0.00    +0.000 OA
BRANCH  10  11
ATOM     11  O   UNL     1       8.321   5.362  20.567  0.00  0.00    +0.000 OA
ATOM     12  H   UNL     1       8.222   6.124  21.165  0.00  0.00    +0.000 HD
ENDBRANCH  10  11
ENDBRANCH   5  10
TORSDOF 3
ENDMDL
MODEL 2
REMARK VINA RESULT:      -5.3      2.163      4.078
REMARK  Name = 
REMARK  5 active torsions:
REMARK  status: ('A' for Active; 'I' for Inactive)
REMARK    1  A    between atoms: C_1  and  O_2
REMARK    2  A    between atoms: O_2  and  C_3
REMARK    3  A    between atoms: C_3  and  C_4
REMARK    4  A    between atoms: C_7  and  O_8
REMARK    5  A    between atoms: O_8  and  O_9
REMARK                            x       y       z     vdW  Elec       q    Type
REMARK                         _______ _______ _______ _____ _____    ______ ____
ROOT
ATOM      1  C   UNL     1       4.807   4.030  18.517  0.00  0.00    +0.000 C 
ATOM      2  C   UNL     1       4.091   5.286  19.038  0.00  0.00    +0.000 C 
ATOM      3  C   UNL     1       4.566   3.845  17.006  0.00  0.00    +0.000 C 
ATOM      4  C   UNL     1       5.343   4.843  16.161  0.00  0.00    +0.000 C 
ATOM      5  C   UNL     1       6.816   4.831  16.557  0.00  0.00    +0.000 C 
ATOM      6  C   UNL     1       6.948   5.047  18.065  0.00  0.00    +0.000 C 
ATOM      7  O   UNL     1       6.203   4.095  18.824  0.00  0.00    +0.000 OA
ENDROOT
BRANCH   1   9
ATOM      8  C   UNL     1       3.555   1.974  18.400  0.00  0.00    +0.000 C 
ATOM      9  O   UNL     1       4.179   2.947  19.225  0.00  0.00    +0.000 OA
ENDBRANCH   1   9
BRANCH   5  10
ATOM     10  O   UNL     1       7.520   5.876  15.879  0.00  0.00    +0.000 OA
BRANCH  10  11
ATOM     11  O   UNL     1       7.696   5.425  14.505  0.00  0.00    +0.000 OA
ATOM     12  H   UNL     1       8.233   6.183  14.209  0.00  0.00    +0.000 HD
ENDBRANCH  10  11
ENDBRANCH   5  10
TORSDOF 3
ENDMDL
MODEL 3
REMARK VINA RESULT:      -5.2      1.097      1.450
REMARK  Name = 
REMARK  5 active torsions:
REMARK  status: ('A' for Active; 'I' for Inactive)
REMARK    1  A    between atoms: C_1  and  O_2
REMARK    2  A    between atoms: O_2  and  C_3
REMARK    3  A    between atoms: C_3  and  C_4
REMARK    4  A    between atoms: C_7  and  O_8
REMARK    5  A    between atoms: O_8  and  O_9
REMARK                            x       y       z     vdW  Elec       q    Type
REMARK                         _______ _______ _______ _____ _____    ______ ____
ROOT
ATOM      1  C   UNL     1       6.161   5.711  16.143  0.00  0.00    +0.000 C 
ATOM      2  C   UNL     1       4.883   6.555  16.279  0.00  0.00    +0.000 C 
ATOM      3  C   UNL     1       7.390   6.485  16.659  0.00  0.00    +0.000 C 
ATOM      4  C   UNL     1       7.422   6.595  18.176  0.00  0.00    +0.000 C 
ATOM      5  C   UNL     1       7.253   5.215  18.805  0.00  0.00    +0.000 C 
ATOM      6  C   UNL     1       5.997   4.543  18.249  0.00  0.00    +0.000 C 
ATOM      7  O   UNL     1       6.002   4.462  16.823  0.00  0.00    +0.000 OA
ENDROOT
BRANCH   1   9
ATOM      8  C   UNL     1       6.349   4.146  14.321  0.00  0.00    +0.000 C 
ATOM      9  O   UNL     1       6.300   5.506  14.727  0.00  0.00    +0.000 OA
ENDBRANCH   1   9
BRANCH   5  10
ATOM     10  O   UNL     1       7.124   5.330  20.225  0.00  0.00    +0.000 OA
BRANCH  10  11
ATOM     11  O   UNL     1       8.471   5.219  20.768  0.00  0.00    +0.000 OA
ATOM     12  H   UNL     1       8.535   4.248  20.705  0.00  0.00    +0.000 HD
ENDBRANCH  10  11
ENDBRANCH   5  10
TORSDOF 3
ENDMDL
MODEL 4
REMARK VINA RESULT:      -5.0      3.457      4.762
REMARK  Name = 
REMARK  5 active torsions:
REMARK  status: ('A' for Active; 'I' for Inactive)
REMARK    1  A    between atoms: C_1  and  O_2
REMARK    2  A    between atoms: O_2  and  C_3
REMARK    3  A    between atoms: C_3  and  C_4
REMARK    4  A    between atoms: C_7  and  O_8
REMARK    5  A    between atoms: O_8  and  O_9
REMARK                            x       y       z     vdW  Elec       q    Type
REMARK                         _______ _______ _______ _____ _____    ______ ____
ROOT
ATOM      1  C   UNL     1       5.578   4.711  18.865  0.00  0.00    +0.000 C 
ATOM      2  C   UNL     1       6.373   4.516  17.564  0.00  0.00    +0.000 C 
ATOM      3  C   UNL     1       4.394   5.672  18.648  0.00  0.00    +0.000 C 
ATOM      4  C   UNL     1       3.261   5.040  17.854  0.00  0.00    +0.000 C 
ATOM      5  C   UNL     1       2.866   3.704  18.477  0.00  0.00    +0.000 C 
ATOM      6  C   UNL     1       4.102   2.817  18.625  0.00  0.00    +0.000 C 
ATOM      7  O   UNL     1       5.144   3.446  19.372  0.00  0.00    +0.000 OA
ENDROOT
BRANCH   1   9
ATOM      8  C   UNL     1       7.708   5.801  19.152  0.00  0.00    +0.000 C 
ATOM      9  O   UNL     1       6.518   5.324  19.763  0.00  0.00    +0.000 OA
ENDBRANCH   1   9
BRANCH   5  10
ATOM     10  O   UNL     1       1.914   3.032  17.647  0.00  0.00    +0.000 OA
BRANCH  10  11
ATOM     11  O   UNL     1       1.607   1.773  18.314  0.00  0.00    +0.000 OA
ATOM     12  H   UNL     1       1.664   1.212  17.519  0.00  0.00    +0.000 HD
ENDBRANCH  10  11
ENDBRANCH   5  10
TORSDOF 3
ENDMDL
MODEL 5
REMARK VINA RESULT:      -5.0      1.925      4.278
REMARK  Name = 
REMARK  5 active torsions:
REMARK  status: ('A' for Active; 'I' for Inactive)
REMARK    1  A    between atoms: C_1  and  O_2
REMARK    2  A    between atoms: O_2  and  C_3
REMARK    3  A    between atoms: C_3  and  C_4
REMARK    4  A    between atoms: C_7  and  O_8
REMARK    5  A    between atoms: O_8  and  O_9
REMARK                            x       y       z     vdW  Elec       q    Type
REMARK                         _______ _______ _______ _____ _____    ______ ____
ROOT
ATOM      1  C   UNL     1       5.466   4.251  18.448  0.00  0.00    +0.000 C 
ATOM      2  C   UNL     1       5.038   5.696  18.747  0.00  0.00    +0.000 C 
ATOM      3  C   UNL     1       4.582   3.630  17.348  0.00  0.00    +0.000 C 
ATOM      4  C   UNL     1       4.888   4.185  15.965  0.00  0.00    +0.000 C 
ATOM      5  C   UNL     1       6.384   4.090  15.681  0.00  0.00    +0.000 C 
ATOM      6  C   UNL     1       7.169   4.755  16.813  0.00  0.00    +0.000 C 
ATOM      7  O   UNL     1       6.852   4.210  18.094  0.00  0.00    +0.000 OA
ENDROOT
BRANCH   1   9
ATOM      8  C   UNL     1       4.200   2.578  19.634  0.00  0.00    +0.000 C 
ATOM      9  O   UNL     1       5.234   3.551  19.682  0.00  0.00    +0.000 OA
ENDBRANCH   1   9
BRANCH   5  10
ATOM     10  O   UNL     1       6.699   4.753  14.453  0.00  0.00    +0.000 OA
BRANCH  10  11
ATOM     11  O   UNL     1       7.858   5.592  14.727  0.00  0.00    +0.000 OA
ATOM     12  H   UNL     1       8.469   4.866  14.947  0.00  0.00    +0.000 HD
ENDBRANCH  10  11
ENDBRANCH   5  10
TORSDOF 3
ENDMDL
MODEL 6
REMARK VINA RESULT:      -5.0      1.088      1.172
REMARK  Name = 
REMARK  5 active torsions:
REMARK  status: ('A' for Active; 'I' for Inactive)
REMARK    1  A    between atoms: C_1  and  O_2
REMARK    2  A    between atoms: O_2  and  C_3
REMARK    3  A    between atoms: C_3  and  C_4
REMARK    4  A    between atoms: C_7  and  O_8
REMARK    5  A    between atoms: O_8  and  O_9
REMARK                            x       y       z     vdW  Elec       q    Type
REMARK                         _______ _______ _______ _____ _____    ______ ____
ROOT
ATOM      1  C   UNL     1       5.596   4.700  15.884  0.00  0.00    +0.000 C 
ATOM      2  C   UNL     1       4.613   3.865  16.720  0.00  0.00    +0.000 C 
ATOM      3  C   UNL     1       5.426   6.204  16.172  0.00  0.00    +0.000 C 
ATOM      4  C   UNL     1       5.976   6.609  17.531  0.00  0.00    +0.000 C 
ATOM      5  C   UNL     1       7.410   6.109  17.687  0.00  0.00    +0.000 C 
ATOM      6  C   UNL     1       7.467   4.607  17.406  0.00  0.00    +0.000 C 
ATOM      7  O   UNL     1       6.939   4.267  16.124  0.00  0.00    +0.000 OA
ENDROOT
BRANCH   1   9
ATOM      8  C   UNL     1       6.240   3.900  13.704  0.00  0.00    +0.000 C 
ATOM      9  O   UNL     1       5.212   4.440  14.523  0.00  0.00    +0.000 OA
ENDBRANCH   1   9
BRANCH   5  10
ATOM     10  O   UNL     1       7.876   6.347  19.018  0.00  0.00    +0.000 OA
BRANCH  10  11
ATOM     11  O   UNL     1       7.163   5.407  19.874  0.00  0.00    +0.000 OA
ATOM     12  H   UNL     1       7.277   5.907  20.703  0.00  0.00    +0.000 HD
ENDBRANCH  10  11
ENDBRANCH   5  10
TORSDOF 3
ENDMDL
MODEL 7
REMARK VINA RESULT:      -5.0      2.642      3.992
REMARK  Name = 
REMARK  5 active torsions:
REMARK  status: ('A' for Active; 'I' for Inactive)
REMARK    1  A    between atoms: C_1  and  O_2
REMARK    2  A    between atoms: O_2  and  C_3
REMARK    3  A    between atoms: C_3  and  C_4
REMARK    4  A    between atoms: C_7  and  O_8
REMARK    5  A    between atoms: O_8  and  O_9
REMARK                            x       y       z     vdW  Elec       q    Type
REMARK                         _______ _______ _______ _____ _____    ______ ____
ROOT
ATOM      1  C   UNL     1       3.770   5.403  17.776  0.00  0.00    +0.000 C 
ATOM      2  C   UNL     1       4.327   5.094  19.174  0.00  0.00    +0.000 C 
ATOM      3  C   UNL     1       4.260   6.776  17.278  0.00  0.00    +0.000 C 
ATOM      4  C   UNL     1       5.726   6.767  16.874  0.00  0.00    +0.000 C 
ATOM      5  C   UNL     1       5.994   5.625  15.898  0.00  0.00    +0.000 C 
ATOM      6  C   UNL     1       5.497   4.307  16.495  0.00  0.00    +0.000 C 
ATOM      7  O   UNL     1       4.118   4.357  16.864  0.00  0.00    +0.000 OA
ENDROOT
BRANCH   1   9
ATOM      8  C   UNL     1       1.666   4.227  17.762  0.00  0.00    +0.000 C 
ATOM      9  O   UNL     1       2.346   5.458  17.968  0.00  0.00    +0.000 OA
ENDBRANCH   1   9
BRANCH   5  10
ATOM     10  O   UNL     1       7.397   5.512  15.640  0.00  0.00    +0.000 OA
BRANCH  10  11
ATOM     11  O   UNL     1       7.899   4.493  16.552  0.00  0.00    +0.000 OA
ATOM     12  H   UNL     1       8.823   4.513  16.240  0.00  0.00    +0.000 HD
ENDBRANCH  10  11
ENDBRANCH   5  10
TORSDOF 3
ENDMDL
MODEL 8
REMARK VINA RESULT:      -5.0      2.795      3.887
REMARK  Name = 
REMARK  5 active torsions:
REMARK  status: ('A' for Active; 'I' for Inactive)
REMARK    1  A    between atoms: C_1  and  O_2
REMARK    2  A    between atoms: O_2  and  C_3
REMARK    3  A    between atoms: C_3  and  C_4
REMARK    4  A    between atoms: C_7  and  O_8
REMARK    5  A    between atoms: O_8  and  O_9
REMARK                            x       y       z     vdW  Elec       q    Type
REMARK                         _______ _______ _______ _____ _____    ______ ____
ROOT
ATOM      1  C   UNL     1       3.890   4.345  18.186  0.00  0.00    +0.000 C 
ATOM      2  C   UNL     1       3.939   2.922  18.764  0.00  0.00    +0.000 C 
ATOM      3  C   UNL     1       4.908   5.262  18.890  0.00  0.00    +0.000 C 
ATOM      4  C   UNL     1       6.344   4.968  18.484  0.00  0.00    +0.000 C 
ATOM      5  C   UNL     1       6.468   4.961  16.963  0.00  0.00    +0.000 C 
ATOM      6  C   UNL     1       5.435   4.005  16.364  0.00  0.00    +0.000 C 
ATOM      7  O   UNL     1       4.101   4.311  16.772  0.00  0.00    +0.000 OA
ENDROOT
BRANCH   1   9
ATOM      8  C   UNL     1       1.515   4.024  17.931  0.00  0.00    +0.000 C 
ATOM      9  O   UNL     1       2.561   4.803  18.492  0.00  0.00    +0.000 OA
ENDBRANCH   1   9
BRANCH   5  10
ATOM     10  O   UNL     1       7.775   4.529  16.573  0.00  0.00    +0.000 OA
BRANCH  10  11
ATOM     11  O   UNL     1       8.400   3.987  17.773  0.00  0.00    +0.000 OA
ATOM     12  H   UNL     1       8.951   4.767  17.970  0.00  0.00    +0.000 HD
ENDBRANCH  10  11
ENDBRANCH   5  10
TORSDOF 3
ENDMDL
MODEL 9
REMARK VINA RESULT:      -4.9      4.204      5.648
REMARK  Name = 
REMARK  5 active torsions:
REMARK  status: ('A' for Active; 'I' for Inactive)
REMARK    1  A    between atoms: C_1  and  O_2
REMARK    2  A    between atoms: O_2  and  C_3
REMARK    3  A    between atoms: C_3  and  C_4
REMARK    4  A    between atoms: C_7  and  O_8
REMARK    5  A    between atoms: O_8  and  O_9
REMARK                            x       y       z     vdW  Elec       q    Type
REMARK                         _______ _______ _______ _____ _____    ______ ____
ROOT
ATOM      1  C   UNL     1       2.237   3.871  19.701  0.00  0.00    +0.000 C 
ATOM      2  C   UNL     1       2.258   5.264  20.348  0.00  0.00    +0.000 C 
ATOM      3  C   UNL     1       1.994   3.972  18.182  0.00  0.00    +0.000 C 
ATOM      4  C   UNL     1       3.208   4.488  17.426  0.00  0.00    +0.000 C 
ATOM      5  C   UNL     1       4.444   3.676  17.800  0.00  0.00    +0.000 C 
ATOM      6  C   UNL     1       4.610   3.658  19.320  0.00  0.00    +0.000 C 
ATOM      7  O   UNL     1       3.449   3.171  19.994  0.00  0.00    +0.000 OA
ENDROOT
BRANCH   1   9
ATOM      8  C   UNL     1       1.360   2.669  21.597  0.00  0.00    +0.000 C 
ATOM      9  O   UNL     1       1.111   3.216  20.310  0.00  0.00    +0.000 OA
ENDBRANCH   1   9
BRANCH   5  10
ATOM     10  O   UNL     1       5.614   4.256  17.216  0.00  0.00    +0.000 OA
BRANCH  10  11
ATOM     11  O   UNL     1       6.681   4.095  18.196  0.00  0.00    +0.000 OA
ATOM     12  H   UNL     1       7.277   4.768  17.818  0.00  0.00    +0.000 HD
ENDBRANCH  10  11
ENDBRANCH   5  10
TORSDOF 3
ENDMDL
