MODEL 1
REMARK VINA RESULT:      -7.3      0.000      0.000
REMARK  Name = 
REMARK  14 active torsions:
REMARK  status: ('A' for Active; 'I' for Inactive)
REMARK    1  A    between atoms: C_1  and  O_2
REMARK    2  A    between atoms: O_2  and  C_3
REMARK    3  A    between atoms: C_3  and  C_5
REMARK    4  A    between atoms: C_5  and  C_6
REMARK    5  A    between atoms: C_6  and  C_7
REMARK    6  A    between atoms: C_6  and  O_19
REMARK    7  A    between atoms: C_7  and  N_8
REMARK    8  A    between atoms: C_9  and  O_11
REMARK    9  A    between atoms: O_11  and  C_12
REMARK   10  A    between atoms: C_12  and  C_13
REMARK   11  A    between atoms: O_19  and  C_20
REMARK   12  A    between atoms: C_20  and  C_21
REMARK   13  A    between atoms: C_24  and  O_25
REMARK   14  A    between atoms: O_25  and  C_26
REMARK                            x       y       z     vdW  Elec       q    Type
REMARK                         _______ _______ _______ _____ _____    ______ ____
ROOT
ATOM      1  C   UNL     1       2.079   5.310  20.275  0.00  0.00    +0.000 C 
ENDROOT
BRANCH   1   2
ATOM      2  C   UNL     1       1.112   4.142  20.488  0.00  0.00    +0.000 C 
BRANCH   2   3
ATOM      3  C   UNL     1       1.799   2.948  21.073  0.00  0.00    +0.000 C 
ATOM      4  O   UNL     1       1.583   2.506  22.198  0.00  0.00    +0.000 OA
BRANCH   3   6
ATOM      5  C   UNL     1       3.992   2.339  20.548  0.00  0.00    +0.000 C 
ATOM      6  O   UNL     1       2.625   2.394  20.146  0.00  0.00    +0.000 OA
ENDBRANCH   3   6
ENDBRANCH   2   3
ENDBRANCH   1   2
BRANCH   1   7
ATOM      7  C   UNL     1       2.287   5.645  18.778  0.00  0.00    +0.000 C 
BRANCH   7   8
ATOM      8  N   UNL     1       3.411   4.926  18.206  0.00  0.00    +0.000 N 
ATOM      9  C   UNL     1       3.283   3.920  17.299  0.00  0.00    +0.000 C 
ATOM     10  O   UNL     1       2.223   3.411  16.963  0.00  0.00    +0.000 OA
ATOM     11  H   UNL     1       4.344   5.283  18.361  0.00  0.00    +0.000 HD
BRANCH   9  12
ATOM     12  O   UNL     1       4.506   3.582  16.834  0.00  0.00    +0.000 OA
BRANCH  12  13
ATOM     13  C   UNL     1       5.177   4.593  16.072  0.00  0.00    +0.000 C 
BRANCH  13  14
ATOM     14  C   UNL     1       6.189   5.362  16.886  0.00  0.00    +0.000 A 
ATOM     15  C   UNL     1       6.333   6.747  16.710  0.00  0.00    +0.000 A 
ATOM     16  C   UNL     1       7.212   7.481  17.509  0.00  0.00    +0.000 A 
ATOM     17  C   UNL     1       7.959   6.839  18.494  0.00  0.00    +0.000 A 
ATOM     18  C   UNL     1       7.826   5.464  18.681  0.00  0.00    +0.000 A 
ATOM     19  C   UNL     1       6.946   4.727  17.881  0.00  0.00    +0.000 A 
ENDBRANCH  13  14
ENDBRANCH  12  13
ENDBRANCH   9  12
ENDBRANCH   7   8
ENDBRANCH   1   7
BRANCH   1  20
ATOM     20  O   UNL     1       1.581   6.500  20.928  0.00  0.00    +0.000 OA
BRANCH  20  21
ATOM     21  C   UNL     1       1.782   7.689  20.161  0.00  0.00    +0.000 C 
BRANCH  21  22
ATOM     22  C   UNL     1       1.024   8.838  20.767  0.00  0.00    +0.000 A 
ATOM     23  C   UNL     1       0.678   8.819  22.124  0.00  0.00    +0.000 A 
ATOM     24  C   UNL     1       0.006   9.900  22.696  0.00  0.00    +0.000 A 
ATOM     25  C   UNL     1      -0.311  11.021  21.928  0.00  0.00    +0.000 A 
ATOM     26  C   UNL     1       0.038  11.051  20.578  0.00  0.00    +0.000 A 
ATOM     27  C   UNL     1       0.706   9.966  20.003  0.00  0.00    +0.000 A 
BRANCH  25  28
ATOM     28  O   UNL     1      -1.000  12.000  22.589  0.00  0.00    +0.000 OA
ATOM     29  C   UNL     1      -0.553  13.331  22.362  0.00  0.00    +0.000 C 
ENDBRANCH  25  28
ENDBRANCH  21  22
ENDBRANCH  20  21
ENDBRANCH   1  20
TORSDOF 12
ENDMDL
MODEL 2
REMARK VINA RESULT:      -7.2      4.516      7.583
REMARK  Name = 
REMARK  14 active torsions:
REMARK  status: ('A' for Active; 'I' for Inactive)
REMARK    1  A    between atoms: C_1  and  O_2
REMARK    2  A    between atoms: O_2  and  C_3
REMARK    3  A    between atoms: C_3  and  C_5
REMARK    4  A    between atoms: C_5  and  C_6
REMARK    5  A    between atoms: C_6  and  C_7
REMARK    6  A    between atoms: C_6  and  O_19
REMARK    7  A    between atoms: C_7  and  N_8
REMARK    8  A    between atoms: C_9  and  O_11
REMARK    9  A    between atoms: O_11  and  C_12
REMARK   10  A    between atoms: C_12  and  C_13
REMARK   11  A    between atoms: O_19  and  C_20
REMARK   12  A    between atoms: C_20  and  C_21
REMARK   13  A    between atoms: C_24  and  O_25
REMARK   14  A    between atoms: O_25  and  C_26
REMARK                            x       y       z     vdW  Elec       q    Type
REMARK                         _______ _______ _______ _____ _____    ______ ____
ROOT
ATOM      1  C   UNL     1       6.760   5.153  15.688  0.00  0.00    +0.000 C 
ENDROOT
BRANCH   1   2
ATOM      2  C   UNL     1       6.332   4.781  14.266  0.00  0.00    +0.000 C 
BRANCH   2   3
ATOM      3  C   UNL     1       7.422   5.033  13.271  0.00  0.00    +0.000 C 
ATOM      4  O   UNL     1       8.419   5.715  13.493  0.00  0.00    +0.000 OA
BRANCH   3   6
ATOM      5  C   UNL     1       6.116   3.385  12.256  0.00  0.00    +0.000 C 
ATOM      6  O   UNL     1       7.176   4.330  12.133  0.00  0.00    +0.000 OA
ENDBRANCH   3   6
ENDBRANCH   2   3
ENDBRANCH   1   2
BRANCH   1   7
ATOM      7  C   UNL     1       6.029   6.410  16.219  0.00  0.00    +0.000 C 
BRANCH   7   8
ATOM      8  N   UNL     1       6.954   7.477  16.560  0.00  0.00    +0.000 N 
ATOM      9  C   UNL     1       7.745   7.468  17.666  0.00  0.00    +0.000 C 
ATOM     10  O   UNL     1       7.678   6.645  18.568  0.00  0.00    +0.000 OA
ATOM     11  H   UNL     1       7.144   8.192  15.870  0.00  0.00    +0.000 HD
BRANCH   9  12
ATOM     12  O   UNL     1       8.609   8.506  17.604  0.00  0.00    +0.000 OA
BRANCH  12  13
ATOM     13  C   UNL     1       8.142   9.732  18.178  0.00  0.00    +0.000 C 
BRANCH  13  14
ATOM     14  C   UNL     1       9.265  10.596  18.702  0.00  0.00    +0.000 A 
ATOM     15  C   UNL     1       9.339  10.907  20.068  0.00  0.00    +0.000 A 
ATOM     16  C   UNL     1      10.413  11.642  20.577  0.00  0.00    +0.000 A 
ATOM     17  C   UNL     1      11.426  12.074  19.724  0.00  0.00    +0.000 A 
ATOM     18  C   UNL     1      11.366  11.771  18.364  0.00  0.00    +0.000 A 
ATOM     19  C   UNL     1      10.291  11.035  17.854  0.00  0.00    +0.000 A 
ENDBRANCH  13  14
ENDBRANCH  12  13
ENDBRANCH   9  12
ENDBRANCH   7   8
ENDBRANCH   1   7
BRANCH   1  20
ATOM     20  O   UNL     1       6.480   4.063  16.598  0.00  0.00    +0.000 OA
BRANCH  20  21
ATOM     21  C   UNL     1       5.271   3.368  16.286  0.00  0.00    +0.000 C 
BRANCH  21  22
ATOM     22  C   UNL     1       4.272   3.532  17.399  0.00  0.00    +0.000 A 
ATOM     23  C   UNL     1       2.930   3.180  17.203  0.00  0.00    +0.000 A 
ATOM     24  C   UNL     1       2.011   3.298  18.246  0.00  0.00    +0.000 A 
ATOM     25  C   UNL     1       2.419   3.749  19.502  0.00  0.00    +0.000 A 
ATOM     26  C   UNL     1       3.755   4.092  19.707  0.00  0.00    +0.000 A 
ATOM     27  C   UNL     1       4.677   3.980  18.661  0.00  0.00    +0.000 A 
BRANCH  25  28
ATOM     28  O   UNL     1       1.423   3.856  20.431  0.00  0.00    +0.000 OA
ATOM     29  C   UNL     1       1.248   2.731  21.283  0.00  0.00    +0.000 C 
ENDBRANCH  25  28
ENDBRANCH  21  22
ENDBRANCH  20  21
ENDBRANCH   1  20
TORSDOF 12
ENDMDL
MODEL 3
REMARK VINA RESULT:      -7.1      2.189      6.667
REMARK  Name = 
REMARK  14 active torsions:
REMARK  status: ('A' for Active; 'I' for Inactive)
REMARK    1  A    between atoms: C_1  and  O_2
REMARK    2  A    between atoms: O_2  and  C_3
REMARK    3  A    between atoms: C_3  and  C_5
REMARK    4  A    between atoms: C_5  and  C_6
REMARK    5  A    between atoms: C_6  and  C_7
REMARK    6  A    between atoms: C_6  and  O_19
REMARK    7  A    between atoms: C_7  and  N_8
REMARK    8  A    between atoms: C_9  and  O_11
REMARK    9  A    between atoms: O_11  and  C_12
REMARK   10  A    between atoms: C_12  and  C_13
REMARK   11  A    between atoms: O_19  and  C_20
REMARK   12  A    between atoms: C_20  and  C_21
REMARK   13  A    between atoms: C_24  and  O_25
REMARK   14  A    between atoms: O_25  and  C_26
REMARK                            x       y       z     vdW  Elec       q    Type
REMARK                         _______ _______ _______ _____ _____    ______ ____
ROOT
ATOM      1  C   UNL     1       2.569   2.149  18.331  0.00  0.00    +0.000 C 
ENDROOT
BRANCH   1   2
ATOM      2  C   UNL     1       3.921   1.547  18.723  0.00  0.00    +0.000 C 
BRANCH   2   3
ATOM      3  C   UNL     1       4.614   2.363  19.769  0.00  0.00    +0.000 C 
ATOM      4  O   UNL     1       4.848   3.565  19.670  0.00  0.00    +0.000 OA
BRANCH   3   6
ATOM      5  C   UNL     1       5.326   0.280  20.548  0.00  0.00    +0.000 C 
ATOM      6  O   UNL     1       4.865   1.592  20.861  0.00  0.00    +0.000 OA
ENDBRANCH   3   6
ENDBRANCH   2   3
ENDBRANCH   1   2
BRANCH   1   7
ATOM      7  C   UNL     1       1.638   2.362  19.549  0.00  0.00    +0.000 C 
BRANCH   7   8
ATOM      8  N   UNL     1       1.485   3.768  19.882  0.00  0.00    +0.000 N 
ATOM      9  C   UNL     1       1.853   4.307  21.076  0.00  0.00    +0.000 C 
ATOM     10  O   UNL     1       2.223   3.666  22.049  0.00  0.00    +0.000 OA
ATOM     11  H   UNL     1       1.241   4.416  19.146  0.00  0.00    +0.000 HD
BRANCH   9  12
ATOM     12  O   UNL     1       1.749   5.653  21.007  0.00  0.00    +0.000 OA
BRANCH  12  13
ATOM     13  C   UNL     1       2.551   6.283  20.002  0.00  0.00    +0.000 C 
BRANCH  13  14
ATOM     14  C   UNL     1       1.995   7.617  19.563  0.00  0.00    +0.000 A 
ATOM     15  C   UNL     1       1.297   8.425  20.474  0.00  0.00    +0.000 A 
ATOM     16  C   UNL     1       0.844   9.694  20.102  0.00  0.00    +0.000 A 
ATOM     17  C   UNL     1       1.084  10.168  18.815  0.00  0.00    +0.000 A 
ATOM     18  C   UNL     1       1.777   9.377  17.900  0.00  0.00    +0.000 A 
ATOM     19  C   UNL     1       2.231   8.107  18.272  0.00  0.00    +0.000 A 
ENDBRANCH  13  14
ENDBRANCH  12  13
ENDBRANCH   9  12
ENDBRANCH   7   8
ENDBRANCH   1   7
BRANCH   1  20
ATOM     20  O   UNL     1       2.758   3.432  17.691  0.00  0.00    +0.000 OA
BRANCH  20  21
ATOM     21  C   UNL     1       3.472   3.344  16.456  0.00  0.00    +0.000 C 
BRANCH  21  22
ATOM     22  C   UNL     1       4.642   4.290  16.461  0.00  0.00    +0.000 A 
ATOM     23  C   UNL     1       4.498   5.592  16.957  0.00  0.00    +0.000 A 
ATOM     24  C   UNL     1       5.591   6.458  16.994  0.00  0.00    +0.000 A 
ATOM     25  C   UNL     1       6.846   6.032  16.558  0.00  0.00    +0.000 A 
ATOM     26  C   UNL     1       7.000   4.733  16.072  0.00  0.00    +0.000 A 
ATOM     27  C   UNL     1       5.904   3.867  16.028  0.00  0.00    +0.000 A 
BRANCH  25  28
ATOM     28  O   UNL     1       7.830   6.979  16.610  0.00  0.00    +0.000 OA
ATOM     29  C   UNL     1       7.604   8.056  17.510  0.00  0.00    +0.000 C 
ENDBRANCH  25  28
ENDBRANCH  21  22
ENDBRANCH  20  21
ENDBRANCH   1  20
TORSDOF 12
ENDMDL
MODEL 4
REMARK VINA RESULT:      -7.1      2.556      3.918
REMARK  Name = 
REMARK  14 active torsions:
REMARK  status: ('A' for Active; 'I' for Inactive)
REMARK    1  A    between atoms: C_1  and  O_2
REMARK    2  A    between atoms: O_2  and  C_3
REMARK    3  A    between atoms: C_3  and  C_5
REMARK    4  A    between atoms: C_5  and  C_6
REMARK    5  A    between atoms: C_6  and  C_7
REMARK    6  A    between atoms: C_6  and  O_19
REMARK    7  A    between atoms: C_7  and  N_8
REMARK    8  A    between atoms: C_9  and  O_11
REMARK    9  A    between atoms: O_11  and  C_12
REMARK   10  A    between atoms: C_12  and  C_13
REMARK   11  A    between atoms: O_19  and  C_20
REMARK   12  A    between atoms: C_20  and  C_21
REMARK   13  A    between atoms: C_24  and  O_25
REMARK   14  A    between atoms: O_25  and  C_26
REMARK                            x       y       z     vdW  Elec       q    Type
REMARK                         _______ _______ _______ _____ _____    ______ ____
ROOT
ATOM      1  C   UNL     1       3.753   3.942  18.802  0.00  0.00    +0.000 C 
ENDROOT
BRANCH   1   2
ATOM      2  C   UNL     1       2.676   3.238  17.972  0.00  0.00    +0.000 C 
BRANCH   2   3
ATOM      3  C   UNL     1       1.610   2.638  18.834  0.00  0.00    +0.000 C 
ATOM      4  O   UNL     1       0.480   2.355  18.444  0.00  0.00    +0.000 OA
BRANCH   3   6
ATOM      5  C   UNL     1       1.282   2.850  21.136  0.00  0.00    +0.000 C 
ATOM      6  O   UNL     1       2.110   2.386  20.073  0.00  0.00    +0.000 OA
ENDBRANCH   3   6
ENDBRANCH   2   3
ENDBRANCH   1   2
BRANCH   1   7
ATOM      7  C   UNL     1       5.187   3.535  18.384  0.00  0.00    +0.000 C 
BRANCH   7   8
ATOM      8  N   UNL     1       5.807   4.524  17.519  0.00  0.00    +0.000 N 
ATOM      9  C   UNL     1       7.152   4.691  17.405  0.00  0.00    +0.000 C 
ATOM     10  O   UNL     1       7.989   4.138  18.103  0.00  0.00    +0.000 OA
ATOM     11  H   UNL     1       5.228   5.010  16.847  0.00  0.00    +0.000 HD
BRANCH   9  12
ATOM     12  O   UNL     1       7.408   5.557  16.398  0.00  0.00    +0.000 OA
BRANCH  12  13
ATOM     13  C   UNL     1       6.308   5.825  15.521  0.00  0.00    +0.000 C 
BRANCH  13  14
ATOM     14  C   UNL     1       6.382   5.037  14.235  0.00  0.00    +0.000 A 
ATOM     15  C   UNL     1       7.487   5.180  13.381  0.00  0.00    +0.000 A 
ATOM     16  C   UNL     1       7.603   4.401  12.227  0.00  0.00    +0.000 A 
ATOM     17  C   UNL     1       6.616   3.471  11.913  0.00  0.00    +0.000 A 
ATOM     18  C   UNL     1       5.513   3.317  12.753  0.00  0.00    +0.000 A 
ATOM     19  C   UNL     1       5.396   4.097  13.909  0.00  0.00    +0.000 A 
ENDBRANCH  13  14
ENDBRANCH  12  13
ENDBRANCH   9  12
ENDBRANCH   7   8
ENDBRANCH   1   7
BRANCH   1  20
ATOM     20  O   UNL     1       3.642   5.377  18.656  0.00  0.00    +0.000 OA
BRANCH  20  21
ATOM     21  C   UNL     1       3.157   6.026  19.833  0.00  0.00    +0.000 C 
BRANCH  21  22
ATOM     22  C   UNL     1       2.368   7.253  19.467  0.00  0.00    +0.000 A 
ATOM     23  C   UNL     1       1.705   7.989  20.456  0.00  0.00    +0.000 A 
ATOM     24  C   UNL     1       1.002   9.148  20.122  0.00  0.00    +0.000 A 
ATOM     25  C   UNL     1       0.969   9.598  18.802  0.00  0.00    +0.000 A 
ATOM     26  C   UNL     1       1.634   8.875  17.812  0.00  0.00    +0.000 A 
ATOM     27  C   UNL     1       2.334   7.710  18.145  0.00  0.00    +0.000 A 
BRANCH  25  28
ATOM     28  O   UNL     1       0.220  10.722  18.592  0.00  0.00    +0.000 OA
ATOM     29  C   UNL     1      -1.097  10.505  18.102  0.00  0.00    +0.000 C 
ENDBRANCH  25  28
ENDBRANCH  21  22
ENDBRANCH  20  21
ENDBRANCH   1  20
TORSDOF 12
ENDMDL
MODEL 5
REMARK VINA RESULT:      -7.1      2.564      3.944
REMARK  Name = 
REMARK  14 active torsions:
REMARK  status: ('A' for Active; 'I' for Inactive)
REMARK    1  A    between atoms: C_1  and  O_2
REMARK    2  A    between atoms: O_2  and  C_3
REMARK    3  A    between atoms: C_3  and  C_5
REMARK    4  A    between atoms: C_5  and  C_6
REMARK    5  A    between atoms: C_6  and  C_7
REMARK    6  A    between atoms: C_6  and  O_19
REMARK    7  A    between atoms: C_7  and  N_8
REMARK    8  A    between atoms: C_9  and  O_11
REMARK    9  A    between atoms: O_11  and  C_12
REMARK   10  A    between atoms: C_12  and  C_13
REMARK   11  A    between atoms: O_19  and  C_20
REMARK   12  A    between atoms: C_20  and  C_21
REMARK   13  A    between atoms: C_24  and  O_25
REMARK   14  A    between atoms: O_25  and  C_26
REMARK                            x       y       z     vdW  Elec       q    Type
REMARK                         _______ _______ _______ _____ _____    ______ ____
ROOT
ATOM      1  C   UNL     1       4.063   4.442  19.397  0.00  0.00    +0.000 C 
ENDROOT
BRANCH   1   2
ATOM      2  C   UNL     1       3.993   3.196  18.510  0.00  0.00    +0.000 C 
BRANCH   2   3
ATOM      3  C   UNL     1       2.589   2.882  18.098  0.00  0.00    +0.000 C 
ATOM      4  O   UNL     1       2.107   3.165  17.005  0.00  0.00    +0.000 OA
BRANCH   3   6
ATOM      5  C   UNL     1       0.772   2.777  19.561  0.00  0.00    +0.000 C 
ATOM      6  O   UNL     1       1.970   2.173  19.081  0.00  0.00    +0.000 OA
ENDBRANCH   3   6
ENDBRANCH   2   3
ENDBRANCH   1   2
BRANCH   1   7
ATOM      7  C   UNL     1       5.428   5.165  19.301  0.00  0.00    +0.000 C 
BRANCH   7   8
ATOM      8  N   UNL     1       5.720   5.606  17.948  0.00  0.00    +0.000 N 
ATOM      9  C   UNL     1       6.927   6.097  17.557  0.00  0.00    +0.000 C 
ATOM     10  O   UNL     1       7.855   6.356  18.309  0.00  0.00    +0.000 OA
ATOM     11  H   UNL     1       5.055   5.396  17.216  0.00  0.00    +0.000 HD
BRANCH   9  12
ATOM     12  O   UNL     1       6.932   6.248  16.213  0.00  0.00    +0.000 OA
BRANCH  12  13
ATOM     13  C   UNL     1       5.837   5.636  15.521  0.00  0.00    +0.000 C 
BRANCH  13  14
ATOM     14  C   UNL     1       6.267   4.932  14.256  0.00  0.00    +0.000 A 
ATOM     15  C   UNL     1       5.474   3.910  13.712  0.00  0.00    +0.000 A 
ATOM     16  C   UNL     1       5.821   3.303  12.502  0.00  0.00    +0.000 A 
ATOM     17  C   UNL     1       6.967   3.712  11.823  0.00  0.00    +0.000 A 
ATOM     18  C   UNL     1       7.764   4.727  12.351  0.00  0.00    +0.000 A 
ATOM     19  C   UNL     1       7.416   5.335  13.562  0.00  0.00    +0.000 A 
ENDBRANCH  13  14
ENDBRANCH  12  13
ENDBRANCH   9  12
ENDBRANCH   7   8
ENDBRANCH   1   7
BRANCH   1  20
ATOM     20  O   UNL     1       3.036   5.387  19.017  0.00  0.00    +0.000 OA
BRANCH  20  21
ATOM     21  C   UNL     1       2.515   6.127  20.124  0.00  0.00    +0.000 C 
BRANCH  21  22
ATOM     22  C   UNL     1       2.042   7.481  19.671  0.00  0.00    +0.000 A 
ATOM     23  C   UNL     1       1.362   8.325  20.558  0.00  0.00    +0.000 A 
ATOM     24  C   UNL     1       0.954   9.596  20.149  0.00  0.00    +0.000 A 
ATOM     25  C   UNL     1       1.237  10.049  18.860  0.00  0.00    +0.000 A 
ATOM     26  C   UNL     1       1.923   9.218  17.975  0.00  0.00    +0.000 A 
ATOM     27  C   UNL     1       2.327   7.942  18.381  0.00  0.00    +0.000 A 
BRANCH  25  28
ATOM     28  O   UNL     1       0.757  11.294  18.565  0.00  0.00    +0.000 OA
ATOM     29  C   UNL     1      -0.097  11.875  19.543  0.00  0.00    +0.000 C 
ENDBRANCH  25  28
ENDBRANCH  21  22
ENDBRANCH  20  21
ENDBRANCH   1  20
TORSDOF 12
ENDMDL
MODEL 6
REMARK VINA RESULT:      -6.9      2.600      3.976
REMARK  Name = 
REMARK  14 active torsions:
REMARK  status: ('A' for Active; 'I' for Inactive)
REMARK    1  A    between atoms: C_1  and  O_2
REMARK    2  A    between atoms: O_2  and  C_3
REMARK    3  A    between atoms: C_3  and  C_5
REMARK    4  A    between atoms: C_5  and  C_6
REMARK    5  A    between atoms: C_6  and  C_7
REMARK    6  A    between atoms: C_6  and  O_19
REMARK    7  A    between atoms: C_7  and  N_8
REMARK    8  A    between atoms: C_9  and  O_11
REMARK    9  A    between atoms: O_11  and  C_12
REMARK   10  A    between atoms: C_12  and  C_13
REMARK   11  A    between atoms: O_19  and  C_20
REMARK   12  A    between atoms: C_20  and  C_21
REMARK   13  A    between atoms: C_24  and  O_25
REMARK   14  A    between atoms: O_25  and  C_26
REMARK                            x       y       z     vdW  Elec       q    Type
REMARK                         _______ _______ _______ _____ _____    ______ ____
ROOT
ATOM      1  C   UNL     1       4.349   4.901  19.444  0.00  0.00    +0.000 C 
ENDROOT
BRANCH   1   2
ATOM      2  C   UNL     1       3.972   3.614  18.706  0.00  0.00    +0.000 C 
BRANCH   2   3
ATOM      3  C   UNL     1       3.856   2.449  19.638  0.00  0.00    +0.000 C 
ATOM      4  O   UNL     1       4.805   1.922  20.212  0.00  0.00    +0.000 OA
BRANCH   3   6
ATOM      5  C   UNL     1       1.716   2.480  18.704  0.00  0.00    +0.000 C 
ATOM      6  O   UNL     1       2.545   2.126  19.808  0.00  0.00    +0.000 OA
ENDBRANCH   3   6
ENDBRANCH   2   3
ENDBRANCH   1   2
BRANCH   1   7
ATOM      7  C   UNL     1       5.830   5.298  19.230  0.00  0.00    +0.000 C 
BRANCH   7   8
ATOM      8  N   UNL     1       6.163   5.427  17.822  0.00  0.00    +0.000 N 
ATOM      9  C   UNL     1       6.849   6.480  17.301  0.00  0.00    +0.000 C 
ATOM     10  O   UNL     1       7.143   7.496  17.914  0.00  0.00    +0.000 OA
ATOM     11  H   UNL     1       6.024   4.629  17.217  0.00  0.00    +0.000 HD
BRANCH   9  12
ATOM     12  O   UNL     1       7.152   6.218  16.010  0.00  0.00    +0.000 OA
BRANCH  12  13
ATOM     13  C   UNL     1       7.360   4.837  15.693  0.00  0.00    +0.000 C 
BRANCH  13  14
ATOM     14  C   UNL     1       6.761   4.446  14.364  0.00  0.00    +0.000 A 
ATOM     15  C   UNL     1       7.509   4.584  13.184  0.00  0.00    +0.000 A 
ATOM     16  C   UNL     1       6.994   4.156  11.958  0.00  0.00    +0.000 A 
ATOM     17  C   UNL     1       5.725   3.585  11.897  0.00  0.00    +0.000 A 
ATOM     18  C   UNL     1       4.972   3.440  13.061  0.00  0.00    +0.000 A 
ATOM     19  C   UNL     1       5.486   3.869  14.289  0.00  0.00    +0.000 A 
ENDBRANCH  13  14
ENDBRANCH  12  13
ENDBRANCH   9  12
ENDBRANCH   7   8
ENDBRANCH   1   7
BRANCH   1  20
ATOM     20  O   UNL     1       3.527   6.001  18.988  0.00  0.00    +0.000 OA
BRANCH  20  21
ATOM     21  C   UNL     1       2.513   6.370  19.925  0.00  0.00    +0.000 C 
BRANCH  21  22
ATOM     22  C   UNL     1       1.987   7.744  19.612  0.00  0.00    +0.000 A 
ATOM     23  C   UNL     1       2.196   8.311  18.348  0.00  0.00    +0.000 A 
ATOM     24  C   UNL     1       1.679   9.571  18.046  0.00  0.00    +0.000 A 
ATOM     25  C   UNL     1       0.930  10.273  18.990  0.00  0.00    +0.000 A 
ATOM     26  C   UNL     1       0.710   9.712  20.248  0.00  0.00    +0.000 A 
ATOM     27  C   UNL     1       1.233   8.452  20.555  0.00  0.00    +0.000 A 
BRANCH  25  28
ATOM     28  O   UNL     1       0.507  11.510  18.591  0.00  0.00    +0.000 OA
ATOM     29  C   UNL     1      -0.902  11.696  18.545  0.00  0.00    +0.000 C 
ENDBRANCH  25  28
ENDBRANCH  21  22
ENDBRANCH  20  21
ENDBRANCH   1  20
TORSDOF 12
ENDMDL
MODEL 7
REMARK VINA RESULT:      -6.9      2.333      3.280
REMARK  Name = 
REMARK  14 active torsions:
REMARK  status: ('A' for Active; 'I' for Inactive)
REMARK    1  A    between atoms: C_1  and  O_2
REMARK    2  A    between atoms: O_2  and  C_3
REMARK    3  A    between atoms: C_3  and  C_5
REMARK    4  A    between atoms: C_5  and  C_6
REMARK    5  A    between atoms: C_6  and  C_7
REMARK    6  A    between atoms: C_6  and  O_19
REMARK    7  A    between atoms: C_7  and  N_8
REMARK    8  A    between atoms: C_9  and  O_11
REMARK    9  A    between atoms: O_11  and  C_12
REMARK   10  A    between atoms: C_12  and  C_13
REMARK   11  A    between atoms: O_19  and  C_20
REMARK   12  A    between atoms: C_20  and  C_21
REMARK   13  A    between atoms: C_24  and  O_25
REMARK   14  A    between atoms: O_25  and  C_26
REMARK                            x       y       z     vdW  Elec       q    Type
REMARK                         _______ _______ _______ _____ _____    ______ ____
ROOT
ATOM      1  C   UNL     1       2.479   5.246  18.914  0.00  0.00    +0.000 C 
ENDROOT
BRANCH   1   2
ATOM      2  C   UNL     1       2.067   3.939  18.231  0.00  0.00    +0.000 C 
BRANCH   2   3
ATOM      3  C   UNL     1       1.672   2.891  19.224  0.00  0.00    +0.000 C 
ATOM      4  O   UNL     1       0.713   2.983  19.985  0.00  0.00    +0.000 OA
BRANCH   3   6
ATOM      5  C   UNL     1       3.342   1.862  17.957  0.00  0.00    +0.000 C 
ATOM      6  O   UNL     1       2.482   1.806  19.093  0.00  0.00    +0.000 OA
ENDBRANCH   3   6
ENDBRANCH   2   3
ENDBRANCH   1   2
BRANCH   1   7
ATOM      7  C   UNL     1       3.987   5.286  19.263  0.00  0.00    +0.000 C 
BRANCH   7   8
ATOM      8  N   UNL     1       4.825   5.150  18.084  0.00  0.00    +0.000 N 
ATOM      9  C   UNL     1       6.083   4.633  18.107  0.00  0.00    +0.000 C 
ATOM     10  O   UNL     1       6.707   4.352  19.120  0.00  0.00    +0.000 OA
ATOM     11  H   UNL     1       4.409   5.296  17.175  0.00  0.00    +0.000 HD
BRANCH   9  12
ATOM     12  O   UNL     1       6.524   4.479  16.838  0.00  0.00    +0.000 OA
BRANCH  12  13
ATOM     13  C   UNL     1       5.502   4.375  15.840  0.00  0.00    +0.000 C 
BRANCH  13  14
ATOM     14  C   UNL     1       6.058   4.346  14.436  0.00  0.00    +0.000 A 
ATOM     15  C   UNL     1       7.168   5.137  14.099  0.00  0.00    +0.000 A 
ATOM     16  C   UNL     1       7.739   5.062  12.826  0.00  0.00    +0.000 A 
ATOM     17  C   UNL     1       7.205   4.196  11.875  0.00  0.00    +0.000 A 
ATOM     18  C   UNL     1       6.104   3.404  12.195  0.00  0.00    +0.000 A 
ATOM     19  C   UNL     1       5.532   3.478  13.470  0.00  0.00    +0.000 A 
ENDBRANCH  13  14
ENDBRANCH  12  13
ENDBRANCH   9  12
ENDBRANCH   7   8
ENDBRANCH   1   7
BRANCH   1  20
ATOM     20  O   UNL     1       2.197   6.373  18.053  0.00  0.00    +0.000 OA
BRANCH  20  21
ATOM     21  C   UNL     1       2.772   7.595  18.520  0.00  0.00    +0.000 C 
BRANCH  21  22
ATOM     22  C   UNL     1       1.692   8.561  18.925  0.00  0.00    +0.000 A 
ATOM     23  C   UNL     1       1.234   8.595  20.247  0.00  0.00    +0.000 A 
ATOM     24  C   UNL     1       0.257   9.515  20.631  0.00  0.00    +0.000 A 
ATOM     25  C   UNL     1      -0.259  10.425  19.709  0.00  0.00    +0.000 A 
ATOM     26  C   UNL     1       0.200  10.403  18.392  0.00  0.00    +0.000 A 
ATOM     27  C   UNL     1       1.174   9.478  18.004  0.00  0.00    +0.000 A 
BRANCH  25  28
ATOM     28  O   UNL     1      -1.235  11.252  20.193  0.00  0.00    +0.000 OA
ATOM     29  C   UNL     1      -2.199  11.691  19.245  0.00  0.00    +0.000 C 
ENDBRANCH  25  28
ENDBRANCH  21  22
ENDBRANCH  20  21
ENDBRANCH   1  20
TORSDOF 12
ENDMDL
MODEL 8
REMARK VINA RESULT:      -6.9      3.226      6.133
REMARK  Name = 
REMARK  14 active torsions:
REMARK  status: ('A' for Active; 'I' for Inactive)
REMARK    1  A    between atoms: C_1  and  O_2
REMARK    2  A    between atoms: O_2  and  C_3
REMARK    3  A    between atoms: C_3  and  C_5
REMARK    4  A    between atoms: C_5  and  C_6
REMARK    5  A    between atoms: C_6  and  C_7
REMARK    6  A    between atoms: C_6  and  O_19
REMARK    7  A    between atoms: C_7  and  N_8
REMARK    8  A    between atoms: C_9  and  O_11
REMARK    9  A    between atoms: O_11  and  C_12
REMARK   10  A    between atoms: C_12  and  C_13
REMARK   11  A    between atoms: O_19  and  C_20
REMARK   12  A    between atoms: C_20  and  C_21
REMARK   13  A    between atoms: C_24  and  O_25
REMARK   14  A    between atoms: O_25  and  C_26
REMARK                            x       y       z     vdW  Elec       q    Type
REMARK                         _______ _______ _______ _____ _____    ______ ____
ROOT
ATOM      1  C   UNL     1       0.702  10.623  20.242  0.00  0.00    +0.000 C 
ENDROOT
BRANCH   1   2
ATOM      2  C   UNL     1      -0.143   9.876  21.278  0.00  0.00    +0.000 C 
BRANCH   2   3
ATOM      3  C   UNL     1       0.575   9.729  22.583  0.00  0.00    +0.000 C 
ATOM      4  O   UNL     1       1.734   9.337  22.697  0.00  0.00    +0.000 OA
BRANCH   3   6
ATOM      5  C   UNL     1      -1.340  10.934  23.161  0.00  0.00    +0.000 C 
ATOM      6  O   UNL     1      -0.219  10.169  23.596  0.00  0.00    +0.000 OA
ENDBRANCH   3   6
ENDBRANCH   2   3
ENDBRANCH   1   2
BRANCH   1   7
ATOM      7  C   UNL     1       0.846   9.838  18.916  0.00  0.00    +0.000 C 
BRANCH   7   8
ATOM      8  N   UNL     1       1.585   8.600  19.089  0.00  0.00    +0.000 N 
ATOM      9  C   UNL     1       2.481   8.122  18.184  0.00  0.00    +0.000 C 
ATOM     10  O   UNL     1       2.670   8.590  17.070  0.00  0.00    +0.000 OA
ATOM     11  H   UNL     1       1.561   8.144  19.991  0.00  0.00    +0.000 HD
BRANCH   9  12
ATOM     12  O   UNL     1       3.124   7.057  18.714  0.00  0.00    +0.000 OA
BRANCH  12  13
ATOM     13  C   UNL     1       2.821   5.792  18.113  0.00  0.00    +0.000 C 
BRANCH  13  14
ATOM     14  C   UNL     1       2.217   4.812  19.090  0.00  0.00    +0.000 A 
ATOM     15  C   UNL     1       1.393   3.773  18.629  0.00  0.00    +0.000 A 
ATOM     16  C   UNL     1       0.890   2.815  19.513  0.00  0.00    +0.000 A 
ATOM     17  C   UNL     1       1.204   2.886  20.868  0.00  0.00    +0.000 A 
ATOM     18  C   UNL     1       2.021   3.911  21.340  0.00  0.00    +0.000 A 
ATOM     19  C   UNL     1       2.526   4.871  20.455  0.00  0.00    +0.000 A 
ENDBRANCH  13  14
ENDBRANCH  12  13
ENDBRANCH   9  12
ENDBRANCH   7   8
ENDBRANCH   1   7
BRANCH   1  20
ATOM     20  O   UNL     1       0.103  11.903  19.935  0.00  0.00    +0.000 OA
BRANCH  20  21
ATOM     21  C   UNL     1      -0.465  11.957  18.624  0.00  0.00    +0.000 C 
BRANCH  21  22
ATOM     22  C   UNL     1      -1.967  11.998  18.707  0.00  0.00    +0.000 A 
ATOM     23  C   UNL     1      -2.747  11.489  17.661  0.00  0.00    +0.000 A 
ATOM     24  C   UNL     1      -4.139  11.495  17.752  0.00  0.00    +0.000 A 
ATOM     25  C   UNL     1      -4.771  11.987  18.895  0.00  0.00    +0.000 A 
ATOM     26  C   UNL     1      -4.000  12.486  19.945  0.00  0.00    +0.000 A 
ATOM     27  C   UNL     1      -2.605  12.487  19.852  0.00  0.00    +0.000 A 
BRANCH  25  28
ATOM     28  O   UNL     1      -6.137  11.972  18.854  0.00  0.00    +0.000 OA
ATOM     29  C   UNL     1      -6.734  10.705  18.608  0.00  0.00    +0.000 C 
ENDBRANCH  25  28
ENDBRANCH  21  22
ENDBRANCH  20  21
ENDBRANCH   1  20
TORSDOF 12
ENDMDL
MODEL 9
REMARK VINA RESULT:      -6.9      2.102      5.273
REMARK  Name = 
REMARK  14 active torsions:
REMARK  status: ('A' for Active; 'I' for Inactive)
REMARK    1  A    between atoms: C_1  and  O_2
REMARK    2  A    between atoms: O_2  and  C_3
REMARK    3  A    between atoms: C_3  and  C_5
REMARK    4  A    between atoms: C_5  and  C_6
REMARK    5  A    between atoms: C_6  and  C_7
REMARK    6  A    between atoms: C_6  and  O_19
REMARK    7  A    between atoms: C_7  and  N_8
REMARK    8  A    between atoms: C_9  and  O_11
REMARK    9  A    between atoms: O_11  and  C_12
REMARK   10  A    between atoms: C_12  and  C_13
REMARK   11  A    between atoms: O_19  and  C_20
REMARK   12  A    between atoms: C_20  and  C_21
REMARK   13  A    between atoms: C_24  and  O_25
REMARK   14  A    between atoms: O_25  and  C_26
REMARK                            x       y       z     vdW  Elec       q    Type
REMARK                         _______ _______ _______ _____ _____    ______ ____
ROOT
ATOM      1  C   UNL     1       4.960   6.195  16.846  0.00  0.00    +0.000 C 
ENDROOT
BRANCH   1   2
ATOM      2  C   UNL     1       5.432   6.504  15.423  0.00  0.00    +0.000 C 
BRANCH   2   3
ATOM      3  C   UNL     1       6.330   5.433  14.887  0.00  0.00    +0.000 C 
ATOM      4  O   UNL     1       7.557   5.487  14.895  0.00  0.00    +0.000 OA
BRANCH   3   6
ATOM      5  C   UNL     1       6.083   3.737  13.300  0.00  0.00    +0.000 C 
ATOM      6  O   UNL     1       5.583   4.373  14.474  0.00  0.00    +0.000 OA
ENDBRANCH   3   6
ENDBRANCH   2   3
ENDBRANCH   1   2
BRANCH   1   7
ATOM      7  C   UNL     1       6.133   6.077  17.849  0.00  0.00    +0.000 C 
BRANCH   7   8
ATOM      8  N   UNL     1       5.853   5.126  18.910  0.00  0.00    +0.000 N 
ATOM      9  C   UNL     1       5.351   3.880  18.695  0.00  0.00    +0.000 C 
ATOM     10  O   UNL     1       4.949   3.463  17.618  0.00  0.00    +0.000 OA
ATOM     11  H   UNL     1       6.190   5.327  19.842  0.00  0.00    +0.000 HD
BRANCH   9  12
ATOM     12  O   UNL     1       5.372   3.185  19.855  0.00  0.00    +0.000 OA
BRANCH  12  13
ATOM     13  C   UNL     1       4.397   2.141  19.965  0.00  0.00    +0.000 C 
BRANCH  13  14
ATOM     14  C   UNL     1       2.980   2.658  19.905  0.00  0.00    +0.000 A 
ATOM     15  C   UNL     1       2.018   1.994  19.128  0.00  0.00    +0.000 A 
ATOM     16  C   UNL     1       0.687   2.417  19.124  0.00  0.00    +0.000 A 
ATOM     17  C   UNL     1       0.302   3.510  19.897  0.00  0.00    +0.000 A 
ATOM     18  C   UNL     1       1.245   4.178  20.675  0.00  0.00    +0.000 A 
ATOM     19  C   UNL     1       2.579   3.755  20.680  0.00  0.00    +0.000 A 
ENDBRANCH  13  14
ENDBRANCH  12  13
ENDBRANCH   9  12
ENDBRANCH   7   8
ENDBRANCH   1   7
BRANCH   1  20
ATOM     20  O   UNL     1       4.078   7.238  17.320  0.00  0.00    +0.000 OA
BRANCH  20  21
ATOM     21  C   UNL     1       2.941   6.736  18.026  0.00  0.00    +0.000 C 
BRANCH  21  22
ATOM     22  C   UNL     1       2.151   7.869  18.619  0.00  0.00    +0.000 A 
ATOM     23  C   UNL     1       1.849   7.882  19.987  0.00  0.00    +0.000 A 
ATOM     24  C   UNL     1       1.146   8.951  20.544  0.00  0.00    +0.000 A 
ATOM     25  C   UNL     1       0.753  10.029  19.750  0.00  0.00    +0.000 A 
ATOM     26  C   UNL     1       1.058  10.028  18.389  0.00  0.00    +0.000 A 
ATOM     27  C   UNL     1       1.757   8.955  17.828  0.00  0.00    +0.000 A 
BRANCH  25  28
ATOM     28  O   UNL     1       0.041  10.998  20.401  0.00  0.00    +0.000 OA
ATOM     29  C   UNL     1       0.805  12.066  20.945  0.00  0.00    +0.000 C 
ENDBRANCH  25  28
ENDBRANCH  21  22
ENDBRANCH  20  21
ENDBRANCH   1  20
TORSDOF 12
ENDMDL
