MODEL 1
REMARK VINA RESULT:      -7.0      0.000      0.000
REMARK  Name = 
REMARK  6 active torsions:
REMARK  status: ('A' for Active; 'I' for Inactive)
REMARK    1  A    between atoms: C_1  and  O_2
REMARK    2  A    between atoms: O_2  and  C_3
REMARK    3  A    between atoms: N_5  and  C_6
REMARK    4  A    between atoms: C_6  and  C_7
REMARK    5  A    between atoms: C_6  and  C_8
REMARK    6  A    between atoms: C_10  and  C_11
REMARK                            x       y       z     vdW  Elec       q    Type
REMARK                         _______ _______ _______ _____ _____    ______ ____
ROOT
ATOM      1  C   UNL     1       5.424   4.706  17.360  0.00  0.00    +0.000 A 
ATOM      2  N   UNL     1       4.194   4.457  17.748  0.00  0.00    +0.000 NA
ATOM      3  C   UNL     1       4.376   3.948  19.021  0.00  0.00    +0.000 A 
ATOM      4  N   UNL     1       5.669   3.872  19.389  0.00  0.00    +0.000 NA
ATOM      5  O   UNL     1       6.362   4.370  18.290  0.00  0.00    +0.000 OA
ENDROOT
BRANCH   3   6
ATOM      6  C   UNL     1       3.267   3.556  19.884  0.00  0.00    +0.000 A 
ATOM      7  C   UNL     1       1.954   3.903  19.591  0.00  0.00    +0.000 A 
ATOM      8  C   UNL     1       0.946   3.510  20.464  0.00  0.00    +0.000 A 
ATOM      9  C   UNL     1       1.301   2.787  21.584  0.00  0.00    +0.000 A 
ATOM     10  N   UNL     1       2.576   2.446  21.849  0.00  0.00    +0.000 NA
ATOM     11  N   UNL     1       3.569   2.835  20.989  0.00  0.00    +0.000 NA
ENDBRANCH   3   6
BRANCH   1  12
ATOM     12  C   UNL     1       5.920   5.374  16.125  0.00  0.00    +0.000 C 
ATOM     13  C   UNL     1       5.043   6.585  15.817  0.00  0.00    +0.000 C 
BRANCH  12  16
ATOM     14  C   UNL     1       6.744   4.522  13.970  0.00  0.00    +0.000 C 
ATOM     15  O   UNL     1       7.607   5.380  13.843  0.00  0.00    +0.000 OA
ATOM     16  N   UNL     1       5.902   4.425  15.029  0.00  0.00    +0.000 N 
ATOM     17  H   UNL     1       5.195   3.698  15.004  0.00  0.00    +0.000 HD
BRANCH  14  19
ATOM     18  C   UNL     1       5.201   3.636  12.464  0.00  0.00    +0.000 C 
ATOM     19  O   UNL     1       6.483   3.532  13.086  0.00  0.00    +0.000 OA
ENDBRANCH  14  19
ENDBRANCH  12  16
ENDBRANCH   1  12
TORSDOF 4
ENDMDL
MODEL 2
REMARK VINA RESULT:      -7.0      2.523      6.952
REMARK  Name = 
REMARK  6 active torsions:
REMARK  status: ('A' for Active; 'I' for Inactive)
REMARK    1  A    between atoms: C_1  and  O_2
REMARK    2  A    between atoms: O_2  and  C_3
REMARK    3  A    between atoms: N_5  and  C_6
REMARK    4  A    between atoms: C_6  and  C_7
REMARK    5  A    between atoms: C_6  and  C_8
REMARK    6  A    between atoms: C_10  and  C_11
REMARK                            x       y       z     vdW  Elec       q    Type
REMARK                         _______ _______ _______ _____ _____    ______ ____
ROOT
ATOM      1  C   UNL     1       5.335   4.119  18.220  0.00  0.00    +0.000 A 
ATOM      2  N   UNL     1       5.181   4.179  16.916  0.00  0.00    +0.000 NA
ATOM      3  C   UNL     1       6.461   4.462  16.475  0.00  0.00    +0.000 A 
ATOM      4  N   UNL     1       7.358   4.587  17.471  0.00  0.00    +0.000 NA
ATOM      5  O   UNL     1       6.613   4.364  18.625  0.00  0.00    +0.000 OA
ENDROOT
BRANCH   3   6
ATOM      6  C   UNL     1       6.803   4.586  15.062  0.00  0.00    +0.000 A 
ATOM      7  C   UNL     1       6.195   3.801  14.090  0.00  0.00    +0.000 A 
ATOM      8  C   UNL     1       6.577   3.960  12.763  0.00  0.00    +0.000 A 
ATOM      9  C   UNL     1       7.547   4.899  12.474  0.00  0.00    +0.000 A 
ATOM     10  N   UNL     1       8.119   5.662  13.424  0.00  0.00    +0.000 NA
ATOM     11  N   UNL     1       7.743   5.504  14.732  0.00  0.00    +0.000 NA
ENDBRANCH   3   6
BRANCH   1  12
ATOM     12  C   UNL     1       4.361   3.736  19.279  0.00  0.00    +0.000 C 
ATOM     13  C   UNL     1       3.764   2.370  18.950  0.00  0.00    +0.000 C 
BRANCH  12  16
ATOM     14  C   UNL     1       2.538   4.888  20.460  0.00  0.00    +0.000 C 
ATOM     15  O   UNL     1       2.628   4.210  21.476  0.00  0.00    +0.000 OA
ATOM     16  N   UNL     1       3.328   4.750  19.368  0.00  0.00    +0.000 N 
ATOM     17  H   UNL     1       3.131   5.338  18.566  0.00  0.00    +0.000 HD
BRANCH  14  19
ATOM     18  C   UNL     1       2.237   7.121  19.862  0.00  0.00    +0.000 C 
ATOM     19  O   UNL     1       1.643   5.882  20.256  0.00  0.00    +0.000 OA
ENDBRANCH  14  19
ENDBRANCH  12  16
ENDBRANCH   1  12
TORSDOF 4
ENDMDL
MODEL 3
REMARK VINA RESULT:      -6.9      1.748      1.993
REMARK  Name = 
REMARK  6 active torsions:
REMARK  status: ('A' for Active; 'I' for Inactive)
REMARK    1  A    between atoms: C_1  and  O_2
REMARK    2  A    between atoms: O_2  and  C_3
REMARK    3  A    between atoms: N_5  and  C_6
REMARK    4  A    between atoms: C_6  and  C_7
REMARK    5  A    between atoms: C_6  and  C_8
REMARK    6  A    between atoms: C_10  and  C_11
REMARK                            x       y       z     vdW  Elec       q    Type
REMARK                         _______ _______ _______ _____ _____    ______ ____
ROOT
ATOM      1  C   UNL     1       5.890   6.085  17.905  0.00  0.00    +0.000 A 
ATOM      2  N   UNL     1       5.472   5.185  18.767  0.00  0.00    +0.000 NA
ATOM      3  C   UNL     1       4.104   5.391  18.777  0.00  0.00    +0.000 A 
ATOM      4  N   UNL     1       3.704   6.389  17.966  0.00  0.00    +0.000 NA
ATOM      5  O   UNL     1       4.886   6.849  17.392  0.00  0.00    +0.000 OA
ENDROOT
BRANCH   3   6
ATOM      6  C   UNL     1       3.187   4.583  19.574  0.00  0.00    +0.000 A 
ATOM      7  C   UNL     1       1.878   4.982  19.813  0.00  0.00    +0.000 A 
ATOM      8  C   UNL     1       1.061   4.172  20.592  0.00  0.00    +0.000 A 
ATOM      9  C   UNL     1       1.594   3.000  21.092  0.00  0.00    +0.000 A 
ATOM     10  N   UNL     1       2.860   2.618  20.841  0.00  0.00    +0.000 NA
ATOM     11  N   UNL     1       3.665   3.419  20.074  0.00  0.00    +0.000 NA
ENDBRANCH   3   6
BRANCH   1  12
ATOM     12  C   UNL     1       7.253   6.316  17.351  0.00  0.00    +0.000 C 
ATOM     13  C   UNL     1       7.714   7.726  17.710  0.00  0.00    +0.000 C 
BRANCH  12  16
ATOM     14  C   UNL     1       7.043   4.910  15.345  0.00  0.00    +0.000 C 
ATOM     15  O   UNL     1       6.860   3.870  15.965  0.00  0.00    +0.000 OA
ATOM     16  N   UNL     1       7.223   6.127  15.914  0.00  0.00    +0.000 N 
ATOM     17  H   UNL     1       7.411   6.911  15.299  0.00  0.00    +0.000 HD
BRANCH  14  19
ATOM     18  C   UNL     1       6.392   3.988  13.305  0.00  0.00    +0.000 C 
ATOM     19  O   UNL     1       7.095   5.022  13.997  0.00  0.00    +0.000 OA
ENDBRANCH  14  19
ENDBRANCH  12  16
ENDBRANCH   1  12
TORSDOF 4
ENDMDL
MODEL 4
REMARK VINA RESULT:      -6.8      2.443      6.780
REMARK  Name = 
REMARK  6 active torsions:
REMARK  status: ('A' for Active; 'I' for Inactive)
REMARK    1  A    between atoms: C_1  and  O_2
REMARK    2  A    between atoms: O_2  and  C_3
REMARK    3  A    between atoms: N_5  and  C_6
REMARK    4  A    between atoms: C_6  and  C_7
REMARK    5  A    between atoms: C_6  and  C_8
REMARK    6  A    between atoms: C_10  and  C_11
REMARK                            x       y       z     vdW  Elec       q    Type
REMARK                         _______ _______ _______ _____ _____    ______ ____
ROOT
ATOM      1  C   UNL     1       5.393   4.103  18.566  0.00  0.00    +0.000 A 
ATOM      2  N   UNL     1       5.205   4.070  17.266  0.00  0.00    +0.000 NA
ATOM      3  C   UNL     1       6.435   4.469  16.775  0.00  0.00    +0.000 A 
ATOM      4  N   UNL     1       7.333   4.752  17.737  0.00  0.00    +0.000 NA
ATOM      5  O   UNL     1       6.643   4.514  18.921  0.00  0.00    +0.000 OA
ENDROOT
BRANCH   3   6
ATOM      6  C   UNL     1       6.729   4.548  15.348  0.00  0.00    +0.000 A 
ATOM      7  C   UNL     1       6.079   3.744  14.420  0.00  0.00    +0.000 A 
ATOM      8  C   UNL     1       6.417   3.861  13.077  0.00  0.00    +0.000 A 
ATOM      9  C   UNL     1       7.388   4.778  12.728  0.00  0.00    +0.000 A 
ATOM     10  N   UNL     1       8.002   5.560  13.636  0.00  0.00    +0.000 NA
ATOM     11  N   UNL     1       7.668   5.444  14.960  0.00  0.00    +0.000 NA
ENDBRANCH   3   6
BRANCH   1  12
ATOM     12  C   UNL     1       4.492   3.675  19.673  0.00  0.00    +0.000 C 
ATOM     13  C   UNL     1       4.866   2.262  20.113  0.00  0.00    +0.000 C 
BRANCH  12  16
ATOM     14  C   UNL     1       2.072   3.832  20.077  0.00  0.00    +0.000 C 
ATOM     15  O   UNL     1       2.175   3.912  21.294  0.00  0.00    +0.000 OA
ATOM     16  N   UNL     1       3.117   3.734  19.218  0.00  0.00    +0.000 N 
ATOM     17  H   UNL     1       2.908   3.628  18.232  0.00  0.00    +0.000 HD
BRANCH  14  19
ATOM     18  C   UNL     1       0.608   2.577  18.766  0.00  0.00    +0.000 C 
ATOM     19  O   UNL     1       0.909   3.830  19.385  0.00  0.00    +0.000 OA
ENDBRANCH  14  19
ENDBRANCH  12  16
ENDBRANCH   1  12
TORSDOF 4
ENDMDL
MODEL 5
REMARK VINA RESULT:      -6.8      1.959      2.218
REMARK  Name = 
REMARK  6 active torsions:
REMARK  status: ('A' for Active; 'I' for Inactive)
REMARK    1  A    between atoms: C_1  and  O_2
REMARK    2  A    between atoms: O_2  and  C_3
REMARK    3  A    between atoms: N_5  and  C_6
REMARK    4  A    between atoms: C_6  and  C_7
REMARK    5  A    between atoms: C_6  and  C_8
REMARK    6  A    between atoms: C_10  and  C_11
REMARK                            x       y       z     vdW  Elec       q    Type
REMARK                         _______ _______ _______ _____ _____    ______ ____
ROOT
ATOM      1  C   UNL     1       5.782   6.091  17.745  0.00  0.00    +0.000 A 
ATOM      2  N   UNL     1       5.197   5.139  18.437  0.00  0.00    +0.000 NA
ATOM      3  C   UNL     1       3.866   5.514  18.398  0.00  0.00    +0.000 A 
ATOM      4  N   UNL     1       3.649   6.659  17.724  0.00  0.00    +0.000 NA
ATOM      5  O   UNL     1       4.916   7.042  17.295  0.00  0.00    +0.000 OA
ENDROOT
BRANCH   3   6
ATOM      6  C   UNL     1       2.803   4.724  19.010  0.00  0.00    +0.000 A 
ATOM      7  C   UNL     1       2.107   3.756  18.297  0.00  0.00    +0.000 A 
ATOM      8  C   UNL     1       1.095   3.050  18.937  0.00  0.00    +0.000 A 
ATOM      9  C   UNL     1       0.832   3.344  20.260  0.00  0.00    +0.000 A 
ATOM     10  N   UNL     1       1.523   4.276  20.943  0.00  0.00    +0.000 NA
ATOM     11  N   UNL     1       2.520   4.973  20.311  0.00  0.00    +0.000 NA
ENDBRANCH   3   6
BRANCH   1  12
ATOM     12  C   UNL     1       7.201   6.222  17.312  0.00  0.00    +0.000 C 
ATOM     13  C   UNL     1       7.746   7.575  17.763  0.00  0.00    +0.000 C 
BRANCH  12  16
ATOM     14  C   UNL     1       7.030   4.911  15.238  0.00  0.00    +0.000 C 
ATOM     15  O   UNL     1       6.698   3.875  15.798  0.00  0.00    +0.000 OA
ATOM     16  N   UNL     1       7.275   6.085  15.870  0.00  0.00    +0.000 N 
ATOM     17  H   UNL     1       7.588   6.868  15.306  0.00  0.00    +0.000 HD
BRANCH  14  19
ATOM     18  C   UNL     1       6.639   4.008  13.125  0.00  0.00    +0.000 C 
ATOM     19  O   UNL     1       7.206   5.063  13.905  0.00  0.00    +0.000 OA
ENDBRANCH  14  19
ENDBRANCH  12  16
ENDBRANCH   1  12
TORSDOF 4
ENDMDL
MODEL 6
REMARK VINA RESULT:      -6.7      2.681      6.631
REMARK  Name = 
REMARK  6 active torsions:
REMARK  status: ('A' for Active; 'I' for Inactive)
REMARK    1  A    between atoms: C_1  and  O_2
REMARK    2  A    between atoms: O_2  and  C_3
REMARK    3  A    between atoms: N_5  and  C_6
REMARK    4  A    between atoms: C_6  and  C_7
REMARK    5  A    between atoms: C_6  and  C_8
REMARK    6  A    between atoms: C_10  and  C_11
REMARK                            x       y       z     vdW  Elec       q    Type
REMARK                         _______ _______ _______ _____ _____    ______ ____
ROOT
ATOM      1  C   UNL     1       3.505   5.553  18.610  0.00  0.00    +0.000 A 
ATOM      2  N   UNL     1       3.773   5.550  17.324  0.00  0.00    +0.000 NA
ATOM      3  C   UNL     1       5.104   5.174  17.295  0.00  0.00    +0.000 A 
ATOM      4  N   UNL     1       5.632   4.972  18.517  0.00  0.00    +0.000 NA
ATOM      5  O   UNL     1       4.576   5.227  19.386  0.00  0.00    +0.000 OA
ENDROOT
BRANCH   3   6
ATOM      6  C   UNL     1       5.849   4.991  16.054  0.00  0.00    +0.000 A 
ATOM      7  C   UNL     1       5.413   4.124  15.059  0.00  0.00    +0.000 A 
ATOM      8  C   UNL     1       6.178   3.986  13.907  0.00  0.00    +0.000 A 
ATOM      9  C   UNL     1       7.340   4.724  13.806  0.00  0.00    +0.000 A 
ATOM     10  N   UNL     1       7.744   5.570  14.771  0.00  0.00    +0.000 NA
ATOM     11  N   UNL     1       6.990   5.705  15.908  0.00  0.00    +0.000 NA
ENDBRANCH   3   6
BRANCH   1  12
ATOM     12  C   UNL     1       2.210   5.761  19.315  0.00  0.00    +0.000 C 
ATOM     13  C   UNL     1       2.273   7.056  20.122  0.00  0.00    +0.000 C 
BRANCH  12  16
ATOM     14  C   UNL     1       1.333   3.500  19.725  0.00  0.00    +0.000 C 
ATOM     15  O   UNL     1       0.975   3.316  18.569  0.00  0.00    +0.000 OA
ATOM     16  N   UNL     1       1.945   4.623  20.175  0.00  0.00    +0.000 N 
ATOM     17  H   UNL     1       2.156   4.681  21.165  0.00  0.00    +0.000 HD
BRANCH  14  19
ATOM     18  C   UNL     1       2.091   2.833  21.827  0.00  0.00    +0.000 C 
ATOM     19  O   UNL     1       1.183   2.622  20.744  0.00  0.00    +0.000 OA
ENDBRANCH  14  19
ENDBRANCH  12  16
ENDBRANCH   1  12
TORSDOF 4
ENDMDL
MODEL 7
REMARK VINA RESULT:      -6.6      2.407      7.110
REMARK  Name = 
REMARK  6 active torsions:
REMARK  status: ('A' for Active; 'I' for Inactive)
REMARK    1  A    between atoms: C_1  and  O_2
REMARK    2  A    between atoms: O_2  and  C_3
REMARK    3  A    between atoms: N_5  and  C_6
REMARK    4  A    between atoms: C_6  and  C_7
REMARK    5  A    between atoms: C_6  and  C_8
REMARK    6  A    between atoms: C_10  and  C_11
REMARK                            x       y       z     vdW  Elec       q    Type
REMARK                         _______ _______ _______ _____ _____    ______ ____
ROOT
ATOM      1  C   UNL     1       4.359   3.828  17.571  0.00  0.00    +0.000 A 
ATOM      2  N   UNL     1       4.867   3.456  16.417  0.00  0.00    +0.000 NA
ATOM      3  C   UNL     1       5.503   4.606  15.985  0.00  0.00    +0.000 A 
ATOM      4  N   UNL     1       5.374   5.644  16.833  0.00  0.00    +0.000 NA
ATOM      5  O   UNL     1       4.615   5.130  17.879  0.00  0.00    +0.000 OA
ENDROOT
BRANCH   3   6
ATOM      6  C   UNL     1       6.260   4.671  14.739  0.00  0.00    +0.000 A 
ATOM      7  C   UNL     1       5.913   3.910  13.630  0.00  0.00    +0.000 A 
ATOM      8  C   UNL     1       6.686   4.009  12.480  0.00  0.00    +0.000 A 
ATOM      9  C   UNL     1       7.767   4.868  12.494  0.00  0.00    +0.000 A 
ATOM     10  N   UNL     1       8.085   5.610  13.571  0.00  0.00    +0.000 NA
ATOM     11  N   UNL     1       7.323   5.510  14.706  0.00  0.00    +0.000 NA
ENDBRANCH   3   6
BRANCH   1  12
ATOM     12  C   UNL     1       3.649   3.025  18.605  0.00  0.00    +0.000 C 
ATOM     13  C   UNL     1       2.696   2.047  17.921  0.00  0.00    +0.000 C 
BRANCH  12  16
ATOM     14  C   UNL     1       2.648   3.592  20.778  0.00  0.00    +0.000 C 
ATOM     15  O   UNL     1       2.987   2.550  21.323  0.00  0.00    +0.000 OA
ATOM     16  N   UNL     1       2.930   3.918  19.493  0.00  0.00    +0.000 N 
ATOM     17  H   UNL     1       2.557   4.791  19.135  0.00  0.00    +0.000 HD
BRANCH  14  19
ATOM     18  C   UNL     1       1.801   5.751  20.538  0.00  0.00    +0.000 C 
ATOM     19  O   UNL     1       1.941   4.589  21.359  0.00  0.00    +0.000 OA
ENDBRANCH  14  19
ENDBRANCH  12  16
ENDBRANCH   1  12
TORSDOF 4
ENDMDL
MODEL 8
REMARK VINA RESULT:      -6.6      1.817      2.952
REMARK  Name = 
REMARK  6 active torsions:
REMARK  status: ('A' for Active; 'I' for Inactive)
REMARK    1  A    between atoms: C_1  and  O_2
REMARK    2  A    between atoms: O_2  and  C_3
REMARK    3  A    between atoms: N_5  and  C_6
REMARK    4  A    between atoms: C_6  and  C_7
REMARK    5  A    between atoms: C_6  and  C_8
REMARK    6  A    between atoms: C_10  and  C_11
REMARK                            x       y       z     vdW  Elec       q    Type
REMARK                         _______ _______ _______ _____ _____    ______ ____
ROOT
ATOM      1  C   UNL     1       4.708   4.955  16.714  0.00  0.00    +0.000 A 
ATOM      2  N   UNL     1       3.998   5.124  17.806  0.00  0.00    +0.000 NA
ATOM      3  C   UNL     1       3.691   3.825  18.169  0.00  0.00    +0.000 A 
ATOM      4  N   UNL     1       4.181   2.900  17.322  0.00  0.00    +0.000 NA
ATOM      5  O   UNL     1       4.850   3.648  16.358  0.00  0.00    +0.000 OA
ENDROOT
BRANCH   3   6
ATOM      6  C   UNL     1       2.931   3.496  19.370  0.00  0.00    +0.000 A 
ATOM      7  C   UNL     1       1.587   3.824  19.500  0.00  0.00    +0.000 A 
ATOM      8  C   UNL     1       0.927   3.495  20.677  0.00  0.00    +0.000 A 
ATOM      9  C   UNL     1       1.642   2.849  21.666  0.00  0.00    +0.000 A 
ATOM     10  N   UNL     1       2.941   2.525  21.523  0.00  0.00    +0.000 NA
ATOM     11  N   UNL     1       3.592   2.852  20.362  0.00  0.00    +0.000 NA
ENDBRANCH   3   6
BRANCH   1  12
ATOM     12  C   UNL     1       5.442   5.954  15.888  0.00  0.00    +0.000 C 
ATOM     13  C   UNL     1       6.247   5.230  14.812  0.00  0.00    +0.000 C 
BRANCH  12  16
ATOM     14  C   UNL     1       7.358   6.200  17.410  0.00  0.00    +0.000 C 
ATOM     15  O   UNL     1       7.701   5.027  17.334  0.00  0.00    +0.000 OA
ATOM     16  N   UNL     1       6.307   6.741  16.746  0.00  0.00    +0.000 N 
ATOM     17  H   UNL     1       6.090   7.716  16.922  0.00  0.00    +0.000 HD
BRANCH  14  19
ATOM     18  C   UNL     1       7.800   8.476  17.654  0.00  0.00    +0.000 C 
ATOM     19  O   UNL     1       7.964   7.149  18.160  0.00  0.00    +0.000 OA
ENDBRANCH  14  19
ENDBRANCH  12  16
ENDBRANCH   1  12
TORSDOF 4
ENDMDL
MODEL 9
REMARK VINA RESULT:      -6.6      1.829      2.839
REMARK  Name = 
REMARK  6 active torsions:
REMARK  status: ('A' for Active; 'I' for Inactive)
REMARK    1  A    between atoms: C_1  and  O_2
REMARK    2  A    between atoms: O_2  and  C_3
REMARK    3  A    between atoms: N_5  and  C_6
REMARK    4  A    between atoms: C_6  and  C_7
REMARK    5  A    between atoms: C_6  and  C_8
REMARK    6  A    between atoms: C_10  and  C_11
REMARK                            x       y       z     vdW  Elec       q    Type
REMARK                         _______ _______ _______ _____ _____    ______ ____
ROOT
ATOM      1  C   UNL     1       5.243   4.326  17.242  0.00  0.00    +0.000 A 
ATOM      2  N   UNL     1       4.032   4.070  17.685  0.00  0.00    +0.000 NA
ATOM      3  C   UNL     1       4.268   3.667  18.987  0.00  0.00    +0.000 A 
ATOM      4  N   UNL     1       5.572   3.661  19.321  0.00  0.00    +0.000 NA
ATOM      5  O   UNL     1       6.217   4.093  18.166  0.00  0.00    +0.000 OA
ENDROOT
BRANCH   3   6
ATOM      6  C   UNL     1       3.197   3.309  19.912  0.00  0.00    +0.000 A 
ATOM      7  C   UNL     1       1.862   3.559  19.618  0.00  0.00    +0.000 A 
ATOM      8  C   UNL     1       0.893   3.206  20.549  0.00  0.00    +0.000 A 
ATOM      9  C   UNL     1       1.307   2.617  21.728  0.00  0.00    +0.000 A 
ATOM     10  N   UNL     1       2.603   2.369  21.994  0.00  0.00    +0.000 NA
ATOM     11  N   UNL     1       3.558   2.719  21.076  0.00  0.00    +0.000 NA
ENDBRANCH   3   6
BRANCH   1  12
ATOM     12  C   UNL     1       5.680   4.911  15.945  0.00  0.00    +0.000 C 
ATOM     13  C   UNL     1       6.234   3.804  15.050  0.00  0.00    +0.000 C 
BRANCH  12  16
ATOM     14  C   UNL     1       6.401   7.078  16.858  0.00  0.00    +0.000 C 
ATOM     15  O   UNL     1       5.308   7.358  17.334  0.00  0.00    +0.000 OA
ATOM     16  N   UNL     1       6.682   5.930  16.194  0.00  0.00    +0.000 N 
ATOM     17  H   UNL     1       7.612   5.828  15.803  0.00  0.00    +0.000 HD
BRANCH  14  19
ATOM     18  C   UNL     1       8.175   7.821  18.175  0.00  0.00    +0.000 C 
ATOM     19  O   UNL     1       7.505   7.858  16.913  0.00  0.00    +0.000 OA
ENDBRANCH  14  19
ENDBRANCH  12  16
ENDBRANCH   1  12
TORSDOF 4
ENDMDL
