MODEL 1
REMARK VINA RESULT:      -7.5      0.000      0.000
REMARK  Name = 
REMARK  3 active torsions:
REMARK  status: ('A' for Active; 'I' for Inactive)
REMARK    1  A    between atoms: C_1  and  C_2
REMARK    2  A    between atoms: C_2  and  C_10
REMARK    3  A    between atoms: C_3  and  C_4
REMARK                            x       y       z     vdW  Elec       q    Type
REMARK                         _______ _______ _______ _____ _____    ______ ____
ROOT
ATOM      1  C   UNL     1       4.478   5.156  17.546  0.00  0.00    +0.000 C 
ATOM      2  O   UNL     1       4.960   5.679  18.548  0.00  0.00    +0.000 OA
ATOM      3  N   UNL     1       3.394   4.308  17.548  0.00  0.00    +0.000 N 
ATOM      4  C   UNL     1       2.719   3.933  18.715  0.00  0.00    +0.000 A 
ATOM      5  C   UNL     1       2.510   4.816  19.773  0.00  0.00    +0.000 A 
ATOM      6  C   UNL     1       1.918   4.345  20.944  0.00  0.00    +0.000 A 
ATOM      7  C   UNL     1       1.573   3.005  21.029  0.00  0.00    +0.000 A 
ATOM      8 CL   UNL     1       0.922   2.357  22.478  0.00  0.00    +0.000 Cl
ATOM      9  C   UNL     1       1.778   2.206  19.914  0.00  0.00    +0.000 A 
ATOM     10  N   UNL     1       2.305   2.650  18.744  0.00  0.00    +0.000 NA
ATOM     11  H   UNL     1       3.299   3.647  16.790  0.00  0.00    +0.000 HD
ENDROOT
BRANCH   1  13
ATOM     12  C   UNL     1       5.073   6.710  15.647  0.00  0.00    +0.000 C 
ATOM     13  C   UNL     1       5.164   5.324  16.226  0.00  0.00    +0.000 C 
ATOM     14  C   UNL     1       5.691   4.247  15.606  0.00  0.00    +0.000 C 
BRANCH  14  15
ATOM     15  C   UNL     1       6.269   4.278  14.258  0.00  0.00    +0.000 A 
ATOM     16  C   UNL     1       7.340   5.125  13.954  0.00  0.00    +0.000 A 
ATOM     17  C   UNL     1       7.872   5.149  12.661  0.00  0.00    +0.000 A 
ATOM     18  C   UNL     1       7.335   4.334  11.667  0.00  0.00    +0.000 A 
ATOM     19  C   UNL     1       6.265   3.492  11.961  0.00  0.00    +0.000 A 
ATOM     20  C   UNL     1       5.734   3.465  13.255  0.00  0.00    +0.000 A 
ENDBRANCH  14  15
ENDBRANCH   1  13
TORSDOF 2
ENDMDL
MODEL 2
REMARK VINA RESULT:      -7.5      0.103      1.112
REMARK  Name = 
REMARK  3 active torsions:
REMARK  status: ('A' for Active; 'I' for Inactive)
REMARK    1  A    between atoms: C_1  and  C_2
REMARK    2  A    between atoms: C_2  and  C_10
REMARK    3  A    between atoms: C_3  and  C_4
REMARK                            x       y       z     vdW  Elec       q    Type
REMARK                         _______ _______ _______ _____ _____    ______ ____
ROOT
ATOM      1  C   UNL     1       4.523   5.122  17.633  0.00  0.00    +0.000 C 
ATOM      2  O   UNL     1       5.073   5.557  18.642  0.00  0.00    +0.000 OA
ATOM      3  N   UNL     1       3.383   4.352  17.631  0.00  0.00    +0.000 N 
ATOM      4  C   UNL     1       2.721   3.963  18.801  0.00  0.00    +0.000 A 
ATOM      5  C   UNL     1       2.610   4.801  19.909  0.00  0.00    +0.000 A 
ATOM      6  C   UNL     1       2.024   4.311  21.075  0.00  0.00    +0.000 A 
ATOM      7  C   UNL     1       1.589   2.995  21.106  0.00  0.00    +0.000 A 
ATOM      8 CL   UNL     1       0.941   2.317  22.542  0.00  0.00    +0.000 Cl
ATOM      9  C   UNL     1       1.700   2.244  19.945  0.00  0.00    +0.000 A 
ATOM     10  N   UNL     1       2.219   2.712  18.780  0.00  0.00    +0.000 NA
ATOM     11  H   UNL     1       3.217   3.740  16.844  0.00  0.00    +0.000 HD
ENDROOT
BRANCH   1  13
ATOM     12  C   UNL     1       5.040   6.698  15.729  0.00  0.00    +0.000 C 
ATOM     13  C   UNL     1       5.175   5.312  16.298  0.00  0.00    +0.000 C 
ATOM     14  C   UNL     1       5.714   4.252  15.661  0.00  0.00    +0.000 C 
BRANCH  14  15
ATOM     15  C   UNL     1       6.262   4.302  14.301  0.00  0.00    +0.000 A 
ATOM     16  C   UNL     1       5.723   3.511  13.280  0.00  0.00    +0.000 A 
ATOM     17  C   UNL     1       6.265   3.562  11.992  0.00  0.00    +0.000 A 
ATOM     18  C   UNL     1       7.346   4.397  11.720  0.00  0.00    +0.000 A 
ATOM     19  C   UNL     1       7.890   5.183  12.733  0.00  0.00    +0.000 A 
ATOM     20  C   UNL     1       7.348   5.134  14.020  0.00  0.00    +0.000 A 
ENDBRANCH  14  15
ENDBRANCH   1  13
TORSDOF 2
ENDMDL
MODEL 3
REMARK VINA RESULT:      -7.4      4.140      5.197
REMARK  Name = 
REMARK  3 active torsions:
REMARK  status: ('A' for Active; 'I' for Inactive)
REMARK    1  A    between atoms: C_1  and  C_2
REMARK    2  A    between atoms: C_2  and  C_10
REMARK    3  A    between atoms: C_3  and  C_4
REMARK                            x       y       z     vdW  Elec       q    Type
REMARK                         _______ _______ _______ _____ _____    ______ ____
ROOT
ATOM      1  C   UNL     1       2.134   6.664  19.630  0.00  0.00    +0.000 C 
ATOM      2  O   UNL     1       1.771   6.007  20.603  0.00  0.00    +0.000 OA
ATOM      3  N   UNL     1       1.915   8.013  19.469  0.00  0.00    +0.000 N 
ATOM      4  C   UNL     1       1.233   8.795  20.408  0.00  0.00    +0.000 A 
ATOM      5  C   UNL     1       1.364   8.594  21.781  0.00  0.00    +0.000 A 
ATOM      6  C   UNL     1       0.578   9.345  22.654  0.00  0.00    +0.000 A 
ATOM      7  C   UNL     1      -0.327  10.256  22.129  0.00  0.00    +0.000 A 
ATOM      8 CL   UNL     1      -1.377  11.141  23.156  0.00  0.00    +0.000 Cl
ATOM      9  C   UNL     1      -0.360  10.421  20.753  0.00  0.00    +0.000 A 
ATOM     10  N   UNL     1       0.429   9.741  19.883  0.00  0.00    +0.000 NA
ATOM     11  H   UNL     1       1.893   8.388  18.531  0.00  0.00    +0.000 HD
ENDROOT
BRANCH   1  13
ATOM     12  C   UNL     1       1.904   4.857  17.882  0.00  0.00    +0.000 C 
ATOM     13  C   UNL     1       2.746   5.964  18.456  0.00  0.00    +0.000 C 
ATOM     14  C   UNL     1       4.004   6.270  18.078  0.00  0.00    +0.000 C 
BRANCH  14  15
ATOM     15  C   UNL     1       4.742   5.560  17.028  0.00  0.00    +0.000 A 
ATOM     16  C   UNL     1       5.125   6.212  15.851  0.00  0.00    +0.000 A 
ATOM     17  C   UNL     1       5.818   5.517  14.856  0.00  0.00    +0.000 A 
ATOM     18  C   UNL     1       6.127   4.169  15.028  0.00  0.00    +0.000 A 
ATOM     19  C   UNL     1       5.744   3.512  16.195  0.00  0.00    +0.000 A 
ATOM     20  C   UNL     1       5.053   4.207  17.192  0.00  0.00    +0.000 A 
ENDBRANCH  14  15
ENDBRANCH   1  13
TORSDOF 2
ENDMDL
MODEL 4
REMARK VINA RESULT:      -7.4      4.127      5.231
REMARK  Name = 
REMARK  3 active torsions:
REMARK  status: ('A' for Active; 'I' for Inactive)
REMARK    1  A    between atoms: C_1  and  C_2
REMARK    2  A    between atoms: C_2  and  C_10
REMARK    3  A    between atoms: C_3  and  C_4
REMARK                            x       y       z     vdW  Elec       q    Type
REMARK                         _______ _______ _______ _____ _____    ______ ____
ROOT
ATOM      1  C   UNL     1       2.155   6.647  19.631  0.00  0.00    +0.000 C 
ATOM      2  O   UNL     1       1.813   6.000  20.619  0.00  0.00    +0.000 OA
ATOM      3  N   UNL     1       1.916   7.990  19.451  0.00  0.00    +0.000 N 
ATOM      4  C   UNL     1       1.234   8.777  20.386  0.00  0.00    +0.000 A 
ATOM      5  C   UNL     1       1.383   8.600  21.760  0.00  0.00    +0.000 A 
ATOM      6  C   UNL     1       0.597   9.354  22.631  0.00  0.00    +0.000 A 
ATOM      7  C   UNL     1      -0.326  10.244  22.102  0.00  0.00    +0.000 A 
ATOM      8 CL   UNL     1      -1.376  11.131  23.127  0.00  0.00    +0.000 Cl
ATOM      9  C   UNL     1      -0.377  10.387  20.724  0.00  0.00    +0.000 A 
ATOM     10  N   UNL     1       0.411   9.704  19.855  0.00  0.00    +0.000 NA
ATOM     11  H   UNL     1       1.878   8.349  18.508  0.00  0.00    +0.000 HD
ENDROOT
BRANCH   1  13
ATOM     12  C   UNL     1       1.939   4.798  17.926  0.00  0.00    +0.000 C 
ATOM     13  C   UNL     1       2.763   5.937  18.462  0.00  0.00    +0.000 C 
ATOM     14  C   UNL     1       4.007   6.265  18.054  0.00  0.00    +0.000 C 
BRANCH  14  15
ATOM     15  C   UNL     1       4.744   5.549  17.007  0.00  0.00    +0.000 A 
ATOM     16  C   UNL     1       5.034   4.186  17.134  0.00  0.00    +0.000 A 
ATOM     17  C   UNL     1       5.746   3.523  16.131  0.00  0.00    +0.000 A 
ATOM     18  C   UNL     1       6.176   4.216  15.002  0.00  0.00    +0.000 A 
ATOM     19  C   UNL     1       5.895   5.574  14.870  0.00  0.00    +0.000 A 
ATOM     20  C   UNL     1       5.181   6.238  15.872  0.00  0.00    +0.000 A 
ENDBRANCH  14  15
ENDBRANCH   1  13
TORSDOF 2
ENDMDL
MODEL 5
REMARK VINA RESULT:      -7.2      4.518      5.432
REMARK  Name = 
REMARK  3 active torsions:
REMARK  status: ('A' for Active; 'I' for Inactive)
REMARK    1  A    between atoms: C_1  and  C_2
REMARK    2  A    between atoms: C_2  and  C_10
REMARK    3  A    between atoms: C_3  and  C_4
REMARK                            x       y       z     vdW  Elec       q    Type
REMARK                         _______ _______ _______ _____ _____    ______ ____
ROOT
ATOM      1  C   UNL     1       2.303   8.075  18.523  0.00  0.00    +0.000 C 
ATOM      2  O   UNL     1       2.264   9.158  17.944  0.00  0.00    +0.000 OA
ATOM      3  N   UNL     1       1.696   7.808  19.729  0.00  0.00    +0.000 N 
ATOM      4  C   UNL     1       0.964   8.762  20.444  0.00  0.00    +0.000 A 
ATOM      5  C   UNL     1       0.157   9.708  19.815  0.00  0.00    +0.000 A 
ATOM      6  C   UNL     1      -0.465  10.691  20.585  0.00  0.00    +0.000 A 
ATOM      7  C   UNL     1      -0.244  10.709  21.954  0.00  0.00    +0.000 A 
ATOM      8 CL   UNL     1      -0.914  11.947  22.935  0.00  0.00    +0.000 Cl
ATOM      9  C   UNL     1       0.540   9.705  22.502  0.00  0.00    +0.000 A 
ATOM     10  N   UNL     1       1.115   8.707  21.782  0.00  0.00    +0.000 NA
ATOM     11  H   UNL     1       2.071   7.066  20.302  0.00  0.00    +0.000 HD
ENDROOT
BRANCH   1  13
ATOM     12  C   UNL     1       2.690   5.591  18.300  0.00  0.00    +0.000 C 
ATOM     13  C   UNL     1       3.168   6.981  17.979  0.00  0.00    +0.000 C 
ATOM     14  C   UNL     1       4.331   7.289  17.368  0.00  0.00    +0.000 C 
BRANCH  14  15
ATOM     15  C   UNL     1       5.310   6.295  16.915  0.00  0.00    +0.000 A 
ATOM     16  C   UNL     1       6.289   5.802  17.784  0.00  0.00    +0.000 A 
ATOM     17  C   UNL     1       7.221   4.863  17.332  0.00  0.00    +0.000 A 
ATOM     18  C   UNL     1       7.183   4.416  16.013  0.00  0.00    +0.000 A 
ATOM     19  C   UNL     1       6.214   4.907  15.141  0.00  0.00    +0.000 A 
ATOM     20  C   UNL     1       5.280   5.844  15.593  0.00  0.00    +0.000 A 
ENDBRANCH  14  15
ENDBRANCH   1  13
TORSDOF 2
ENDMDL
MODEL 6
REMARK VINA RESULT:      -7.2      4.530      5.508
REMARK  Name = 
REMARK  3 active torsions:
REMARK  status: ('A' for Active; 'I' for Inactive)
REMARK    1  A    between atoms: C_1  and  C_2
REMARK    2  A    between atoms: C_2  and  C_10
REMARK    3  A    between atoms: C_3  and  C_4
REMARK                            x       y       z     vdW  Elec       q    Type
REMARK                         _______ _______ _______ _____ _____    ______ ____
ROOT
ATOM      1  C   UNL     1       2.286   8.094  18.499  0.00  0.00    +0.000 C 
ATOM      2  O   UNL     1       2.223   9.172  17.911  0.00  0.00    +0.000 OA
ATOM      3  N   UNL     1       1.701   7.829  19.715  0.00  0.00    +0.000 N 
ATOM      4  C   UNL     1       0.966   8.778  20.433  0.00  0.00    +0.000 A 
ATOM      5  C   UNL     1       0.136   9.707  19.808  0.00  0.00    +0.000 A 
ATOM      6  C   UNL     1      -0.489  10.687  20.580  0.00  0.00    +0.000 A 
ATOM      7  C   UNL     1      -0.248  10.720  21.945  0.00  0.00    +0.000 A 
ATOM      8 CL   UNL     1      -0.922  11.956  22.925  0.00  0.00    +0.000 Cl
ATOM      9  C   UNL     1       0.558   9.732  22.489  0.00  0.00    +0.000 A 
ATOM     10  N   UNL     1       1.137   8.737  21.770  0.00  0.00    +0.000 NA
ATOM     11  H   UNL     1       2.095   7.096  20.289  0.00  0.00    +0.000 HD
ENDROOT
BRANCH   1  13
ATOM     12  C   UNL     1       2.678   5.613  18.247  0.00  0.00    +0.000 C 
ATOM     13  C   UNL     1       3.159   7.008  17.951  0.00  0.00    +0.000 C 
ATOM     14  C   UNL     1       4.329   7.325  17.359  0.00  0.00    +0.000 C 
BRANCH  14  15
ATOM     15  C   UNL     1       5.315   6.338  16.905  0.00  0.00    +0.000 A 
ATOM     16  C   UNL     1       5.280   5.836  15.599  0.00  0.00    +0.000 A 
ATOM     17  C   UNL     1       6.220   4.887  15.186  0.00  0.00    +0.000 A 
ATOM     18  C   UNL     1       7.193   4.432  16.074  0.00  0.00    +0.000 A 
ATOM     19  C   UNL     1       7.229   4.923  17.377  0.00  0.00    +0.000 A 
ATOM     20  C   UNL     1       6.291   5.873  17.790  0.00  0.00    +0.000 A 
ENDBRANCH  14  15
ENDBRANCH   1  13
TORSDOF 2
ENDMDL
MODEL 7
REMARK VINA RESULT:      -7.2      4.850      5.830
REMARK  Name = 
REMARK  3 active torsions:
REMARK  status: ('A' for Active; 'I' for Inactive)
REMARK    1  A    between atoms: C_1  and  C_2
REMARK    2  A    between atoms: C_2  and  C_10
REMARK    3  A    between atoms: C_3  and  C_4
REMARK                            x       y       z     vdW  Elec       q    Type
REMARK                         _______ _______ _______ _____ _____    ______ ____
ROOT
ATOM      1  C   UNL     1       2.269   7.788  18.806  0.00  0.00    +0.000 C 
ATOM      2  O   UNL     1       2.092   7.643  20.014  0.00  0.00    +0.000 OA
ATOM      3  N   UNL     1       1.659   8.749  18.033  0.00  0.00    +0.000 N 
ATOM      4  C   UNL     1       0.747   9.677  18.547  0.00  0.00    +0.000 A 
ATOM      5  C   UNL     1       0.891  10.244  19.812  0.00  0.00    +0.000 A 
ATOM      6  C   UNL     1      -0.110  11.085  20.298  0.00  0.00    +0.000 A 
ATOM      7  C   UNL     1      -1.230  11.316  19.514  0.00  0.00    +0.000 A 
ATOM      8 CL   UNL     1      -2.528  12.273  20.100  0.00  0.00    +0.000 Cl
ATOM      9  C   UNL     1      -1.272  10.746  18.251  0.00  0.00    +0.000 A 
ATOM     10  N   UNL     1      -0.289   9.965  17.733  0.00  0.00    +0.000 NA
ATOM     11  H   UNL     1       1.553   8.575  17.044  0.00  0.00    +0.000 HD
ENDROOT
BRANCH   1  13
ATOM     12  C   UNL     1       2.563   5.383  18.097  0.00  0.00    +0.000 C 
ATOM     13  C   UNL     1       3.097   6.789  18.059  0.00  0.00    +0.000 C 
ATOM     14  C   UNL     1       4.278   7.165  17.526  0.00  0.00    +0.000 C 
BRANCH  14  15
ATOM     15  C   UNL     1       5.224   6.242  16.889  0.00  0.00    +0.000 A 
ATOM     16  C   UNL     1       5.168   5.993  15.513  0.00  0.00    +0.000 A 
ATOM     17  C   UNL     1       6.070   5.102  14.924  0.00  0.00    +0.000 A 
ATOM     18  C   UNL     1       7.025   4.453  15.703  0.00  0.00    +0.000 A 
ATOM     19  C   UNL     1       7.082   4.692  17.075  0.00  0.00    +0.000 A 
ATOM     20  C   UNL     1       6.183   5.585  17.664  0.00  0.00    +0.000 A 
ENDBRANCH  14  15
ENDBRANCH   1  13
TORSDOF 2
ENDMDL
MODEL 8
REMARK VINA RESULT:      -7.2      4.857      5.790
REMARK  Name = 
REMARK  3 active torsions:
REMARK  status: ('A' for Active; 'I' for Inactive)
REMARK    1  A    between atoms: C_1  and  C_2
REMARK    2  A    between atoms: C_2  and  C_10
REMARK    3  A    between atoms: C_3  and  C_4
REMARK                            x       y       z     vdW  Elec       q    Type
REMARK                         _______ _______ _______ _____ _____    ______ ____
ROOT
ATOM      1  C   UNL     1       2.273   7.802  18.797  0.00  0.00    +0.000 C 
ATOM      2  O   UNL     1       2.118   7.682  20.010  0.00  0.00    +0.000 OA
ATOM      3  N   UNL     1       1.644   8.744  18.015  0.00  0.00    +0.000 N 
ATOM      4  C   UNL     1       0.735   9.677  18.524  0.00  0.00    +0.000 A 
ATOM      5  C   UNL     1       0.897  10.270  19.775  0.00  0.00    +0.000 A 
ATOM      6  C   UNL     1      -0.100  11.116  20.260  0.00  0.00    +0.000 A 
ATOM      7  C   UNL     1      -1.236  11.324  19.491  0.00  0.00    +0.000 A 
ATOM      8 CL   UNL     1      -2.529  12.285  20.079  0.00  0.00    +0.000 Cl
ATOM      9  C   UNL     1      -1.295  10.727  18.241  0.00  0.00    +0.000 A 
ATOM     10  N   UNL     1      -0.316   9.941  17.723  0.00  0.00    +0.000 NA
ATOM     11  H   UNL     1       1.523   8.548  17.031  0.00  0.00    +0.000 HD
ENDROOT
BRANCH   1  13
ATOM     12  C   UNL     1       2.535   5.396  18.078  0.00  0.00    +0.000 C 
ATOM     13  C   UNL     1       3.095   6.793  18.057  0.00  0.00    +0.000 C 
ATOM     14  C   UNL     1       4.291   7.151  17.544  0.00  0.00    +0.000 C 
BRANCH  14  15
ATOM     15  C   UNL     1       5.229   6.215  16.916  0.00  0.00    +0.000 A 
ATOM     16  C   UNL     1       6.198   5.550  17.675  0.00  0.00    +0.000 A 
ATOM     17  C   UNL     1       7.091   4.669  17.058  0.00  0.00    +0.000 A 
ATOM     18  C   UNL     1       7.026   4.453  15.684  0.00  0.00    +0.000 A 
ATOM     19  C   UNL     1       6.067   5.116  14.921  0.00  0.00    +0.000 A 
ATOM     20  C   UNL     1       5.172   5.995  15.537  0.00  0.00    +0.000 A 
ENDBRANCH  14  15
ENDBRANCH   1  13
TORSDOF 2
ENDMDL
MODEL 9
REMARK VINA RESULT:      -7.0      5.100      6.190
REMARK  Name = 
REMARK  3 active torsions:
REMARK  status: ('A' for Active; 'I' for Inactive)
REMARK    1  A    between atoms: C_1  and  C_2
REMARK    2  A    between atoms: C_2  and  C_10
REMARK    3  A    between atoms: C_3  and  C_4
REMARK                            x       y       z     vdW  Elec       q    Type
REMARK                         _______ _______ _______ _____ _____    ______ ____
ROOT
ATOM      1  C   UNL     1       2.161   8.358  18.228  0.00  0.00    +0.000 C 
ATOM      2  O   UNL     1       2.002   9.133  17.288  0.00  0.00    +0.000 OA
ATOM      3  N   UNL     1       1.586   8.502  19.470  0.00  0.00    +0.000 N 
ATOM      4  C   UNL     1       0.752   9.574  19.806  0.00  0.00    +0.000 A 
ATOM      5  C   UNL     1      -0.154  10.126  18.903  0.00  0.00    +0.000 A 
ATOM      6  C   UNL     1      -0.881  11.257  19.275  0.00  0.00    +0.000 A 
ATOM      7  C   UNL     1      -0.665  11.811  20.527  0.00  0.00    +0.000 A 
ATOM      8 CL   UNL     1      -1.469  13.251  21.001  0.00  0.00    +0.000 Cl
ATOM      9  C   UNL     1       0.225  11.173  21.378  0.00  0.00    +0.000 A 
ATOM     10  N   UNL     1       0.907  10.043  21.061  0.00  0.00    +0.000 NA
ATOM     11  H   UNL     1       2.040   8.072  20.264  0.00  0.00    +0.000 HD
ENDROOT
BRANCH   1  13
ATOM     12  C   UNL     1       2.992   6.152  19.133  0.00  0.00    +0.000 C 
ATOM     13  C   UNL     1       3.141   7.234  18.098  0.00  0.00    +0.000 C 
ATOM     14  C   UNL     1       4.129   7.312  17.181  0.00  0.00    +0.000 C 
BRANCH  14  15
ATOM     15  C   UNL     1       5.213   6.331  17.056  0.00  0.00    +0.000 A 
ATOM     16  C   UNL     1       5.074   5.206  16.236  0.00  0.00    +0.000 A 
ATOM     17  C   UNL     1       6.113   4.276  16.138  0.00  0.00    +0.000 A 
ATOM     18  C   UNL     1       7.290   4.462  16.859  0.00  0.00    +0.000 A 
ATOM     19  C   UNL     1       7.434   5.577  17.681  0.00  0.00    +0.000 A 
ATOM     20  C   UNL     1       6.396   6.509  17.778  0.00  0.00    +0.000 A 
ENDBRANCH  14  15
ENDBRANCH   1  13
TORSDOF 2
ENDMDL
