MODEL 1
REMARK VINA RESULT:      -6.0      0.000      0.000
REMARK  Name = 
REMARK  5 active torsions:
REMARK  status: ('A' for Active; 'I' for Inactive)
REMARK    1  A    between atoms: N_1  and  CA_2
REMARK    2  A    between atoms: CA_2  and  C_3
REMARK    3  A    between atoms: CA_2  and  C_11
REMARK    4  A    between atoms: C_3  and  C_4
REMARK    5  A    between atoms: C_11  and  OXT_13
REMARK                            x       y       z     vdW  Elec       q    Type
REMARK                         _______ _______ _______ _____ _____    ______ ____
ROOT
ATOM      1  CA  UNL     1       5.656   5.123  16.592  0.00  0.00    +0.000 C 
ENDROOT
BRANCH   1   2
ATOM      2  N   UNL     1       5.997   5.968  15.413  0.00  0.00    +0.000 NA
ATOM      3  H1  UNL     1       7.016   5.915  15.295  0.00  0.00    +0.000 HD
ATOM      4  H2  UNL     1       5.833   6.948  15.666  0.00  0.00    +0.000 HD
ENDBRANCH   1   2
BRANCH   1   5
ATOM      5  C   UNL     1       6.935   4.576  17.224  0.00  0.00    +0.000 C 
ATOM      6  O   UNL     1       8.010   4.411  16.657  0.00  0.00    +0.000 OA
BRANCH   5   7
ATOM      7  OXT UNL     1       6.700   4.171  18.503  0.00  0.00    +0.000 OA
ATOM      8  HXT UNL     1       7.572   4.246  18.971  0.00  0.00    +0.000 HD
ENDBRANCH   5   7
ENDBRANCH   1   5
BRANCH   1   9
ATOM      9  C   UNL     1       4.542   4.081  16.393  0.00  0.00    +0.000 C 
BRANCH   9  10
ATOM     10  C   UNL     1       3.346   4.010  17.321  0.00  0.00    +0.000 A 
ATOM     11  C   UNL     1       2.594   2.844  17.505  0.00  0.00    +0.000 A 
ATOM     12  C   UNL     1       1.607   2.789  18.499  0.00  0.00    +0.000 A 
ATOM     13  C   UNL     1       1.378   3.891  19.313  0.00  0.00    +0.000 A 
ATOM     14  F   UNL     1       0.457   3.817  20.285  0.00  0.00    +0.000 F 
ATOM     15  C   UNL     1       2.112   5.055  19.154  0.00  0.00    +0.000 A 
ATOM     16  C   UNL     1       3.092   5.113  18.161  0.00  0.00    +0.000 A 
ENDBRANCH   9  10
ENDBRANCH   1   9
TORSDOF 5
ENDMDL
MODEL 2
REMARK VINA RESULT:      -6.0      0.913      1.766
REMARK  Name = 
REMARK  5 active torsions:
REMARK  status: ('A' for Active; 'I' for Inactive)
REMARK    1  A    between atoms: N_1  and  CA_2
REMARK    2  A    between atoms: CA_2  and  C_3
REMARK    3  A    between atoms: CA_2  and  C_11
REMARK    4  A    between atoms: C_3  and  C_4
REMARK    5  A    between atoms: C_11  and  OXT_13
REMARK                            x       y       z     vdW  Elec       q    Type
REMARK                         _______ _______ _______ _____ _____    ______ ____
ROOT
ATOM      1  CA  UNL     1       5.707   5.379  16.322  0.00  0.00    +0.000 C 
ENDROOT
BRANCH   1   2
ATOM      2  N   UNL     1       5.329   6.460  15.369  0.00  0.00    +0.000 NA
ATOM      3  H1  UNL     1       4.454   6.869  15.716  0.00  0.00    +0.000 HD
ATOM      4  H2  UNL     1       5.057   6.021  14.483  0.00  0.00    +0.000 HD
ENDBRANCH   1   2
BRANCH   1   5
ATOM      5  C   UNL     1       7.156   4.961  16.081  0.00  0.00    +0.000 C 
ATOM      6  O   UNL     1       7.885   4.378  16.877  0.00  0.00    +0.000 OA
BRANCH   5   7
ATOM      7  OXT UNL     1       7.596   5.430  14.881  0.00  0.00    +0.000 OA
ATOM      8  HXT UNL     1       8.562   5.207  14.844  0.00  0.00    +0.000 HD
ENDBRANCH   5   7
ENDBRANCH   1   5
BRANCH   1   9
ATOM      9  C   UNL     1       4.717   4.209  16.465  0.00  0.00    +0.000 C 
BRANCH   9  10
ATOM     10  C   UNL     1       3.714   4.153  17.598  0.00  0.00    +0.000 A 
ATOM     11  C   UNL     1       3.889   4.843  18.804  0.00  0.00    +0.000 A 
ATOM     12  C   UNL     1       2.853   4.891  19.748  0.00  0.00    +0.000 A 
ATOM     13  C   UNL     1       1.643   4.260  19.484  0.00  0.00    +0.000 A 
ATOM     14  F   UNL     1       0.646   4.343  20.377  0.00  0.00    +0.000 F 
ATOM     15  C   UNL     1       1.444   3.575  18.297  0.00  0.00    +0.000 A 
ATOM     16  C   UNL     1       2.476   3.523  17.359  0.00  0.00    +0.000 A 
ENDBRANCH   9  10
ENDBRANCH   1   9
TORSDOF 5
ENDMDL
MODEL 3
REMARK VINA RESULT:      -5.9      1.927      2.823
REMARK  Name = 
REMARK  5 active torsions:
REMARK  status: ('A' for Active; 'I' for Inactive)
REMARK    1  A    between atoms: N_1  and  CA_2
REMARK    2  A    between atoms: CA_2  and  C_3
REMARK    3  A    between atoms: CA_2  and  C_11
REMARK    4  A    between atoms: C_3  and  C_4
REMARK    5  A    between atoms: C_11  and  OXT_13
REMARK                            x       y       z     vdW  Elec       q    Type
REMARK                         _______ _______ _______ _____ _____    ______ ____
ROOT
ATOM      1  CA  UNL     1       7.563   5.561  17.553  0.00  0.00    +0.000 C 
ENDROOT
BRANCH   1   2
ATOM      2  N   UNL     1       7.889   4.112  17.436  0.00  0.00    +0.000 NA
ATOM      3  H1  UNL     1       7.578   3.812  16.506  0.00  0.00    +0.000 HD
ATOM      4  H2  UNL     1       7.274   3.596  18.075  0.00  0.00    +0.000 HD
ENDBRANCH   1   2
BRANCH   1   5
ATOM      5  C   UNL     1       7.744   6.017  19.000  0.00  0.00    +0.000 C 
ATOM      6  O   UNL     1       7.260   5.485  19.994  0.00  0.00    +0.000 OA
BRANCH   5   7
ATOM      7  OXT UNL     1       8.434   7.190  19.049  0.00  0.00    +0.000 OA
ATOM      8  HXT UNL     1       7.761   7.886  19.266  0.00  0.00    +0.000 HD
ENDBRANCH   5   7
ENDBRANCH   1   5
BRANCH   1   9
ATOM      9  C   UNL     1       6.254   6.029  16.893  0.00  0.00    +0.000 C 
BRANCH   9  10
ATOM     10  C   UNL     1       4.907   5.497  17.337  0.00  0.00    +0.000 A 
ATOM     11  C   UNL     1       3.938   6.300  17.953  0.00  0.00    +0.000 A 
ATOM     12  C   UNL     1       2.651   5.798  18.188  0.00  0.00    +0.000 A 
ATOM     13  C   UNL     1       2.328   4.502  17.802  0.00  0.00    +0.000 A 
ATOM     14  F   UNL     1       1.084   4.044  17.998  0.00  0.00    +0.000 F 
ATOM     15  C   UNL     1       3.268   3.690  17.188  0.00  0.00    +0.000 A 
ATOM     16  C   UNL     1       4.552   4.188  16.957  0.00  0.00    +0.000 A 
ENDBRANCH   9  10
ENDBRANCH   1   9
TORSDOF 5
ENDMDL
MODEL 4
REMARK VINA RESULT:      -5.9      1.055      1.179
REMARK  Name = 
REMARK  5 active torsions:
REMARK  status: ('A' for Active; 'I' for Inactive)
REMARK    1  A    between atoms: N_1  and  CA_2
REMARK    2  A    between atoms: CA_2  and  C_3
REMARK    3  A    between atoms: CA_2  and  C_11
REMARK    4  A    between atoms: C_3  and  C_4
REMARK    5  A    between atoms: C_11  and  OXT_13
REMARK                            x       y       z     vdW  Elec       q    Type
REMARK                         _______ _______ _______ _____ _____    ______ ____
ROOT
ATOM      1  CA  UNL     1       6.185   6.045  17.429  0.00  0.00    +0.000 C 
ENDROOT
BRANCH   1   2
ATOM      2  N   UNL     1       7.011   7.141  16.850  0.00  0.00    +0.000 NA
ATOM      3  H1  UNL     1       6.471   8.008  16.957  0.00  0.00    +0.000 HD
ATOM      4  H2  UNL     1       7.052   7.005  15.834  0.00  0.00    +0.000 HD
ENDBRANCH   1   2
BRANCH   1   5
ATOM      5  C   UNL     1       7.024   4.774  17.549  0.00  0.00    +0.000 C 
ATOM      6  O   UNL     1       7.907   4.413  16.777  0.00  0.00    +0.000 OA
BRANCH   5   7
ATOM      7  OXT UNL     1       6.583   4.004  18.582  0.00  0.00    +0.000 OA
ATOM      8  HXT UNL     1       6.111   4.626  19.195  0.00  0.00    +0.000 HD
ENDBRANCH   5   7
ENDBRANCH   1   5
BRANCH   1   9
ATOM      9  C   UNL     1       4.789   5.836  16.817  0.00  0.00    +0.000 C 
BRANCH   9  10
ATOM     10  C   UNL     1       3.609   5.401  17.661  0.00  0.00    +0.000 A 
ATOM     11  C   UNL     1       2.927   4.196  17.452  0.00  0.00    +0.000 A 
ATOM     12  C   UNL     1       1.955   3.766  18.366  0.00  0.00    +0.000 A 
ATOM     13  C   UNL     1       1.670   4.532  19.490  0.00  0.00    +0.000 A 
ATOM     14  F   UNL     1       0.765   4.095  20.377  0.00  0.00    +0.000 F 
ATOM     15  C   UNL     1       2.334   5.726  19.721  0.00  0.00    +0.000 A 
ATOM     16  C   UNL     1       3.300   6.157  18.809  0.00  0.00    +0.000 A 
ENDBRANCH   9  10
ENDBRANCH   1   9
TORSDOF 5
ENDMDL
MODEL 5
REMARK VINA RESULT:      -5.9      1.403      2.104
REMARK  Name = 
REMARK  5 active torsions:
REMARK  status: ('A' for Active; 'I' for Inactive)
REMARK    1  A    between atoms: N_1  and  CA_2
REMARK    2  A    between atoms: CA_2  and  C_3
REMARK    3  A    between atoms: CA_2  and  C_11
REMARK    4  A    between atoms: C_3  and  C_4
REMARK    5  A    between atoms: C_11  and  OXT_13
REMARK                            x       y       z     vdW  Elec       q    Type
REMARK                         _______ _______ _______ _____ _____    ______ ____
ROOT
ATOM      1  CA  UNL     1       7.153   6.105  17.055  0.00  0.00    +0.000 C 
ENDROOT
BRANCH   1   2
ATOM      2  N   UNL     1       7.493   5.532  15.722  0.00  0.00    +0.000 NA
ATOM      3  H1  UNL     1       7.038   6.125  15.019  0.00  0.00    +0.000 HD
ATOM      4  H2  UNL     1       7.008   4.632  15.630  0.00  0.00    +0.000 HD
ENDBRANCH   1   2
BRANCH   1   5
ATOM      5  C   UNL     1       7.516   5.108  18.154  0.00  0.00    +0.000 C 
ATOM      6  O   UNL     1       7.324   5.253  19.356  0.00  0.00    +0.000 OA
BRANCH   5   7
ATOM      7  OXT UNL     1       8.207   4.055  17.635  0.00  0.00    +0.000 OA
ATOM      8  HXT UNL     1       7.888   3.961  16.701  0.00  0.00    +0.000 HD
ENDBRANCH   5   7
ENDBRANCH   1   5
BRANCH   1   9
ATOM      9  C   UNL     1       5.758   6.737  17.198  0.00  0.00    +0.000 C 
BRANCH   9  10
ATOM     10  C   UNL     1       4.506   5.888  17.277  0.00  0.00    +0.000 A 
ATOM     11  C   UNL     1       4.467   4.550  16.865  0.00  0.00    +0.000 A 
ATOM     12  C   UNL     1       3.333   3.766  17.118  0.00  0.00    +0.000 A 
ATOM     13  C   UNL     1       2.245   4.312  17.788  0.00  0.00    +0.000 A 
ATOM     14  F   UNL     1       1.180   3.543  18.057  0.00  0.00    +0.000 F 
ATOM     15  C   UNL     1       2.261   5.631  18.210  0.00  0.00    +0.000 A 
ATOM     16  C   UNL     1       3.388   6.415  17.955  0.00  0.00    +0.000 A 
ENDBRANCH   9  10
ENDBRANCH   1   9
TORSDOF 5
ENDMDL
MODEL 6
REMARK VINA RESULT:      -5.9      1.519      2.003
REMARK  Name = 
REMARK  5 active torsions:
REMARK  status: ('A' for Active; 'I' for Inactive)
REMARK    1  A    between atoms: N_1  and  CA_2
REMARK    2  A    between atoms: CA_2  and  C_3
REMARK    3  A    between atoms: CA_2  and  C_11
REMARK    4  A    between atoms: C_3  and  C_4
REMARK    5  A    between atoms: C_11  and  OXT_13
REMARK                            x       y       z     vdW  Elec       q    Type
REMARK                         _______ _______ _______ _____ _____    ______ ____
ROOT
ATOM      1  CA  UNL     1       6.188   4.256  16.687  0.00  0.00    +0.000 C 
ENDROOT
BRANCH   1   2
ATOM      2  N   UNL     1       6.487   4.250  18.147  0.00  0.00    +0.000 NA
ATOM      3  H1  UNL     1       7.349   3.708  18.272  0.00  0.00    +0.000 HD
ATOM      4  H2  UNL     1       5.773   3.682  18.615  0.00  0.00    +0.000 HD
ENDBRANCH   1   2
BRANCH   1   5
ATOM      5  C   UNL     1       6.851   5.464  16.028  0.00  0.00    +0.000 C 
ATOM      6  O   UNL     1       7.720   5.432  15.163  0.00  0.00    +0.000 OA
BRANCH   5   7
ATOM      7  OXT UNL     1       6.434   6.619  16.618  0.00  0.00    +0.000 OA
ATOM      8  HXT UNL     1       5.928   6.339  17.424  0.00  0.00    +0.000 HD
ENDBRANCH   5   7
ENDBRANCH   1   5
BRANCH   1   9
ATOM      9  C   UNL     1       4.721   4.029  16.283  0.00  0.00    +0.000 C 
BRANCH   9  10
ATOM     10  C   UNL     1       3.642   3.783  17.317  0.00  0.00    +0.000 A 
ATOM     11  C   UNL     1       2.794   4.794  17.788  0.00  0.00    +0.000 A 
ATOM     12  C   UNL     1       1.708   4.477  18.615  0.00  0.00    +0.000 A 
ATOM     13  C   UNL     1       1.462   3.154  18.964  0.00  0.00    +0.000 A 
ATOM     14  F   UNL     1       0.399   2.857  19.725  0.00  0.00    +0.000 F 
ATOM     15  C   UNL     1       2.284   2.136  18.508  0.00  0.00    +0.000 A 
ATOM     16  C   UNL     1       3.369   2.451  17.688  0.00  0.00    +0.000 A 
ENDBRANCH   9  10
ENDBRANCH   1   9
TORSDOF 5
ENDMDL
MODEL 7
REMARK VINA RESULT:      -5.8      1.764      2.034
REMARK  Name = 
REMARK  5 active torsions:
REMARK  status: ('A' for Active; 'I' for Inactive)
REMARK    1  A    between atoms: N_1  and  CA_2
REMARK    2  A    between atoms: CA_2  and  C_3
REMARK    3  A    between atoms: CA_2  and  C_11
REMARK    4  A    between atoms: C_3  and  C_4
REMARK    5  A    between atoms: C_11  and  OXT_13
REMARK                            x       y       z     vdW  Elec       q    Type
REMARK                         _______ _______ _______ _____ _____    ______ ____
ROOT
ATOM      1  CA  UNL     1       6.519   4.549  17.017  0.00  0.00    +0.000 C 
ENDROOT
BRANCH   1   2
ATOM      2  N   UNL     1       7.930   4.182  17.327  0.00  0.00    +0.000 NA
ATOM      3  H1  UNL     1       7.895   3.445  18.040  0.00  0.00    +0.000 HD
ATOM      4  H2  UNL     1       8.362   4.973  17.817  0.00  0.00    +0.000 HD
ENDBRANCH   1   2
BRANCH   1   5
ATOM      5  C   UNL     1       6.492   5.774  16.105  0.00  0.00    +0.000 C 
ATOM      6  O   UNL     1       5.690   5.988  15.202  0.00  0.00    +0.000 OA
BRANCH   5   7
ATOM      7  OXT UNL     1       7.571   6.571  16.343  0.00  0.00    +0.000 OA
ATOM      8  HXT UNL     1       7.675   7.130  15.530  0.00  0.00    +0.000 HD
ENDBRANCH   5   7
ENDBRANCH   1   5
BRANCH   1   9
ATOM      9  C   UNL     1       5.546   4.613  18.206  0.00  0.00    +0.000 C 
BRANCH   9  10
ATOM     10  C   UNL     1       4.152   4.026  18.123  0.00  0.00    +0.000 A 
ATOM     11  C   UNL     1       3.907   2.696  17.757  0.00  0.00    +0.000 A 
ATOM     12  C   UNL     1       2.616   2.162  17.861  0.00  0.00    +0.000 A 
ATOM     13  C   UNL     1       1.573   2.948  18.338  0.00  0.00    +0.000 A 
ATOM     14  F   UNL     1       0.350   2.417  18.468  0.00  0.00    +0.000 F 
ATOM     15  C   UNL     1       1.791   4.264  18.710  0.00  0.00    +0.000 A 
ATOM     16  C   UNL     1       3.076   4.799  18.603  0.00  0.00    +0.000 A 
ENDBRANCH   9  10
ENDBRANCH   1   9
TORSDOF 5
ENDMDL
MODEL 8
REMARK VINA RESULT:      -5.8      1.783      2.067
REMARK  Name = 
REMARK  5 active torsions:
REMARK  status: ('A' for Active; 'I' for Inactive)
REMARK    1  A    between atoms: N_1  and  CA_2
REMARK    2  A    between atoms: CA_2  and  C_3
REMARK    3  A    between atoms: CA_2  and  C_11
REMARK    4  A    between atoms: C_3  and  C_4
REMARK    5  A    between atoms: C_11  and  OXT_13
REMARK                            x       y       z     vdW  Elec       q    Type
REMARK                         _______ _______ _______ _____ _____    ______ ____
ROOT
ATOM      1  CA  UNL     1       6.151   4.120  16.239  0.00  0.00    +0.000 C 
ENDROOT
BRANCH   1   2
ATOM      2  N   UNL     1       7.262   4.301  17.215  0.00  0.00    +0.000 NA
ATOM      3  H1  UNL     1       7.744   5.170  16.957  0.00  0.00    +0.000 HD
ATOM      4  H2  UNL     1       7.963   3.574  17.036  0.00  0.00    +0.000 HD
ENDBRANCH   1   2
BRANCH   1   5
ATOM      5  C   UNL     1       6.645   4.433  14.828  0.00  0.00    +0.000 C 
ATOM      6  O   UNL     1       6.366   3.813  13.808  0.00  0.00    +0.000 OA
BRANCH   5   7
ATOM      7  OXT UNL     1       7.556   5.445  14.854  0.00  0.00    +0.000 OA
ATOM      8  HXT UNL     1       8.425   5.029  14.619  0.00  0.00    +0.000 HD
ENDBRANCH   5   7
ENDBRANCH   1   5
BRANCH   1   9
ATOM      9  C   UNL     1       4.802   4.763  16.604  0.00  0.00    +0.000 C 
BRANCH   9  10
ATOM     10  C   UNL     1       3.679   3.956  17.220  0.00  0.00    +0.000 A 
ATOM     11  C   UNL     1       3.843   2.637  17.663  0.00  0.00    +0.000 A 
ATOM     12  C   UNL     1       2.820   1.998  18.377  0.00  0.00    +0.000 A 
ATOM     13  C   UNL     1       1.640   2.676  18.657  0.00  0.00    +0.000 A 
ATOM     14  F   UNL     1       0.682   2.069  19.372  0.00  0.00    +0.000 F 
ATOM     15  C   UNL     1       1.454   3.982  18.234  0.00  0.00    +0.000 A 
ATOM     16  C   UNL     1       2.471   4.618  17.519  0.00  0.00    +0.000 A 
ENDBRANCH   9  10
ENDBRANCH   1   9
TORSDOF 5
ENDMDL
MODEL 9
REMARK VINA RESULT:      -5.8      1.587      1.814
REMARK  Name = 
REMARK  5 active torsions:
REMARK  status: ('A' for Active; 'I' for Inactive)
REMARK    1  A    between atoms: N_1  and  CA_2
REMARK    2  A    between atoms: CA_2  and  C_3
REMARK    3  A    between atoms: CA_2  and  C_11
REMARK    4  A    between atoms: C_3  and  C_4
REMARK    5  A    between atoms: C_11  and  OXT_13
REMARK                            x       y       z     vdW  Elec       q    Type
REMARK                         _______ _______ _______ _____ _____    ______ ____
ROOT
ATOM      1  CA  UNL     1       6.156   4.433  17.173  0.00  0.00    +0.000 C 
ENDROOT
BRANCH   1   2
ATOM      2  N   UNL     1       6.266   4.134  18.628  0.00  0.00    +0.000 NA
ATOM      3  H1  UNL     1       5.774   3.248  18.788  0.00  0.00    +0.000 HD
ATOM      4  H2  UNL     1       5.699   4.822  19.137  0.00  0.00    +0.000 HD
ENDBRANCH   1   2
BRANCH   1   5
ATOM      5  C   UNL     1       6.517   5.895  16.916  0.00  0.00    +0.000 C 
ATOM      6  O   UNL     1       5.958   6.875  17.397  0.00  0.00    +0.000 OA
BRANCH   5   7
ATOM      7  OXT UNL     1       7.490   5.987  15.968  0.00  0.00    +0.000 OA
ATOM      8  HXT UNL     1       7.384   5.182  15.397  0.00  0.00    +0.000 HD
ENDBRANCH   5   7
ENDBRANCH   1   5
BRANCH   1   9
ATOM      9  C   UNL     1       4.876   3.955  16.466  0.00  0.00    +0.000 C 
BRANCH   9  10
ATOM     10  C   UNL     1       3.615   3.633  17.241  0.00  0.00    +0.000 A 
ATOM     11  C   UNL     1       3.305   2.342  17.689  0.00  0.00    +0.000 A 
ATOM     12  C   UNL     1       2.214   2.134  18.544  0.00  0.00    +0.000 A 
ATOM     13  C   UNL     1       1.439   3.210  18.958  0.00  0.00    +0.000 A 
ATOM     14  F   UNL     1       0.420   3.005  19.804  0.00  0.00    +0.000 F 
ATOM     15  C   UNL     1       1.728   4.497  18.532  0.00  0.00    +0.000 A 
ATOM     16  C   UNL     1       2.811   4.705  17.677  0.00  0.00    +0.000 A 
ENDBRANCH   9  10
ENDBRANCH   1   9
TORSDOF 5
ENDMDL
