MODEL 1
REMARK VINA RESULT:      -7.3      0.000      0.000
REMARK  Name = 
REMARK  3 active torsions:
REMARK  status: ('A' for Active; 'I' for Inactive)
REMARK    1  A    between atoms: C_2  and  O_3
REMARK    2  A    between atoms: C_2  and  C_4
REMARK    3  A    between atoms: N_8  and  C_9
REMARK                            x       y       z     vdW  Elec       q    Type
REMARK                         _______ _______ _______ _____ _____    ______ ____
ROOT
ATOM      1  C   UNL     1       5.904   6.015  16.432  0.00  0.00    +0.000 C 
ATOM      2  C   UNL     1       6.744   6.387  17.654  0.00  0.00    +0.000 C 
ATOM      3  C   UNL     1       6.229   5.465  18.732  0.00  0.00    +0.000 C 
ATOM      4  O   UNL     1       6.789   5.271  19.799  0.00  0.00    +0.000 OA
ATOM      5  N   UNL     1       5.032   4.923  18.300  0.00  0.00    +0.000 N 
ATOM      6  C   UNL     1       4.611   5.489  17.037  0.00  0.00    +0.000 C 
ENDROOT
BRANCH   5   7
ATOM      7  C   UNL     1       4.290   3.884  19.031  0.00  0.00    +0.000 C 
ATOM      8  C   UNL     1       3.336   4.474  20.078  0.00  0.00    +0.000 C 
ATOM      9  C   UNL     1       1.917   4.760  19.590  0.00  0.00    +0.000 C 
ATOM     10  C   UNL     1       0.994   3.545  19.685  0.00  0.00    +0.000 C 
ATOM     11  C   UNL     1       1.270   2.422  18.689  0.00  0.00    +0.000 C 
ATOM     12  C   UNL     1       2.701   1.887  18.671  0.00  0.00    +0.000 C 
ATOM     13  C   UNL     1       3.687   2.869  18.049  0.00  0.00    +0.000 C 
ENDBRANCH   5   7
BRANCH   1  15
ATOM     14  O   UNL     1       6.166   3.825  15.402  0.00  0.00    +0.000 OA
ATOM     15  C   UNL     1       6.580   4.960  15.575  0.00  0.00    +0.000 C 
BRANCH  15  16
ATOM     16  O   UNL     1       7.682   5.415  14.932  0.00  0.00    +0.000 OA
ATOM     17  H   UNL     1       7.738   5.188  13.986  0.00  0.00    +0.000 HD
ENDBRANCH  15  16
ENDBRANCH   1  15
TORSDOF 3
ENDMDL
MODEL 2
REMARK VINA RESULT:      -7.2      1.572      3.150
REMARK  Name = 
REMARK  3 active torsions:
REMARK  status: ('A' for Active; 'I' for Inactive)
REMARK    1  A    between atoms: C_2  and  O_3
REMARK    2  A    between atoms: C_2  and  C_4
REMARK    3  A    between atoms: N_8  and  C_9
REMARK                            x       y       z     vdW  Elec       q    Type
REMARK                         _______ _______ _______ _____ _____    ______ ____
ROOT
ATOM      1  C   UNL     1       7.270   4.915  17.938  0.00  0.00    +0.000 C 
ATOM      2  C   UNL     1       7.058   5.537  16.558  0.00  0.00    +0.000 C 
ATOM      3  C   UNL     1       5.608   5.952  16.576  0.00  0.00    +0.000 C 
ATOM      4  O   UNL     1       5.094   6.699  15.758  0.00  0.00    +0.000 OA
ATOM      5  N   UNL     1       4.993   5.325  17.645  0.00  0.00    +0.000 N 
ATOM      6  C   UNL     1       5.887   4.406  18.315  0.00  0.00    +0.000 C 
ENDROOT
BRANCH   5   7
ATOM      7  C   UNL     1       3.604   5.580  18.058  0.00  0.00    +0.000 C 
ATOM      8  C   UNL     1       2.628   4.536  17.500  0.00  0.00    +0.000 C 
ATOM      9  C   UNL     1       2.383   3.319  18.391  0.00  0.00    +0.000 C 
ATOM     10  C   UNL     1       1.281   3.546  19.425  0.00  0.00    +0.000 C 
ATOM     11  C   UNL     1       1.626   4.499  20.566  0.00  0.00    +0.000 C 
ATOM     12  C   UNL     1       2.128   5.880  20.149  0.00  0.00    +0.000 C 
ATOM     13  C   UNL     1       3.537   5.841  19.570  0.00  0.00    +0.000 C 
ENDBRANCH   5   7
BRANCH   1  15
ATOM     14  O   UNL     1       8.167   7.053  18.678  0.00  0.00    +0.000 OA
ATOM     15  C   UNL     1       7.779   5.927  18.947  0.00  0.00    +0.000 C 
BRANCH  15  16
ATOM     16  O   UNL     1       7.695   5.498  20.230  0.00  0.00    +0.000 OA
ATOM     17  H   UNL     1       7.251   4.640  20.356  0.00  0.00    +0.000 HD
ENDBRANCH  15  16
ENDBRANCH   1  15
TORSDOF 3
ENDMDL
MODEL 3
REMARK VINA RESULT:      -7.2      1.723      2.708
REMARK  Name = 
REMARK  3 active torsions:
REMARK  status: ('A' for Active; 'I' for Inactive)
REMARK    1  A    between atoms: C_2  and  O_3
REMARK    2  A    between atoms: C_2  and  C_4
REMARK    3  A    between atoms: N_8  and  C_9
REMARK                            x       y       z     vdW  Elec       q    Type
REMARK                         _______ _______ _______ _____ _____    ______ ____
ROOT
ATOM      1  C   UNL     1       5.834   4.772  16.818  0.00  0.00    +0.000 C 
ATOM      2  C   UNL     1       5.632   6.258  16.525  0.00  0.00    +0.000 C 
ATOM      3  C   UNL     1       4.324   6.579  17.206  0.00  0.00    +0.000 C 
ATOM      4  O   UNL     1       3.914   7.709  17.416  0.00  0.00    +0.000 OA
ATOM      5  N   UNL     1       3.693   5.386  17.511  0.00  0.00    +0.000 N 
ATOM      6  C   UNL     1       4.416   4.247  16.989  0.00  0.00    +0.000 C 
ENDROOT
BRANCH   5   7
ATOM      7  C   UNL     1       2.449   5.291  18.290  0.00  0.00    +0.000 C 
ATOM      8  C   UNL     1       1.482   4.245  17.720  0.00  0.00    +0.000 C 
ATOM      9  C   UNL     1       1.625   2.834  18.290  0.00  0.00    +0.000 C 
ATOM     10  C   UNL     1       0.825   2.623  19.575  0.00  0.00    +0.000 C 
ATOM     11  C   UNL     1       1.356   3.340  20.814  0.00  0.00    +0.000 C 
ATOM     12  C   UNL     1       1.568   4.846  20.671  0.00  0.00    +0.000 C 
ATOM     13  C   UNL     1       2.764   5.188  19.790  0.00  0.00    +0.000 C 
ENDBRANCH   5   7
BRANCH   1  15
ATOM     14  O   UNL     1       6.251   4.673  19.214  0.00  0.00    +0.000 OA
ATOM     15  C   UNL     1       6.660   4.545  18.071  0.00  0.00    +0.000 C 
BRANCH  15  16
ATOM     16  O   UNL     1       7.914   4.100  17.817  0.00  0.00    +0.000 OA
ATOM     17  H   UNL     1       8.116   3.931  16.878  0.00  0.00    +0.000 HD
ENDBRANCH  15  16
ENDBRANCH   1  15
TORSDOF 3
ENDMDL
MODEL 4
REMARK VINA RESULT:      -6.9      2.840      5.282
REMARK  Name = 
REMARK  3 active torsions:
REMARK  status: ('A' for Active; 'I' for Inactive)
REMARK    1  A    between atoms: C_2  and  O_3
REMARK    2  A    between atoms: C_2  and  C_4
REMARK    3  A    between atoms: N_8  and  C_9
REMARK                            x       y       z     vdW  Elec       q    Type
REMARK                         _______ _______ _______ _____ _____    ______ ____
ROOT
ATOM      1  C   UNL     1       2.134   2.436  20.076  0.00  0.00    +0.000 C 
ATOM      2  C   UNL     1       1.366   3.434  20.943  0.00  0.00    +0.000 C 
ATOM      3  C   UNL     1       1.985   4.763  20.586  0.00  0.00    +0.000 C 
ATOM      4  O   UNL     1       1.506   5.848  20.876  0.00  0.00    +0.000 OA
ATOM      5  N   UNL     1       3.169   4.520  19.912  0.00  0.00    +0.000 N 
ATOM      6  C   UNL     1       3.483   3.109  19.871  0.00  0.00    +0.000 C 
ENDROOT
BRANCH   5   7
ATOM      7  C   UNL     1       3.995   5.571  19.298  0.00  0.00    +0.000 C 
ATOM      8  C   UNL     1       5.479   5.188  19.239  0.00  0.00    +0.000 C 
ATOM      9  C   UNL     1       5.926   4.472  17.965  0.00  0.00    +0.000 C 
ATOM     10  C   UNL     1       6.306   5.433  16.840  0.00  0.00    +0.000 C 
ATOM     11  C   UNL     1       5.149   6.186  16.190  0.00  0.00    +0.000 C 
ATOM     12  C   UNL     1       4.242   6.963  17.143  0.00  0.00    +0.000 C 
ATOM     13  C   UNL     1       3.358   6.051  17.985  0.00  0.00    +0.000 C 
ENDBRANCH   5   7
BRANCH   1  15
ATOM     14  O   UNL     1       0.250   2.350  18.538  0.00  0.00    +0.000 OA
ATOM     15  C   UNL     1       1.439   2.178  18.752  0.00  0.00    +0.000 C 
BRANCH  15  16
ATOM     16  O   UNL     1       2.286   1.802  17.764  0.00  0.00    +0.000 OA
ATOM     17  H   UNL     1       2.298   0.848  17.563  0.00  0.00    +0.000 HD
ENDBRANCH  15  16
ENDBRANCH   1  15
TORSDOF 3
ENDMDL
MODEL 5
REMARK VINA RESULT:      -6.9      2.536      5.633
REMARK  Name = 
REMARK  3 active torsions:
REMARK  status: ('A' for Active; 'I' for Inactive)
REMARK    1  A    between atoms: C_2  and  O_3
REMARK    2  A    between atoms: C_2  and  C_4
REMARK    3  A    between atoms: N_8  and  C_9
REMARK                            x       y       z     vdW  Elec       q    Type
REMARK                         _______ _______ _______ _____ _____    ______ ____
ROOT
ATOM      1  C   UNL     1       1.986   4.169  20.359  0.00  0.00    +0.000 C 
ATOM      2  C   UNL     1       1.223   3.726  19.111  0.00  0.00    +0.000 C 
ATOM      3  C   UNL     1       2.283   3.709  18.036  0.00  0.00    +0.000 C 
ATOM      4  O   UNL     1       2.146   3.186  16.941  0.00  0.00    +0.000 OA
ATOM      5  N   UNL     1       3.387   4.396  18.508  0.00  0.00    +0.000 N 
ATOM      6  C   UNL     1       3.135   4.995  19.800  0.00  0.00    +0.000 C 
ENDROOT
BRANCH   5   7
ATOM      7  C   UNL     1       4.666   4.488  17.788  0.00  0.00    +0.000 C 
ATOM      8  C   UNL     1       4.666   5.603  16.735  0.00  0.00    +0.000 C 
ATOM      9  C   UNL     1       5.152   6.968  17.219  0.00  0.00    +0.000 C 
ATOM     10  C   UNL     1       6.670   7.127  17.137  0.00  0.00    +0.000 C 
ATOM     11  C   UNL     1       7.479   6.314  18.144  0.00  0.00    +0.000 C 
ATOM     12  C   UNL     1       7.195   4.813  18.168  0.00  0.00    +0.000 C 
ATOM     13  C   UNL     1       5.839   4.483  18.780  0.00  0.00    +0.000 C 
ENDBRANCH   5   7
BRANCH   1  15
ATOM     14  O   UNL     1       3.571   2.432  20.989  0.00  0.00    +0.000 OA
ATOM     15  C   UNL     1       2.498   2.987  21.162  0.00  0.00    +0.000 C 
BRANCH  15  16
ATOM     16  O   UNL     1       1.675   2.628  22.176  0.00  0.00    +0.000 OA
ATOM     17  H   UNL     1       1.892   1.785  22.615  0.00  0.00    +0.000 HD
ENDBRANCH  15  16
ENDBRANCH   1  15
TORSDOF 3
ENDMDL
MODEL 6
REMARK VINA RESULT:      -6.8      2.572      5.623
REMARK  Name = 
REMARK  3 active torsions:
REMARK  status: ('A' for Active; 'I' for Inactive)
REMARK    1  A    between atoms: C_2  and  O_3
REMARK    2  A    between atoms: C_2  and  C_4
REMARK    3  A    between atoms: N_8  and  C_9
REMARK                            x       y       z     vdW  Elec       q    Type
REMARK                         _______ _______ _______ _____ _____    ______ ____
ROOT
ATOM      1  C   UNL     1       1.421   4.083  18.727  0.00  0.00    +0.000 C 
ATOM      2  C   UNL     1       1.573   2.617  18.321  0.00  0.00    +0.000 C 
ATOM      3  C   UNL     1       3.065   2.439  18.187  0.00  0.00    +0.000 C 
ATOM      4  O   UNL     1       3.626   1.358  18.108  0.00  0.00    +0.000 OA
ATOM      5  N   UNL     1       3.648   3.693  18.148  0.00  0.00    +0.000 N 
ATOM      6  C   UNL     1       2.655   4.746  18.132  0.00  0.00    +0.000 C 
ENDROOT
BRANCH   5   7
ATOM      7  C   UNL     1       5.100   3.924  18.145  0.00  0.00    +0.000 C 
ATOM      8  C   UNL     1       5.671   4.029  16.725  0.00  0.00    +0.000 C 
ATOM      9  C   UNL     1       5.720   5.438  16.135  0.00  0.00    +0.000 C 
ATOM     10  C   UNL     1       6.987   6.203  16.517  0.00  0.00    +0.000 C 
ATOM     11  C   UNL     1       7.082   6.647  17.973  0.00  0.00    +0.000 C 
ATOM     12  C   UNL     1       6.903   5.546  19.017  0.00  0.00    +0.000 C 
ATOM     13  C   UNL     1       5.463   5.059  19.115  0.00  0.00    +0.000 C 
ENDBRANCH   5   7
BRANCH   1  15
ATOM     14  O   UNL     1       1.788   5.230  20.842  0.00  0.00    +0.000 OA
ATOM     15  C   UNL     1       1.376   4.256  20.234  0.00  0.00    +0.000 C 
BRANCH  15  16
ATOM     16  O   UNL     1       0.750   3.239  20.874  0.00  0.00    +0.000 OA
ATOM     17  H   UNL     1       0.427   2.519  20.301  0.00  0.00    +0.000 HD
ENDBRANCH  15  16
ENDBRANCH   1  15
TORSDOF 3
ENDMDL
MODEL 7
REMARK VINA RESULT:      -6.8      2.641      5.489
REMARK  Name = 
REMARK  3 active torsions:
REMARK  status: ('A' for Active; 'I' for Inactive)
REMARK    1  A    between atoms: C_2  and  O_3
REMARK    2  A    between atoms: C_2  and  C_4
REMARK    3  A    between atoms: N_8  and  C_9
REMARK                            x       y       z     vdW  Elec       q    Type
REMARK                         _______ _______ _______ _____ _____    ______ ____
ROOT
ATOM      1  C   UNL     1       1.539   3.729  19.780  0.00  0.00    +0.000 C 
ATOM      2  C   UNL     1       1.697   2.246  19.445  0.00  0.00    +0.000 C 
ATOM      3  C   UNL     1       3.026   2.184  18.733  0.00  0.00    +0.000 C 
ATOM      4  O   UNL     1       3.640   1.153  18.506  0.00  0.00    +0.000 OA
ATOM      5  N   UNL     1       3.388   3.472  18.381  0.00  0.00    +0.000 N 
ATOM      6  C   UNL     1       2.347   4.426  18.696  0.00  0.00    +0.000 C 
ENDROOT
BRANCH   5   7
ATOM      7  C   UNL     1       4.681   3.825  17.777  0.00  0.00    +0.000 C 
ATOM      8  C   UNL     1       4.524   4.714  16.537  0.00  0.00    +0.000 C 
ATOM      9  C   UNL     1       4.542   6.220  16.797  0.00  0.00    +0.000 C 
ATOM     10  C   UNL     1       5.953   6.806  16.826  0.00  0.00    +0.000 C 
ATOM     11  C   UNL     1       6.802   6.434  18.038  0.00  0.00    +0.000 C 
ATOM     12  C   UNL     1       6.942   4.939  18.319  0.00  0.00    +0.000 C 
ATOM     13  C   UNL     1       5.656   4.321  18.856  0.00  0.00    +0.000 C 
ENDBRANCH   5   7
BRANCH   1  15
ATOM     14  O   UNL     1       2.146   3.274  22.093  0.00  0.00    +0.000 OA
ATOM     15  C   UNL     1       2.069   4.061  21.163  0.00  0.00    +0.000 C 
BRANCH  15  16
ATOM     16  O   UNL     1       2.542   5.326  21.269  0.00  0.00    +0.000 OA
ATOM     17  H   UNL     1       2.587   5.682  22.175  0.00  0.00    +0.000 HD
ENDBRANCH  15  16
ENDBRANCH   1  15
TORSDOF 3
ENDMDL
MODEL 8
REMARK VINA RESULT:      -6.8      1.230      1.920
REMARK  Name = 
REMARK  3 active torsions:
REMARK  status: ('A' for Active; 'I' for Inactive)
REMARK    1  A    between atoms: C_2  and  O_3
REMARK    2  A    between atoms: C_2  and  C_4
REMARK    3  A    between atoms: N_8  and  C_9
REMARK                            x       y       z     vdW  Elec       q    Type
REMARK                         _______ _______ _______ _____ _____    ______ ____
ROOT
ATOM      1  C   UNL     1       6.341   6.042  17.208  0.00  0.00    +0.000 C 
ATOM      2  C   UNL     1       6.722   5.001  18.260  0.00  0.00    +0.000 C 
ATOM      3  C   UNL     1       5.391   4.531  18.792  0.00  0.00    +0.000 C 
ATOM      4  O   UNL     1       5.235   3.535  19.480  0.00  0.00    +0.000 OA
ATOM      5  N   UNL     1       4.422   5.431  18.384  0.00  0.00    +0.000 N 
ATOM      6  C   UNL     1       4.998   6.565  17.695  0.00  0.00    +0.000 C 
ENDROOT
BRANCH   5   7
ATOM      7  C   UNL     1       2.980   5.243  18.609  0.00  0.00    +0.000 C 
ATOM      8  C   UNL     1       2.345   4.308  17.573  0.00  0.00    +0.000 C 
ATOM      9  C   UNL     1       2.320   2.826  17.948  0.00  0.00    +0.000 C 
ATOM     10  C   UNL     1       1.103   2.442  18.788  0.00  0.00    +0.000 C 
ATOM     11  C   UNL     1       1.096   2.960  20.224  0.00  0.00    +0.000 C 
ATOM     12  C   UNL     1       1.284   4.467  20.388  0.00  0.00    +0.000 C 
ATOM     13  C   UNL     1       2.708   4.916  20.085  0.00  0.00    +0.000 C 
ENDBRANCH   5   7
BRANCH   1  15
ATOM     14  O   UNL     1       5.181   5.106  15.284  0.00  0.00    +0.000 OA
ATOM     15  C   UNL     1       6.226   5.436  15.821  0.00  0.00    +0.000 C 
BRANCH  15  16
ATOM     16  O   UNL     1       7.410   5.354  15.169  0.00  0.00    +0.000 OA
ATOM     17  H   UNL     1       7.483   5.896  14.363  0.00  0.00    +0.000 HD
ENDBRANCH  15  16
ENDBRANCH   1  15
TORSDOF 3
ENDMDL
MODEL 9
REMARK VINA RESULT:      -6.8      1.483      2.981
REMARK  Name = 
REMARK  3 active torsions:
REMARK  status: ('A' for Active; 'I' for Inactive)
REMARK    1  A    between atoms: C_2  and  O_3
REMARK    2  A    between atoms: C_2  and  C_4
REMARK    3  A    between atoms: N_8  and  C_9
REMARK                            x       y       z     vdW  Elec       q    Type
REMARK                         _______ _______ _______ _____ _____    ______ ____
ROOT
ATOM      1  C   UNL     1       7.385   5.065  17.929  0.00  0.00    +0.000 C 
ATOM      2  C   UNL     1       7.089   4.519  16.532  0.00  0.00    +0.000 C 
ATOM      3  C   UNL     1       5.589   4.636  16.418  0.00  0.00    +0.000 C 
ATOM      4  O   UNL     1       4.966   4.530  15.373  0.00  0.00    +0.000 OA
ATOM      5  N   UNL     1       5.075   4.855  17.684  0.00  0.00    +0.000 N 
ATOM      6  C   UNL     1       6.103   4.786  18.699  0.00  0.00    +0.000 C 
ENDROOT
BRANCH   5   7
ATOM      7  C   UNL     1       3.659   5.141  17.957  0.00  0.00    +0.000 C 
ATOM      8  C   UNL     1       2.754   3.934  17.681  0.00  0.00    +0.000 C 
ATOM      9  C   UNL     1       2.514   3.003  18.869  0.00  0.00    +0.000 C 
ATOM     10  C   UNL     1       1.353   3.453  19.756  0.00  0.00    +0.000 C 
ATOM     11  C   UNL     1       1.602   4.704  20.593  0.00  0.00    +0.000 C 
ATOM     12  C   UNL     1       2.068   5.938  19.822  0.00  0.00    +0.000 C 
ATOM     13  C   UNL     1       3.505   5.813  19.330  0.00  0.00    +0.000 C 
ENDBRANCH   5   7
BRANCH   1  15
ATOM     14  O   UNL     1       7.372   7.323  17.023  0.00  0.00    +0.000 OA
ATOM     15  C   UNL     1       7.703   6.549  17.905  0.00  0.00    +0.000 C 
BRANCH  15  16
ATOM     16  O   UNL     1       8.342   6.980  19.020  0.00  0.00    +0.000 OA
ATOM     17  H   UNL     1       7.776   7.112  19.802  0.00  0.00    +0.000 HD
ENDBRANCH  15  16
ENDBRANCH   1  15
TORSDOF 3
ENDMDL
