MODEL 1
REMARK VINA RESULT:      -7.9      0.000      0.000
REMARK  Name = 
REMARK  4 active torsions:
REMARK  status: ('A' for Active; 'I' for Inactive)
REMARK    1  A    between atoms: C_1  and  C_2
REMARK    2  A    between atoms: C_11  and  S_12
REMARK    3  A    between atoms: S_12  and  N_15
REMARK    4  A    between atoms: N_18  and  C_19
REMARK                            x       y       z     vdW  Elec       q    Type
REMARK                         _______ _______ _______ _____ _____    ______ ____
ROOT
ATOM      1  S   UNL     1       3.493   5.385  18.636  0.00  0.00    +0.000 S 
ATOM      2  O   UNL     1       3.744   4.366  19.654  0.00  0.00    +0.000 OA
ATOM      3  O   UNL     1       2.738   5.002  17.452  0.00  0.00    +0.000 OA
ENDROOT
BRANCH   1  14
ATOM      4  C   UNL     1       1.602   5.080  21.064  0.00  0.00    +0.000 C 
ATOM      5  C   UNL     1       1.924   6.457  20.539  0.00  0.00    +0.000 A 
ATOM      6  N   UNL     1       1.244   7.430  21.249  0.00  0.00    +0.000 NA
ATOM      7  C   UNL     1       0.997   8.515  20.607  0.00  0.00    +0.000 A 
ATOM      8  S   UNL     1      -0.015   9.811  21.207  0.00  0.00    +0.000 S 
ATOM      9  C   UNL     1       0.026  10.573  19.644  0.00  0.00    +0.000 A 
ATOM     10  C   UNL     1       0.844   9.934  18.804  0.00  0.00    +0.000 A 
ATOM     11  N   UNL     1       1.424   8.802  19.336  0.00  0.00    +0.000 N 
ATOM     12  C   UNL     1       2.330   7.976  18.680  0.00  0.00    +0.000 A 
ATOM     13  O   UNL     1       2.816   8.240  17.580  0.00  0.00    +0.000 OA
ATOM     14  C   UNL     1       2.613   6.694  19.392  0.00  0.00    +0.000 A 
ENDBRANCH   1  14
BRANCH   1  15
ATOM     15  N   UNL     1       5.028   5.859  18.112  0.00  0.00    +0.000 NA
ATOM     16  C   UNL     1       6.120   4.851  18.026  0.00  0.00    +0.000 C 
ATOM     17  C   UNL     1       6.159   4.184  16.633  0.00  0.00    +0.000 C 
ATOM     18  N   UNL     1       6.333   5.194  15.567  0.00  0.00    +0.000 N 
ATOM     19  C   UNL     1       5.382   6.336  15.629  0.00  0.00    +0.000 C 
ATOM     20  C   UNL     1       5.162   6.899  17.059  0.00  0.00    +0.000 C 
BRANCH  18  21
ATOM     21  C   UNL     1       6.568   4.720  14.260  0.00  0.00    +0.000 A 
ATOM     22  C   UNL     1       7.597   5.191  13.421  0.00  0.00    +0.000 A 
ATOM     23  C   UNL     1       7.758   4.725  12.110  0.00  0.00    +0.000 A 
ATOM     24  C   UNL     1       6.885   3.767  11.592  0.00  0.00    +0.000 A 
ATOM     25  C   UNL     1       5.866   3.273  12.400  0.00  0.00    +0.000 A 
ATOM     26  C   UNL     1       5.719   3.741  13.712  0.00  0.00    +0.000 A 
ENDBRANCH  18  21
ENDBRANCH   1  15
TORSDOF 3
ENDMDL
MODEL 2
REMARK VINA RESULT:      -7.7      2.228      8.029
REMARK  Name = 
REMARK  4 active torsions:
REMARK  status: ('A' for Active; 'I' for Inactive)
REMARK    1  A    between atoms: C_1  and  C_2
REMARK    2  A    between atoms: C_11  and  S_12
REMARK    3  A    between atoms: S_12  and  N_15
REMARK    4  A    between atoms: N_18  and  C_19
REMARK                            x       y       z     vdW  Elec       q    Type
REMARK                         _______ _______ _______ _____ _____    ______ ____
ROOT
ATOM      1  S   UNL     1       5.211   4.671  18.786  0.00  0.00    +0.000 S 
ATOM      2  O   UNL     1       5.408   3.353  19.389  0.00  0.00    +0.000 OA
ATOM      3  O   UNL     1       5.703   5.837  19.506  0.00  0.00    +0.000 OA
ENDROOT
BRANCH   1  14
ATOM      4  C   UNL     1       6.951   6.978  17.685  0.00  0.00    +0.000 C 
ATOM      5  C   UNL     1       6.856   5.684  16.915  0.00  0.00    +0.000 A 
ATOM      6  N   UNL     1       7.578   5.753  15.737  0.00  0.00    +0.000 NA
ATOM      7  C   UNL     1       7.163   4.995  14.787  0.00  0.00    +0.000 A 
ATOM      8  S   UNL     1       7.774   5.041  13.147  0.00  0.00    +0.000 S 
ATOM      9  C   UNL     1       6.490   3.986  12.634  0.00  0.00    +0.000 A 
ATOM     10  C   UNL     1       5.757   3.561  13.666  0.00  0.00    +0.000 A 
ATOM     11  N   UNL     1       6.140   4.086  14.883  0.00  0.00    +0.000 N 
ATOM     12  C   UNL     1       5.560   3.787  16.109  0.00  0.00    +0.000 A 
ATOM     13  O   UNL     1       4.708   2.911  16.261  0.00  0.00    +0.000 OA
ATOM     14  C   UNL     1       6.004   4.672  17.227  0.00  0.00    +0.000 A 
ENDBRANCH   1  14
BRANCH   1  15
ATOM     15  N   UNL     1       3.535   4.840  18.657  0.00  0.00    +0.000 NA
ATOM     16  C   UNL     1       2.682   4.665  19.865  0.00  0.00    +0.000 C 
ATOM     17  C   UNL     1       2.477   6.006  20.604  0.00  0.00    +0.000 C 
ATOM     18  N   UNL     1       1.870   7.017  19.711  0.00  0.00    +0.000 N 
ATOM     19  C   UNL     1       2.556   7.183  18.401  0.00  0.00    +0.000 C 
ATOM     20  C   UNL     1       2.962   5.847  17.726  0.00  0.00    +0.000 C 
BRANCH  18  21
ATOM     21  C   UNL     1       1.457   8.231  20.296  0.00  0.00    +0.000 A 
ATOM     22  C   UNL     1       1.251   8.415  21.677  0.00  0.00    +0.000 A 
ATOM     23  C   UNL     1       0.789   9.628  22.204  0.00  0.00    +0.000 A 
ATOM     24  C   UNL     1       0.513  10.702  21.358  0.00  0.00    +0.000 A 
ATOM     25  C   UNL     1       0.719  10.557  19.989  0.00  0.00    +0.000 A 
ATOM     26  C   UNL     1       1.187   9.342  19.474  0.00  0.00    +0.000 A 
ENDBRANCH  18  21
ENDBRANCH   1  15
TORSDOF 3
ENDMDL
MODEL 3
REMARK VINA RESULT:      -7.5      3.824      9.667
REMARK  Name = 
REMARK  4 active torsions:
REMARK  status: ('A' for Active; 'I' for Inactive)
REMARK    1  A    between atoms: C_1  and  C_2
REMARK    2  A    between atoms: C_11  and  S_12
REMARK    3  A    between atoms: S_12  and  N_15
REMARK    4  A    between atoms: N_18  and  C_19
REMARK                            x       y       z     vdW  Elec       q    Type
REMARK                         _______ _______ _______ _____ _____    ______ ____
ROOT
ATOM      1  S   UNL     1       0.547  10.712  19.774  0.00  0.00    +0.000 S 
ATOM      2  O   UNL     1      -0.411  10.620  20.875  0.00  0.00    +0.000 OA
ATOM      3  O   UNL     1       1.653  11.650  19.901  0.00  0.00    +0.000 OA
ENDROOT
BRANCH   1  14
ATOM      4  C   UNL     1       1.167   8.704  22.045  0.00  0.00    +0.000 C 
ATOM      5  C   UNL     1       1.349   8.283  20.607  0.00  0.00    +0.000 A 
ATOM      6  N   UNL     1       1.838   6.992  20.526  0.00  0.00    +0.000 NA
ATOM      7  C   UNL     1       2.522   6.722  19.474  0.00  0.00    +0.000 A 
ATOM      8  S   UNL     1       3.411   5.234  19.226  0.00  0.00    +0.000 S 
ATOM      9  C   UNL     1       4.163   5.913  17.813  0.00  0.00    +0.000 A 
ATOM     10  C   UNL     1       3.668   7.117  17.519  0.00  0.00    +0.000 A 
ATOM     11  N   UNL     1       2.723   7.571  18.416  0.00  0.00    +0.000 N 
ATOM     12  C   UNL     1       2.038   8.777  18.324  0.00  0.00    +0.000 A 
ATOM     13  O   UNL     1       2.110   9.527  17.350  0.00  0.00    +0.000 OA
ATOM     14  C   UNL     1       1.256   9.129  19.547  0.00  0.00    +0.000 A 
ENDBRANCH   1  14
BRANCH   1  15
ATOM     15  N   UNL     1      -0.370  11.204  18.443  0.00  0.00    +0.000 NA
ATOM     16  C   UNL     1      -1.263  10.227  17.762  0.00  0.00    +0.000 C 
ATOM     17  C   UNL     1      -2.678  10.235  18.384  0.00  0.00    +0.000 C 
ATOM     18  N   UNL     1      -3.279  11.584  18.318  0.00  0.00    +0.000 N 
ATOM     19  C   UNL     1      -2.417  12.676  18.843  0.00  0.00    +0.000 C 
ATOM     20  C   UNL     1      -0.933  12.579  18.400  0.00  0.00    +0.000 C 
BRANCH  18  21
ATOM     21  C   UNL     1      -4.636  11.705  18.680  0.00  0.00    +0.000 A 
ATOM     22  C   UNL     1      -5.132  12.670  19.578  0.00  0.00    +0.000 A 
ATOM     23  C   UNL     1      -6.483  12.717  19.946  0.00  0.00    +0.000 A 
ATOM     24  C   UNL     1      -7.386  11.790  19.425  0.00  0.00    +0.000 A 
ATOM     25  C   UNL     1      -6.930  10.832  18.525  0.00  0.00    +0.000 A 
ATOM     26  C   UNL     1      -5.578  10.799  18.159  0.00  0.00    +0.000 A 
ENDBRANCH  18  21
ENDBRANCH   1  15
TORSDOF 3
ENDMDL
MODEL 4
REMARK VINA RESULT:      -7.4      4.185      9.327
REMARK  Name = 
REMARK  4 active torsions:
REMARK  status: ('A' for Active; 'I' for Inactive)
REMARK    1  A    between atoms: C_1  and  C_2
REMARK    2  A    between atoms: C_11  and  S_12
REMARK    3  A    between atoms: S_12  and  N_15
REMARK    4  A    between atoms: N_18  and  C_19
REMARK                            x       y       z     vdW  Elec       q    Type
REMARK                         _______ _______ _______ _____ _____    ______ ____
ROOT
ATOM      1  S   UNL     1       0.297  10.729  19.601  0.00  0.00    +0.000 S 
ATOM      2  O   UNL     1      -0.158  11.058  18.250  0.00  0.00    +0.000 OA
ATOM      3  O   UNL     1      -0.694  10.675  20.665  0.00  0.00    +0.000 OA
ENDROOT
BRANCH   1  14
ATOM      4  C   UNL     1       0.984   9.002  22.072  0.00  0.00    +0.000 C 
ATOM      5  C   UNL     1       1.181   8.434  20.688  0.00  0.00    +0.000 A 
ATOM      6  N   UNL     1       1.714   7.159  20.746  0.00  0.00    +0.000 NA
ATOM      7  C   UNL     1       2.407   6.800  19.726  0.00  0.00    +0.000 A 
ATOM      8  S   UNL     1       3.346   5.325  19.638  0.00  0.00    +0.000 S 
ATOM      9  C   UNL     1       4.075   5.873  18.157  0.00  0.00    +0.000 A 
ATOM     10  C   UNL     1       3.539   7.021  17.736  0.00  0.00    +0.000 A 
ATOM     11  N   UNL     1       2.579   7.536  18.582  0.00  0.00    +0.000 N 
ATOM     12  C   UNL     1       1.853   8.701  18.363  0.00  0.00    +0.000 A 
ATOM     13  O   UNL     1       1.900   9.343  17.313  0.00  0.00    +0.000 OA
ATOM     14  C   UNL     1       1.059   9.156  19.543  0.00  0.00    +0.000 A 
ENDBRANCH   1  14
BRANCH   1  15
ATOM     15  N   UNL     1       1.385  11.958  20.001  0.00  0.00    +0.000 NA
ATOM     16  C   UNL     1       2.318  12.482  18.965  0.00  0.00    +0.000 C 
ATOM     17  C   UNL     1       1.694  13.669  18.198  0.00  0.00    +0.000 C 
ATOM     18  N   UNL     1       1.320  14.760  19.123  0.00  0.00    +0.000 N 
ATOM     19  C   UNL     1       0.498  14.335  20.288  0.00  0.00    +0.000 C 
ATOM     20  C   UNL     1       0.982  13.022  20.958  0.00  0.00    +0.000 C 
BRANCH  18  21
ATOM     21  C   UNL     1       0.907  15.981  18.551  0.00  0.00    +0.000 A 
ATOM     22  C   UNL     1      -0.430  16.421  18.503  0.00  0.00    +0.000 A 
ATOM     23  C   UNL     1      -0.796  17.619  17.876  0.00  0.00    +0.000 A 
ATOM     24  C   UNL     1       0.173  18.419  17.269  0.00  0.00    +0.000 A 
ATOM     25  C   UNL     1       1.505  18.018  17.310  0.00  0.00    +0.000 A 
ATOM     26  C   UNL     1       1.860  16.822  17.946  0.00  0.00    +0.000 A 
ENDBRANCH  18  21
ENDBRANCH   1  15
TORSDOF 3
ENDMDL
MODEL 5
REMARK VINA RESULT:      -7.3      4.340      9.487
REMARK  Name = 
REMARK  4 active torsions:
REMARK  status: ('A' for Active; 'I' for Inactive)
REMARK    1  A    between atoms: C_1  and  C_2
REMARK    2  A    between atoms: C_11  and  S_12
REMARK    3  A    between atoms: S_12  and  N_15
REMARK    4  A    between atoms: N_18  and  C_19
REMARK                            x       y       z     vdW  Elec       q    Type
REMARK                         _______ _______ _______ _____ _____    ______ ____
ROOT
ATOM      1  S   UNL     1       0.035  11.023  19.958  0.00  0.00    +0.000 S 
ATOM      2  O   UNL     1      -0.511  11.402  18.656  0.00  0.00    +0.000 OA
ATOM      3  O   UNL     1      -0.886  10.886  21.077  0.00  0.00    +0.000 OA
ENDROOT
BRANCH   1  14
ATOM      4  C   UNL     1       0.897   9.187  22.294  0.00  0.00    +0.000 C 
ATOM      5  C   UNL     1       1.037   8.700  20.872  0.00  0.00    +0.000 A 
ATOM      6  N   UNL     1       1.606   7.440  20.833  0.00  0.00    +0.000 NA
ATOM      7  C   UNL     1       2.255   7.157  19.761  0.00  0.00    +0.000 A 
ATOM      8  S   UNL     1       3.228   5.718  19.545  0.00  0.00    +0.000 S 
ATOM      9  C   UNL     1       3.864   6.365  18.061  0.00  0.00    +0.000 A 
ATOM     10  C   UNL     1       3.275   7.518  17.732  0.00  0.00    +0.000 A 
ATOM     11  N   UNL     1       2.347   7.958  18.652  0.00  0.00    +0.000 N 
ATOM     12  C   UNL     1       1.579   9.111  18.534  0.00  0.00    +0.000 A 
ATOM     13  O   UNL     1       1.554   9.809  17.520  0.00  0.00    +0.000 OA
ATOM     14  C   UNL     1       0.836   9.479  19.776  0.00  0.00    +0.000 A 
ENDBRANCH   1  14
BRANCH   1  15
ATOM     15  N   UNL     1       1.111  12.264  20.352  0.00  0.00    +0.000 NA
ATOM     16  C   UNL     1       2.126  12.704  19.355  0.00  0.00    +0.000 C 
ATOM     17  C   UNL     1       1.579  13.842  18.465  0.00  0.00    +0.000 C 
ATOM     18  N   UNL     1       1.157  14.998  19.283  0.00  0.00    +0.000 N 
ATOM     19  C   UNL     1       0.245  14.665  20.410  0.00  0.00    +0.000 C 
ATOM     20  C   UNL     1       0.657  13.396  21.202  0.00  0.00    +0.000 C 
BRANCH  18  21
ATOM     21  C   UNL     1       0.807  16.181  18.599  0.00  0.00    +0.000 A 
ATOM     22  C   UNL     1       1.725  16.999  17.913  0.00  0.00    +0.000 A 
ATOM     23  C   UNL     1       1.336  18.193  17.292  0.00  0.00    +0.000 A 
ATOM     24  C   UNL     1       0.006  18.611  17.343  0.00  0.00    +0.000 A 
ATOM     25  C   UNL     1      -0.928  17.818  18.002  0.00  0.00    +0.000 A 
ATOM     26  C   UNL     1      -0.530  16.622  18.613  0.00  0.00    +0.000 A 
ENDBRANCH  18  21
ENDBRANCH   1  15
TORSDOF 3
ENDMDL
MODEL 6
REMARK VINA RESULT:      -7.3      4.680      6.617
REMARK  Name = 
REMARK  4 active torsions:
REMARK  status: ('A' for Active; 'I' for Inactive)
REMARK    1  A    between atoms: C_1  and  C_2
REMARK    2  A    between atoms: C_11  and  S_12
REMARK    3  A    between atoms: S_12  and  N_15
REMARK    4  A    between atoms: N_18  and  C_19
REMARK                            x       y       z     vdW  Elec       q    Type
REMARK                         _______ _______ _______ _____ _____    ______ ____
ROOT
ATOM      1  S   UNL     1       0.040  10.167  19.129  0.00  0.00    +0.000 S 
ATOM      2  O   UNL     1      -0.848   9.654  20.171  0.00  0.00    +0.000 OA
ATOM      3  O   UNL     1      -0.306   9.905  17.740  0.00  0.00    +0.000 OA
ENDROOT
BRANCH   1  14
ATOM      4  C   UNL     1      -2.403  12.056  19.301  0.00  0.00    +0.000 C 
ATOM      5  C   UNL     1      -1.015  12.611  19.512  0.00  0.00    +0.000 A 
ATOM      6  N   UNL     1      -1.054  13.978  19.723  0.00  0.00    +0.000 NA
ATOM      7  C   UNL     1       0.003  14.622  19.380  0.00  0.00    +0.000 A 
ATOM      8  S   UNL     1       0.134  16.367  19.358  0.00  0.00    +0.000 S 
ATOM      9  C   UNL     1       1.663  16.247  18.539  0.00  0.00    +0.000 A 
ATOM     10  C   UNL     1       2.063  14.979  18.421  0.00  0.00    +0.000 A 
ATOM     11  N   UNL     1       1.164  14.057  18.918  0.00  0.00    +0.000 N 
ATOM     12  C   UNL     1       1.350  12.680  18.939  0.00  0.00    +0.000 A 
ATOM     13  O   UNL     1       2.408  12.133  18.626  0.00  0.00    +0.000 OA
ATOM     14  C   UNL     1       0.128  11.905  19.306  0.00  0.00    +0.000 A 
ENDBRANCH   1  14
BRANCH   1  15
ATOM     15  N   UNL     1       1.525   9.414  19.419  0.00  0.00    +0.000 NA
ATOM     16  C   UNL     1       1.754   8.710  20.711  0.00  0.00    +0.000 C 
ATOM     17  C   UNL     1       1.338   7.225  20.620  0.00  0.00    +0.000 C 
ATOM     18  N   UNL     1       2.075   6.533  19.541  0.00  0.00    +0.000 N 
ATOM     19  C   UNL     1       2.040   7.219  18.222  0.00  0.00    +0.000 C 
ATOM     20  C   UNL     1       2.251   8.754  18.303  0.00  0.00    +0.000 C 
BRANCH  18  21
ATOM     21  C   UNL     1       1.936   5.132  19.458  0.00  0.00    +0.000 A 
ATOM     22  C   UNL     1       2.205   4.377  18.300  0.00  0.00    +0.000 A 
ATOM     23  C   UNL     1       2.001   2.992  18.252  0.00  0.00    +0.000 A 
ATOM     24  C   UNL     1       1.513   2.315  19.370  0.00  0.00    +0.000 A 
ATOM     25  C   UNL     1       1.249   3.030  20.533  0.00  0.00    +0.000 A 
ATOM     26  C   UNL     1       1.463   4.413  20.573  0.00  0.00    +0.000 A 
ENDBRANCH  18  21
ENDBRANCH   1  15
TORSDOF 3
ENDMDL
MODEL 7
REMARK VINA RESULT:      -7.0      3.896      6.336
REMARK  Name = 
REMARK  4 active torsions:
REMARK  status: ('A' for Active; 'I' for Inactive)
REMARK    1  A    between atoms: C_1  and  C_2
REMARK    2  A    between atoms: C_11  and  S_12
REMARK    3  A    between atoms: S_12  and  N_15
REMARK    4  A    between atoms: N_18  and  C_19
REMARK                            x       y       z     vdW  Elec       q    Type
REMARK                         _______ _______ _______ _____ _____    ______ ____
ROOT
ATOM      1  S   UNL     1       0.716  10.972  20.665  0.00  0.00    +0.000 S 
ATOM      2  O   UNL     1       1.244  11.886  19.653  0.00  0.00    +0.000 OA
ATOM      3  O   UNL     1       1.581  10.603  21.777  0.00  0.00    +0.000 OA
ENDROOT
BRANCH   1  14
ATOM      4  C   UNL     1      -0.662  10.046  23.275  0.00  0.00    +0.000 C 
ATOM      5  C   UNL     1      -1.138  11.301  22.585  0.00  0.00    +0.000 A 
ATOM      6  N   UNL     1      -2.217  11.854  23.252  0.00  0.00    +0.000 NA
ATOM      7  C   UNL     1      -3.020  12.547  22.528  0.00  0.00    +0.000 A 
ATOM      8  S   UNL     1      -4.554  13.182  23.084  0.00  0.00    +0.000 S 
ATOM      9  C   UNL     1      -4.963  13.632  21.454  0.00  0.00    +0.000 A 
ATOM     10  C   UNL     1      -3.950  13.414  20.612  0.00  0.00    +0.000 A 
ATOM     11  N   UNL     1      -2.842  12.842  21.201  0.00  0.00    +0.000 N 
ATOM     12  C   UNL     1      -1.651  12.538  20.552  0.00  0.00    +0.000 A 
ATOM     13  O   UNL     1      -1.407  12.868  19.391  0.00  0.00    +0.000 OA
ATOM     14  C   UNL     1      -0.710  11.708  21.361  0.00  0.00    +0.000 A 
ENDBRANCH   1  14
BRANCH   1  15
ATOM     15  N   UNL     1       0.361   9.552  19.822  0.00  0.00    +0.000 NA
ATOM     16  C   UNL     1       0.676   9.460  18.369  0.00  0.00    +0.000 C 
ATOM     17  C   UNL     1       2.100   8.908  18.139  0.00  0.00    +0.000 C 
ATOM     18  N   UNL     1       2.261   7.578  18.765  0.00  0.00    +0.000 N 
ATOM     19  C   UNL     1       1.842   7.505  20.190  0.00  0.00    +0.000 C 
ATOM     20  C   UNL     1       0.507   8.235  20.495  0.00  0.00    +0.000 C 
BRANCH  18  21
ATOM     21  C   UNL     1       3.447   6.870  18.483  0.00  0.00    +0.000 A 
ATOM     22  C   UNL     1       3.984   5.864  19.310  0.00  0.00    +0.000 A 
ATOM     23  C   UNL     1       5.195   5.225  19.013  0.00  0.00    +0.000 A 
ATOM     24  C   UNL     1       5.913   5.579  17.870  0.00  0.00    +0.000 A 
ATOM     25  C   UNL     1       5.403   6.560  17.026  0.00  0.00    +0.000 A 
ATOM     26  C   UNL     1       4.189   7.187  17.329  0.00  0.00    +0.000 A 
ENDBRANCH  18  21
ENDBRANCH   1  15
TORSDOF 3
ENDMDL
MODEL 8
REMARK VINA RESULT:      -7.0      7.794     10.319
REMARK  Name = 
REMARK  4 active torsions:
REMARK  status: ('A' for Active; 'I' for Inactive)
REMARK    1  A    between atoms: C_1  and  C_2
REMARK    2  A    between atoms: C_11  and  S_12
REMARK    3  A    between atoms: S_12  and  N_15
REMARK    4  A    between atoms: N_18  and  C_19
REMARK                            x       y       z     vdW  Elec       q    Type
REMARK                         _______ _______ _______ _____ _____    ______ ____
ROOT
ATOM      1  S   UNL     1      -0.012  12.072  21.623  0.00  0.00    +0.000 S 
ATOM      2  O   UNL     1      -0.830  12.559  22.733  0.00  0.00    +0.000 OA
ATOM      3  O   UNL     1       0.668  10.794  21.779  0.00  0.00    +0.000 OA
ENDROOT
BRANCH   1  14
ATOM      4  C   UNL     1      -3.016  12.803  21.548  0.00  0.00    +0.000 C 
ATOM      5  C   UNL     1      -2.313  12.409  20.272  0.00  0.00    +0.000 A 
ATOM      6  N   UNL     1      -3.192  12.397  19.204  0.00  0.00    +0.000 NA
ATOM      7  C   UNL     1      -2.888  11.599  18.245  0.00  0.00    +0.000 A 
ATOM      8  S   UNL     1      -3.929  11.251  16.881  0.00  0.00    +0.000 S 
ATOM      9  C   UNL     1      -2.863   9.968  16.389  0.00  0.00    +0.000 A 
ATOM     10  C   UNL     1      -1.764   9.919  17.147  0.00  0.00    +0.000 A 
ATOM     11  N   UNL     1      -1.744  10.847  18.167  0.00  0.00    +0.000 N 
ATOM     12  C   UNL     1      -0.708  11.022  19.077  0.00  0.00    +0.000 A 
ATOM     13  O   UNL     1       0.375  10.442  18.993  0.00  0.00    +0.000 OA
ATOM     14  C   UNL     1      -1.044  11.923  20.220  0.00  0.00    +0.000 A 
ENDBRANCH   1  14
BRANCH   1  15
ATOM     15  N   UNL     1       1.185  13.247  21.421  0.00  0.00    +0.000 NA
ATOM     16  C   UNL     1       1.963  13.296  20.153  0.00  0.00    +0.000 C 
ATOM     17  C   UNL     1       1.282  14.213  19.113  0.00  0.00    +0.000 C 
ATOM     18  N   UNL     1       1.116  15.583  19.643  0.00  0.00    +0.000 N 
ATOM     19  C   UNL     1       0.472  15.659  20.982  0.00  0.00    +0.000 C 
ATOM     20  C   UNL     1       0.994  14.605  21.995  0.00  0.00    +0.000 C 
BRANCH  18  21
ATOM     21  C   UNL     1       0.676  16.576  18.743  0.00  0.00    +0.000 A 
ATOM     22  C   UNL     1      -0.662  16.998  18.623  0.00  0.00    +0.000 A 
ATOM     23  C   UNL     1      -1.058  17.952  17.676  0.00  0.00    +0.000 A 
ATOM     24  C   UNL     1      -0.118  18.515  16.811  0.00  0.00    +0.000 A 
ATOM     25  C   UNL     1       1.214  18.129  16.914  0.00  0.00    +0.000 A 
ATOM     26  C   UNL     1       1.600  17.179  17.869  0.00  0.00    +0.000 A 
ENDBRANCH  18  21
ENDBRANCH   1  15
TORSDOF 3
ENDMDL
MODEL 9
REMARK VINA RESULT:      -6.9      8.793     10.486
REMARK  Name = 
REMARK  4 active torsions:
REMARK  status: ('A' for Active; 'I' for Inactive)
REMARK    1  A    between atoms: C_1  and  C_2
REMARK    2  A    between atoms: C_11  and  S_12
REMARK    3  A    between atoms: S_12  and  N_15
REMARK    4  A    between atoms: N_18  and  C_19
REMARK                            x       y       z     vdW  Elec       q    Type
REMARK                         _______ _______ _______ _____ _____    ______ ____
ROOT
ATOM      1  S   UNL     1       0.139  11.682  21.218  0.00  0.00    +0.000 S 
ATOM      2  O   UNL     1       0.316  10.883  22.430  0.00  0.00    +0.000 OA
ATOM      3  O   UNL     1       0.634  11.144  19.960  0.00  0.00    +0.000 OA
ENDROOT
BRANCH   1  14
ATOM      4  C   UNL     1      -1.195  12.578  18.575  0.00  0.00    +0.000 C 
ATOM      5  C   UNL     1      -2.057  12.215  19.760  0.00  0.00    +0.000 A 
ATOM      6  N   UNL     1      -3.398  12.392  19.470  0.00  0.00    +0.000 NA
ATOM      7  C   UNL     1      -4.154  12.646  20.477  0.00  0.00    +0.000 A 
ATOM      8  S   UNL     1      -5.839  13.104  20.357  0.00  0.00    +0.000 S 
ATOM      9  C   UNL     1      -5.859  13.493  22.052  0.00  0.00    +0.000 A 
ATOM     10  C   UNL     1      -4.706  13.175  22.646  0.00  0.00    +0.000 A 
ATOM     11  N   UNL     1      -3.753  12.667  21.788  0.00  0.00    +0.000 N 
ATOM     12  C   UNL     1      -2.484  12.236  22.157  0.00  0.00    +0.000 A 
ATOM     13  O   UNL     1      -2.111  12.145  23.327  0.00  0.00    +0.000 OA
ATOM     14  C   UNL     1      -1.574  11.961  21.005  0.00  0.00    +0.000 A 
ENDBRANCH   1  14
BRANCH   1  15
ATOM     15  N   UNL     1       0.992  13.110  21.515  0.00  0.00    +0.000 NA
ATOM     16  C   UNL     1       2.205  13.424  20.710  0.00  0.00    +0.000 C 
ATOM     17  C   UNL     1       1.843  14.235  19.446  0.00  0.00    +0.000 C 
ATOM     18  N   UNL     1       1.147  15.490  19.802  0.00  0.00    +0.000 N 
ATOM     19  C   UNL     1      -0.008  15.322  20.724  0.00  0.00    +0.000 C 
ATOM     20  C   UNL     1       0.259  14.344  21.899  0.00  0.00    +0.000 C 
BRANCH  18  21
ATOM     21  C   UNL     1       0.918  16.418  18.765  0.00  0.00    +0.000 A 
ATOM     22  C   UNL     1       1.935  16.994  17.979  0.00  0.00    +0.000 A 
ATOM     23  C   UNL     1       1.660  17.952  16.995  0.00  0.00    +0.000 A 
ATOM     24  C   UNL     1       0.348  18.369  16.768  0.00  0.00    +0.000 A 
ATOM     25  C   UNL     1      -0.681  17.810  17.519  0.00  0.00    +0.000 A 
ATOM     26  C   UNL     1      -0.395  16.848  18.495  0.00  0.00    +0.000 A 
ENDBRANCH  18  21
ENDBRANCH   1  15
TORSDOF 3
ENDMDL
