MODEL 1
REMARK VINA RESULT:      -9.6      0.000      0.000
REMARK  Name = 
REMARK  6 active torsions:
REMARK  status: ('A' for Active; 'I' for Inactive)
REMARK    1  A    between atoms: C_1  and  O_2
REMARK    2  A    between atoms: O_2  and  C_3
REMARK    3  A    between atoms: C_6  and  S_7
REMARK    4  A    between atoms: S_7  and  N_10
REMARK    5  A    between atoms: N_13  and  C_14
REMARK    6  A    between atoms: C_16  and  C_17
REMARK                            x       y       z     vdW  Elec       q    Type
REMARK                         _______ _______ _______ _____ _____    ______ ____
ROOT
ATOM      1  N   UNL     1       2.614   1.967  19.887  0.00  0.00    +0.000 NA
ATOM      2  C   UNL     1       2.999   1.505  18.513  0.00  0.00    +0.000 C 
ATOM      3  C   UNL     1       3.669   2.590  17.645  0.00  0.00    +0.000 C 
ATOM      4  N   UNL     1       4.761   3.303  18.356  0.00  0.00    +0.000 N 
ATOM      5  C   UNL     1       4.388   3.758  19.715  0.00  0.00    +0.000 C 
ATOM      6  C   UNL     1       3.797   2.609  20.549  0.00  0.00    +0.000 C 
ENDROOT
BRANCH   4   7
ATOM      7  C   UNL     1       5.717   4.023  17.603  0.00  0.00    +0.000 A 
ATOM      8  C   UNL     1       5.822   3.931  16.265  0.00  0.00    +0.000 A 
ATOM      9  C   UNL     1       6.832   4.799  15.579  0.00  0.00    +0.000 A 
ATOM     10  N   UNL     1       7.606   5.652  16.186  0.00  0.00    +0.000 NA
ATOM     11  C   UNL     1       7.480   5.737  17.543  0.00  0.00    +0.000 A 
ATOM     12  N   UNL     1       8.104   6.539  18.379  0.00  0.00    +0.000 NA
ATOM     13  C   UNL     1       7.573   6.216  19.587  0.00  0.00    +0.000 A 
ATOM     14  N   UNL     1       6.662   5.246  19.589  0.00  0.00    +0.000 NA
ATOM     15  N   UNL     1       6.576   4.938  18.262  0.00  0.00    +0.000 N 
BRANCH   9  16
ATOM     16  C   UNL     1       6.885   4.682  14.088  0.00  0.00    +0.000 A 
ATOM     17  C   UNL     1       6.106   3.704  13.458  0.00  0.00    +0.000 A 
ATOM     18  C   UNL     1       6.207   3.505  12.079  0.00  0.00    +0.000 A 
ATOM     19  C   UNL     1       7.080   4.286  11.322  0.00  0.00    +0.000 A 
ATOM     20  C   UNL     1       7.832   5.285  11.936  0.00  0.00    +0.000 A 
ATOM     21  C   UNL     1       7.726   5.493  13.312  0.00  0.00    +0.000 A 
ENDBRANCH   9  16
ENDBRANCH   4   7
BRANCH   1  22
ATOM     22  S   UNL     1       1.161   2.826  20.076  0.00  0.00    +0.000 S 
ATOM     23  O   UNL     1       0.850   2.854  21.487  0.00  0.00    +0.000 OA
ATOM     24  O   UNL     1       0.205   2.293  19.126  0.00  0.00    +0.000 OA
BRANCH  22  28
ATOM     25  C   UNL     1       2.357   7.032  18.705  0.00  0.00    +0.000 A 
ATOM     26  C   UNL     1       2.209   6.754  20.069  0.00  0.00    +0.000 A 
ATOM     27  C   UNL     1       1.816   5.482  20.504  0.00  0.00    +0.000 A 
ATOM     28  C   UNL     1       1.539   4.489  19.560  0.00  0.00    +0.000 A 
ATOM     29  C   UNL     1       1.684   4.762  18.196  0.00  0.00    +0.000 A 
ATOM     30  C   UNL     1       2.082   6.031  17.772  0.00  0.00    +0.000 A 
BRANCH  25  32
ATOM     31  C   UNL     1       1.732   9.167  17.880  0.00  0.00    +0.000 C 
ATOM     32  O   UNL     1       2.745   8.309  18.398  0.00  0.00    +0.000 OA
ENDBRANCH  25  32
ENDBRANCH  22  28
ENDBRANCH   1  22
TORSDOF 5
ENDMDL
MODEL 2
REMARK VINA RESULT:      -9.0      3.344      8.073
REMARK  Name = 
REMARK  6 active torsions:
REMARK  status: ('A' for Active; 'I' for Inactive)
REMARK    1  A    between atoms: C_1  and  O_2
REMARK    2  A    between atoms: O_2  and  C_3
REMARK    3  A    between atoms: C_6  and  S_7
REMARK    4  A    between atoms: S_7  and  N_10
REMARK    5  A    between atoms: N_13  and  C_14
REMARK    6  A    between atoms: C_16  and  C_17
REMARK                            x       y       z     vdW  Elec       q    Type
REMARK                         _______ _______ _______ _____ _____    ______ ____
ROOT
ATOM      1  N   UNL     1       6.887   4.426  15.986  0.00  0.00    +0.000 NA
ATOM      2  C   UNL     1       7.238   5.152  17.251  0.00  0.00    +0.000 C 
ATOM      3  C   UNL     1       6.051   5.883  17.912  0.00  0.00    +0.000 C 
ATOM      4  N   UNL     1       4.845   5.025  18.039  0.00  0.00    +0.000 N 
ATOM      5  C   UNL     1       4.496   4.302  16.795  0.00  0.00    +0.000 C 
ATOM      6  C   UNL     1       5.704   3.536  16.232  0.00  0.00    +0.000 C 
ENDROOT
BRANCH   4   7
ATOM      7  C   UNL     1       3.834   5.392  18.956  0.00  0.00    +0.000 A 
ATOM      8  C   UNL     1       3.281   6.619  18.991  0.00  0.00    +0.000 A 
ATOM      9  C   UNL     1       2.169   6.859  19.966  0.00  0.00    +0.000 A 
ATOM     10  N   UNL     1       1.685   5.958  20.771  0.00  0.00    +0.000 NA
ATOM     11  C   UNL     1       2.253   4.717  20.715  0.00  0.00    +0.000 A 
ATOM     12  N   UNL     1       1.925   3.631  21.382  0.00  0.00    +0.000 NA
ATOM     13  C   UNL     1       2.792   2.696  20.914  0.00  0.00    +0.000 A 
ATOM     14  N   UNL     1       3.670   3.110  20.003  0.00  0.00    +0.000 NA
ATOM     15  N   UNL     1       3.317   4.420  19.848  0.00  0.00    +0.000 N 
BRANCH   9  16
ATOM     16  C   UNL     1       1.568   8.230  19.942  0.00  0.00    +0.000 A 
ATOM     17  C   UNL     1       1.554   8.941  18.736  0.00  0.00    +0.000 A 
ATOM     18  C   UNL     1       1.089  10.258  18.702  0.00  0.00    +0.000 A 
ATOM     19  C   UNL     1       0.630  10.868  19.870  0.00  0.00    +0.000 A 
ATOM     20  C   UNL     1       0.607  10.155  21.066  0.00  0.00    +0.000 A 
ATOM     21  C   UNL     1       1.062   8.835  21.101  0.00  0.00    +0.000 A 
ENDBRANCH   9  16
ENDBRANCH   4   7
BRANCH   1  22
ATOM     22  S   UNL     1       6.801   5.312  14.540  0.00  0.00    +0.000 S 
ATOM     23  O   UNL     1       8.120   5.837  14.269  0.00  0.00    +0.000 OA
ATOM     24  O   UNL     1       5.663   6.205  14.635  0.00  0.00    +0.000 OA
BRANCH  22  28
ATOM     25  C   UNL     1       5.752   2.061  11.485  0.00  0.00    +0.000 A 
ATOM     26  C   UNL     1       7.092   2.338  11.783  0.00  0.00    +0.000 A 
ATOM     27  C   UNL     1       7.431   3.347  12.692  0.00  0.00    +0.000 A 
ATOM     28  C   UNL     1       6.417   4.107  13.285  0.00  0.00    +0.000 A 
ATOM     29  C   UNL     1       5.077   3.835  12.989  0.00  0.00    +0.000 A 
ATOM     30  C   UNL     1       4.749   2.822  12.086  0.00  0.00    +0.000 A 
BRANCH  25  32
ATOM     31  C   UNL     1       5.945  -0.251  10.988  0.00  0.00    +0.000 C 
ATOM     32  O   UNL     1       5.541   1.054  10.582  0.00  0.00    +0.000 OA
ENDBRANCH  25  32
ENDBRANCH  22  28
ENDBRANCH   1  22
TORSDOF 5
ENDMDL
MODEL 3
REMARK VINA RESULT:      -8.5      3.289      7.866
REMARK  Name = 
REMARK  6 active torsions:
REMARK  status: ('A' for Active; 'I' for Inactive)
REMARK    1  A    between atoms: C_1  and  O_2
REMARK    2  A    between atoms: O_2  and  C_3
REMARK    3  A    between atoms: C_6  and  S_7
REMARK    4  A    between atoms: S_7  and  N_10
REMARK    5  A    between atoms: N_13  and  C_14
REMARK    6  A    between atoms: C_16  and  C_17
REMARK                            x       y       z     vdW  Elec       q    Type
REMARK                         _______ _______ _______ _____ _____    ______ ____
ROOT
ATOM      1  N   UNL     1       6.784   4.196  16.309  0.00  0.00    +0.000 NA
ATOM      2  C   UNL     1       7.149   4.787  17.638  0.00  0.00    +0.000 C 
ATOM      3  C   UNL     1       6.004   5.560  18.324  0.00  0.00    +0.000 C 
ATOM      4  N   UNL     1       4.729   4.800  18.346  0.00  0.00    +0.000 N 
ATOM      5  C   UNL     1       4.364   4.210  17.038  0.00  0.00    +0.000 C 
ATOM      6  C   UNL     1       5.525   3.392  16.448  0.00  0.00    +0.000 C 
ENDROOT
BRANCH   4   7
ATOM      7  C   UNL     1       3.719   5.177  19.261  0.00  0.00    +0.000 A 
ATOM      8  C   UNL     1       3.190   6.413  19.307  0.00  0.00    +0.000 A 
ATOM      9  C   UNL     1       2.077   6.665  20.278  0.00  0.00    +0.000 A 
ATOM     10  N   UNL     1       1.572   5.765  21.071  0.00  0.00    +0.000 NA
ATOM     11  C   UNL     1       2.116   4.515  21.005  0.00  0.00    +0.000 A 
ATOM     12  N   UNL     1       1.763   3.428  21.659  0.00  0.00    +0.000 NA
ATOM     13  C   UNL     1       2.615   2.481  21.186  0.00  0.00    +0.000 A 
ATOM     14  N   UNL     1       3.505   2.887  20.284  0.00  0.00    +0.000 NA
ATOM     15  N   UNL     1       3.179   4.206  20.141  0.00  0.00    +0.000 N 
BRANCH   9  16
ATOM     16  C   UNL     1       1.503   8.047  20.265  0.00  0.00    +0.000 A 
ATOM     17  C   UNL     1       0.896   8.538  21.428  0.00  0.00    +0.000 A 
ATOM     18  C   UNL     1       0.266   9.786  21.418  0.00  0.00    +0.000 A 
ATOM     19  C   UNL     1       0.245  10.550  20.252  0.00  0.00    +0.000 A 
ATOM     20  C   UNL     1       0.879  10.084  19.102  0.00  0.00    +0.000 A 
ATOM     21  C   UNL     1       1.517   8.843  19.110  0.00  0.00    +0.000 A 
ENDBRANCH   9  16
ENDBRANCH   4   7
BRANCH   1  22
ATOM     22  S   UNL     1       6.820   5.198  14.938  0.00  0.00    +0.000 S 
ATOM     23  O   UNL     1       8.206   5.401  14.582  0.00  0.00    +0.000 OA
ATOM     24  O   UNL     1       5.956   6.332  15.197  0.00  0.00    +0.000 OA
BRANCH  22  28
ATOM     25  C   UNL     1       4.924   2.892  11.461  0.00  0.00    +0.000 A 
ATOM     26  C   UNL     1       4.121   3.652  12.321  0.00  0.00    +0.000 A 
ATOM     27  C   UNL     1       4.680   4.339  13.405  0.00  0.00    +0.000 A 
ATOM     28  C   UNL     1       6.053   4.239  13.648  0.00  0.00    +0.000 A 
ATOM     29  C   UNL     1       6.860   3.480  12.793  0.00  0.00    +0.000 A 
ATOM     30  C   UNL     1       6.294   2.803  11.711  0.00  0.00    +0.000 A 
BRANCH  25  32
ATOM     31  C   UNL     1       3.088   2.903   9.958  0.00  0.00    +0.000 C 
ATOM     32  O   UNL     1       4.268   2.265  10.436  0.00  0.00    +0.000 OA
ENDBRANCH  25  32
ENDBRANCH  22  28
ENDBRANCH   1  22
TORSDOF 5
ENDMDL
MODEL 4
REMARK VINA RESULT:      -8.5      4.733      6.657
REMARK  Name = 
REMARK  6 active torsions:
REMARK  status: ('A' for Active; 'I' for Inactive)
REMARK    1  A    between atoms: C_1  and  O_2
REMARK    2  A    between atoms: O_2  and  C_3
REMARK    3  A    between atoms: C_6  and  S_7
REMARK    4  A    between atoms: S_7  and  N_10
REMARK    5  A    between atoms: N_13  and  C_14
REMARK    6  A    between atoms: C_16  and  C_17
REMARK                            x       y       z     vdW  Elec       q    Type
REMARK                         _______ _______ _______ _____ _____    ______ ____
ROOT
ATOM      1  N   UNL     1       0.145   9.588  20.552  0.00  0.00    +0.000 NA
ATOM      2  C   UNL     1       0.702   9.461  19.165  0.00  0.00    +0.000 C 
ATOM      3  C   UNL     1       1.903   8.500  19.050  0.00  0.00    +0.000 C 
ATOM      4  N   UNL     1       1.659   7.193  19.710  0.00  0.00    +0.000 N 
ATOM      5  C   UNL     1       1.105   7.311  21.078  0.00  0.00    +0.000 C 
ATOM      6  C   UNL     1      -0.133   8.221  21.106  0.00  0.00    +0.000 C 
ENDROOT
BRANCH   4   7
ATOM      7  C   UNL     1       2.469   6.086  19.364  0.00  0.00    +0.000 A 
ATOM      8  C   UNL     1       3.352   6.108  18.349  0.00  0.00    +0.000 A 
ATOM      9  C   UNL     1       4.199   4.892  18.130  0.00  0.00    +0.000 A 
ATOM     10  N   UNL     1       4.154   3.819  18.864  0.00  0.00    +0.000 NA
ATOM     11  C   UNL     1       3.257   3.818  19.894  0.00  0.00    +0.000 A 
ATOM     12  N   UNL     1       3.046   2.887  20.800  0.00  0.00    +0.000 NA
ATOM     13  C   UNL     1       2.076   3.422  21.587  0.00  0.00    +0.000 A 
ATOM     14  N   UNL     1       1.634   4.628  21.237  0.00  0.00    +0.000 NA
ATOM     15  N   UNL     1       2.409   4.908  20.148  0.00  0.00    +0.000 N 
BRANCH   9  16
ATOM     16  C   UNL     1       5.188   4.981  17.009  0.00  0.00    +0.000 A 
ATOM     17  C   UNL     1       5.054   4.113  15.918  0.00  0.00    +0.000 A 
ATOM     18  C   UNL     1       6.015   4.106  14.904  0.00  0.00    +0.000 A 
ATOM     19  C   UNL     1       7.108   4.969  14.970  0.00  0.00    +0.000 A 
ATOM     20  C   UNL     1       7.229   5.861  16.034  0.00  0.00    +0.000 A 
ATOM     21  C   UNL     1       6.266   5.878  17.044  0.00  0.00    +0.000 A 
ENDBRANCH   9  16
ENDBRANCH   4   7
BRANCH   1  22
ATOM     22  S   UNL     1       0.916  10.636  21.643  0.00  0.00    +0.000 S 
ATOM     23  O   UNL     1       1.824  11.466  20.884  0.00  0.00    +0.000 OA
ATOM     24  O   UNL     1       1.403   9.841  22.752  0.00  0.00    +0.000 OA
BRANCH  22  28
ATOM     25  C   UNL     1      -2.569  13.233  23.097  0.00  0.00    +0.000 A 
ATOM     26  C   UNL     1      -1.505  13.814  22.397  0.00  0.00    +0.000 A 
ATOM     27  C   UNL     1      -0.419  13.041  21.970  0.00  0.00    +0.000 A 
ATOM     28  C   UNL     1      -0.384  11.677  22.276  0.00  0.00    +0.000 A 
ATOM     29  C   UNL     1      -1.444  11.092  22.978  0.00  0.00    +0.000 A 
ATOM     30  C   UNL     1      -2.526  11.870  23.393  0.00  0.00    +0.000 A 
BRANCH  25  32
ATOM     31  C   UNL     1      -3.555  15.379  22.865  0.00  0.00    +0.000 C 
ATOM     32  O   UNL     1      -3.575  14.086  23.464  0.00  0.00    +0.000 OA
ENDBRANCH  25  32
ENDBRANCH  22  28
ENDBRANCH   1  22
TORSDOF 5
ENDMDL
MODEL 5
REMARK VINA RESULT:      -8.4      4.641      6.672
REMARK  Name = 
REMARK  6 active torsions:
REMARK  status: ('A' for Active; 'I' for Inactive)
REMARK    1  A    between atoms: C_1  and  O_2
REMARK    2  A    between atoms: O_2  and  C_3
REMARK    3  A    between atoms: C_6  and  S_7
REMARK    4  A    between atoms: S_7  and  N_10
REMARK    5  A    between atoms: N_13  and  C_14
REMARK    6  A    between atoms: C_16  and  C_17
REMARK                            x       y       z     vdW  Elec       q    Type
REMARK                         _______ _______ _______ _____ _____    ______ ____
ROOT
ATOM      1  N   UNL     1       0.191   9.636  20.199  0.00  0.00    +0.000 NA
ATOM      2  C   UNL     1       0.723   9.397  18.817  0.00  0.00    +0.000 C 
ATOM      3  C   UNL     1       1.933   8.441  18.760  0.00  0.00    +0.000 C 
ATOM      4  N   UNL     1       1.716   7.192  19.534  0.00  0.00    +0.000 N 
ATOM      5  C   UNL     1       1.187   7.421  20.897  0.00  0.00    +0.000 C 
ATOM      6  C   UNL     1      -0.061   8.319  20.872  0.00  0.00    +0.000 C 
ENDROOT
BRANCH   4   7
ATOM      7  C   UNL     1       2.531   6.068  19.267  0.00  0.00    +0.000 A 
ATOM      8  C   UNL     1       3.443   6.037  18.277  0.00  0.00    +0.000 A 
ATOM      9  C   UNL     1       4.291   4.810  18.144  0.00  0.00    +0.000 A 
ATOM     10  N   UNL     1       4.222   3.775  18.930  0.00  0.00    +0.000 NA
ATOM     11  C   UNL     1       3.297   3.828  19.933  0.00  0.00    +0.000 A 
ATOM     12  N   UNL     1       3.058   2.945  20.879  0.00  0.00    +0.000 NA
ATOM     13  C   UNL     1       2.068   3.521  21.610  0.00  0.00    +0.000 A 
ATOM     14  N   UNL     1       1.640   4.709  21.188  0.00  0.00    +0.000 NA
ATOM     15  N   UNL     1       2.445   4.931  20.108  0.00  0.00    +0.000 N 
BRANCH   9  16
ATOM     16  C   UNL     1       5.311   4.840  17.048  0.00  0.00    +0.000 A 
ATOM     17  C   UNL     1       6.373   5.748  17.137  0.00  0.00    +0.000 A 
ATOM     18  C   UNL     1       7.285   5.869  16.085  0.00  0.00    +0.000 A 
ATOM     19  C   UNL     1       7.145   5.078  14.944  0.00  0.00    +0.000 A 
ATOM     20  C   UNL     1       6.112   4.146  14.864  0.00  0.00    +0.000 A 
ATOM     21  C   UNL     1       5.205   4.017  15.917  0.00  0.00    +0.000 A 
ENDBRANCH   9  16
ENDBRANCH   4   7
BRANCH   1  22
ATOM     22  S   UNL     1       0.971  10.781  21.181  0.00  0.00    +0.000 S 
ATOM     23  O   UNL     1       1.757  11.634  20.319  0.00  0.00    +0.000 OA
ATOM     24  O   UNL     1       1.598  10.069  22.277  0.00  0.00    +0.000 OA
BRANCH  22  28
ATOM     25  C   UNL     1      -2.567  13.178  22.838  0.00  0.00    +0.000 A 
ATOM     26  C   UNL     1      -1.714  13.751  21.887  0.00  0.00    +0.000 A 
ATOM     27  C   UNL     1      -0.613  13.044  21.391  0.00  0.00    +0.000 A 
ATOM     28  C   UNL     1      -0.345  11.760  21.877  0.00  0.00    +0.000 A 
ATOM     29  C   UNL     1      -1.192  11.184  22.830  0.00  0.00    +0.000 A 
ATOM     30  C   UNL     1      -2.292  11.894  23.313  0.00  0.00    +0.000 A 
BRANCH  25  32
ATOM     31  C   UNL     1      -4.760  13.275  23.737  0.00  0.00    +0.000 C 
ATOM     32  O   UNL     1      -3.610  13.962  23.250  0.00  0.00    +0.000 OA
ENDBRANCH  25  32
ENDBRANCH  22  28
ENDBRANCH   1  22
TORSDOF 5
ENDMDL
MODEL 6
REMARK VINA RESULT:      -8.4      8.001     12.215
REMARK  Name = 
REMARK  6 active torsions:
REMARK  status: ('A' for Active; 'I' for Inactive)
REMARK    1  A    between atoms: C_1  and  O_2
REMARK    2  A    between atoms: O_2  and  C_3
REMARK    3  A    between atoms: C_6  and  S_7
REMARK    4  A    between atoms: S_7  and  N_10
REMARK    5  A    between atoms: N_13  and  C_14
REMARK    6  A    between atoms: C_16  and  C_17
REMARK                            x       y       z     vdW  Elec       q    Type
REMARK                         _______ _______ _______ _____ _____    ______ ____
ROOT
ATOM      1  N   UNL     1       0.980  10.288  19.871  0.00  0.00    +0.000 NA
ATOM      2  C   UNL     1      -0.152  10.471  18.904  0.00  0.00    +0.000 C 
ATOM      3  C   UNL     1      -1.419  11.097  19.523  0.00  0.00    +0.000 C 
ATOM      4  N   UNL     1      -1.127  12.311  20.327  0.00  0.00    +0.000 N 
ATOM      5  C   UNL     1      -0.008  12.138  21.280  0.00  0.00    +0.000 C 
ATOM      6  C   UNL     1       1.244  11.582  20.582  0.00  0.00    +0.000 C 
ENDROOT
BRANCH   4   7
ATOM      7  C   UNL     1      -2.178  13.210  20.620  0.00  0.00    +0.000 A 
ATOM      8  C   UNL     1      -3.354  12.824  21.147  0.00  0.00    +0.000 A 
ATOM      9  C   UNL     1      -4.359  13.886  21.475  0.00  0.00    +0.000 A 
ATOM     10  N   UNL     1      -4.168  15.161  21.302  0.00  0.00    +0.000 NA
ATOM     11  C   UNL     1      -2.966  15.535  20.773  0.00  0.00    +0.000 A 
ATOM     12  N   UNL     1      -2.510  16.748  20.541  0.00  0.00    +0.000 NA
ATOM     13  C   UNL     1      -1.263  16.531  20.047  0.00  0.00    +0.000 A 
ATOM     14  N   UNL     1      -0.891  15.259  19.926  0.00  0.00    +0.000 NA
ATOM     15  N   UNL     1      -1.982  14.599  20.414  0.00  0.00    +0.000 N 
BRANCH   9  16
ATOM     16  C   UNL     1      -5.637  13.404  22.088  0.00  0.00    +0.000 A 
ATOM     17  C   UNL     1      -5.920  13.747  23.416  0.00  0.00    +0.000 A 
ATOM     18  C   UNL     1      -7.056  13.233  24.048  0.00  0.00    +0.000 A 
ATOM     19  C   UNL     1      -7.916  12.382  23.354  0.00  0.00    +0.000 A 
ATOM     20  C   UNL     1      -7.661  12.067  22.022  0.00  0.00    +0.000 A 
ATOM     21  C   UNL     1      -6.532  12.585  21.385  0.00  0.00    +0.000 A 
ENDBRANCH   9  16
ENDBRANCH   4   7
BRANCH   1  22
ATOM     22  S   UNL     1       0.967   8.927  20.886  0.00  0.00    +0.000 S 
ATOM     23  O   UNL     1      -0.411   8.534  21.074  0.00  0.00    +0.000 OA
ATOM     24  O   UNL     1       1.807   9.221  22.030  0.00  0.00    +0.000 OA
BRANCH  22  28
ATOM     25  C   UNL     1       3.258   5.668  18.621  0.00  0.00    +0.000 A 
ATOM     26  C   UNL     1       3.095   6.936  18.051  0.00  0.00    +0.000 A 
ATOM     27  C   UNL     1       2.374   7.935  18.717  0.00  0.00    +0.000 A 
ATOM     28  C   UNL     1       1.783   7.649  19.951  0.00  0.00    +0.000 A 
ATOM     29  C   UNL     1       1.941   6.382  20.524  0.00  0.00    +0.000 A 
ATOM     30  C   UNL     1       2.668   5.395  19.856  0.00  0.00    +0.000 A 
BRANCH  25  32
ATOM     31  C   UNL     1       4.981   4.037  18.581  0.00  0.00    +0.000 C 
ATOM     32  O   UNL     1       3.981   4.772  17.880  0.00  0.00    +0.000 OA
ENDBRANCH  25  32
ENDBRANCH  22  28
ENDBRANCH   1  22
TORSDOF 5
ENDMDL
MODEL 7
REMARK VINA RESULT:      -8.4      4.597      6.877
REMARK  Name = 
REMARK  6 active torsions:
REMARK  status: ('A' for Active; 'I' for Inactive)
REMARK    1  A    between atoms: C_1  and  O_2
REMARK    2  A    between atoms: O_2  and  C_3
REMARK    3  A    between atoms: C_6  and  S_7
REMARK    4  A    between atoms: S_7  and  N_10
REMARK    5  A    between atoms: N_13  and  C_14
REMARK    6  A    between atoms: C_16  and  C_17
REMARK                            x       y       z     vdW  Elec       q    Type
REMARK                         _______ _______ _______ _____ _____    ______ ____
ROOT
ATOM      1  N   UNL     1       0.227  10.236  19.521  0.00  0.00    +0.000 NA
ATOM      2  C   UNL     1       0.334   9.635  18.151  0.00  0.00    +0.000 C 
ATOM      3  C   UNL     1       1.534   8.684  17.968  0.00  0.00    +0.000 C 
ATOM      4  N   UNL     1       1.649   7.685  19.061  0.00  0.00    +0.000 N 
ATOM      5  C   UNL     1       1.540   8.271  20.416  0.00  0.00    +0.000 C 
ATOM      6  C   UNL     1       0.283   9.146  20.551  0.00  0.00    +0.000 C 
ENDROOT
BRANCH   4   7
ATOM      7  C   UNL     1       2.423   6.521  18.850  0.00  0.00    +0.000 A 
ATOM      8  C   UNL     1       3.339   6.412  17.870  0.00  0.00    +0.000 A 
ATOM      9  C   UNL     1       4.141   5.149  17.797  0.00  0.00    +0.000 A 
ATOM     10  N   UNL     1       4.028   4.153  18.627  0.00  0.00    +0.000 NA
ATOM     11  C   UNL     1       3.099   4.285  19.620  0.00  0.00    +0.000 A 
ATOM     12  N   UNL     1       2.821   3.454  20.602  0.00  0.00    +0.000 NA
ATOM     13  C   UNL     1       1.849   4.099  21.299  0.00  0.00    +0.000 A 
ATOM     14  N   UNL     1       1.469   5.282  20.822  0.00  0.00    +0.000 NA
ATOM     15  N   UNL     1       2.289   5.426  19.740  0.00  0.00    +0.000 N 
BRANCH   9  16
ATOM     16  C   UNL     1       5.168   5.093  16.709  0.00  0.00    +0.000 A 
ATOM     17  C   UNL     1       4.868   4.397  15.532  0.00  0.00    +0.000 A 
ATOM     18  C   UNL     1       5.839   4.244  14.539  0.00  0.00    +0.000 A 
ATOM     19  C   UNL     1       7.110   4.792  14.714  0.00  0.00    +0.000 A 
ATOM     20  C   UNL     1       7.404   5.517  15.866  0.00  0.00    +0.000 A 
ATOM     21  C   UNL     1       6.433   5.680  16.856  0.00  0.00    +0.000 A 
ENDBRANCH   9  16
ENDBRANCH   4   7
BRANCH   1  22
ATOM     22  S   UNL     1       1.184  11.590  19.890  0.00  0.00    +0.000 S 
ATOM     23  O   UNL     1       2.035  11.848  18.750  0.00  0.00    +0.000 OA
ATOM     24  O   UNL     1       1.761  11.379  21.202  0.00  0.00    +0.000 OA
BRANCH  22  28
ATOM     25  C   UNL     1      -1.695  15.106  20.483  0.00  0.00    +0.000 A 
ATOM     26  C   UNL     1      -2.165  13.790  20.580  0.00  0.00    +0.000 A 
ATOM     27  C   UNL     1      -1.305  12.705  20.374  0.00  0.00    +0.000 A 
ATOM     28  C   UNL     1       0.031  12.941  20.036  0.00  0.00    +0.000 A 
ATOM     29  C   UNL     1       0.504  14.253  19.936  0.00  0.00    +0.000 A 
ATOM     30  C   UNL     1      -0.359  15.329  20.150  0.00  0.00    +0.000 A 
BRANCH  25  32
ATOM     31  C   UNL     1      -3.364  15.990  21.919  0.00  0.00    +0.000 C 
ATOM     32  O   UNL     1      -2.625  16.086  20.705  0.00  0.00    +0.000 OA
ENDBRANCH  25  32
ENDBRANCH  22  28
ENDBRANCH   1  22
TORSDOF 5
ENDMDL
MODEL 8
REMARK VINA RESULT:      -8.4      4.610      6.681
REMARK  Name = 
REMARK  6 active torsions:
REMARK  status: ('A' for Active; 'I' for Inactive)
REMARK    1  A    between atoms: C_1  and  O_2
REMARK    2  A    between atoms: O_2  and  C_3
REMARK    3  A    between atoms: C_6  and  S_7
REMARK    4  A    between atoms: S_7  and  N_10
REMARK    5  A    between atoms: N_13  and  C_14
REMARK    6  A    between atoms: C_16  and  C_17
REMARK                            x       y       z     vdW  Elec       q    Type
REMARK                         _______ _______ _______ _____ _____    ______ ____
ROOT
ATOM      1  N   UNL     1       0.960  10.452  19.747  0.00  0.00    +0.000 NA
ATOM      2  C   UNL     1       1.498   9.558  20.824  0.00  0.00    +0.000 C 
ATOM      3  C   UNL     1       1.590   8.071  20.426  0.00  0.00    +0.000 C 
ATOM      4  N   UNL     1       2.244   7.868  19.108  0.00  0.00    +0.000 N 
ATOM      5  C   UNL     1       1.721   8.750  18.041  0.00  0.00    +0.000 C 
ATOM      6  C   UNL     1       1.728  10.225  18.478  0.00  0.00    +0.000 C 
ENDROOT
BRANCH   4   7
ATOM      7  C   UNL     1       2.758   6.590  18.786  0.00  0.00    +0.000 A 
ATOM      8  C   UNL     1       3.651   6.383  17.800  0.00  0.00    +0.000 A 
ATOM      9  C   UNL     1       4.169   4.990  17.606  0.00  0.00    +0.000 A 
ATOM     10  N   UNL     1       3.830   3.968  18.335  0.00  0.00    +0.000 NA
ATOM     11  C   UNL     1       2.929   4.199  19.334  0.00  0.00    +0.000 A 
ATOM     12  N   UNL     1       2.460   3.357  20.231  0.00  0.00    +0.000 NA
ATOM     13  C   UNL     1       1.632   4.125  20.986  0.00  0.00    +0.000 A 
ATOM     14  N   UNL     1       1.521   5.402  20.627  0.00  0.00    +0.000 NA
ATOM     15  N   UNL     1       2.376   5.470  19.564  0.00  0.00    +0.000 N 
BRANCH   9  16
ATOM     16  C   UNL     1       5.184   4.821  16.518  0.00  0.00    +0.000 A 
ATOM     17  C   UNL     1       6.499   5.245  16.747  0.00  0.00    +0.000 A 
ATOM     18  C   UNL     1       7.444   5.190  15.720  0.00  0.00    +0.000 A 
ATOM     19  C   UNL     1       7.083   4.704  14.463  0.00  0.00    +0.000 A 
ATOM     20  C   UNL     1       5.787   4.247  14.238  0.00  0.00    +0.000 A 
ATOM     21  C   UNL     1       4.843   4.292  15.265  0.00  0.00    +0.000 A 
ENDBRANCH   9  16
ENDBRANCH   4   7
BRANCH   1  22
ATOM     22  S   UNL     1      -0.722  10.545  19.534  0.00  0.00    +0.000 S 
ATOM     23  O   UNL     1      -1.284   9.276  19.937  0.00  0.00    +0.000 OA
ATOM     24  O   UNL     1      -0.972  11.068  18.206  0.00  0.00    +0.000 OA
BRANCH  22  28
ATOM     25  C   UNL     1      -2.307  13.593  22.568  0.00  0.00    +0.000 A 
ATOM     26  C   UNL     1      -2.435  13.837  21.195  0.00  0.00    +0.000 A 
ATOM     27  C   UNL     1      -1.932  12.930  20.255  0.00  0.00    +0.000 A 
ATOM     28  C   UNL     1      -1.264  11.783  20.695  0.00  0.00    +0.000 A 
ATOM     29  C   UNL     1      -1.132  11.535  22.066  0.00  0.00    +0.000 A 
ATOM     30  C   UNL     1      -1.644  12.442  22.996  0.00  0.00    +0.000 A 
BRANCH  25  32
ATOM     31  C   UNL     1      -2.829  15.884  22.897  0.00  0.00    +0.000 C 
ATOM     32  O   UNL     1      -2.838  14.548  23.393  0.00  0.00    +0.000 OA
ENDBRANCH  25  32
ENDBRANCH  22  28
ENDBRANCH   1  22
TORSDOF 5
ENDMDL
MODEL 9
REMARK VINA RESULT:      -8.3      4.651      6.652
REMARK  Name = 
REMARK  6 active torsions:
REMARK  status: ('A' for Active; 'I' for Inactive)
REMARK    1  A    between atoms: C_1  and  O_2
REMARK    2  A    between atoms: O_2  and  C_3
REMARK    3  A    between atoms: C_6  and  S_7
REMARK    4  A    between atoms: S_7  and  N_10
REMARK    5  A    between atoms: N_13  and  C_14
REMARK    6  A    between atoms: C_16  and  C_17
REMARK                            x       y       z     vdW  Elec       q    Type
REMARK                         _______ _______ _______ _____ _____    ______ ____
ROOT
ATOM      1  N   UNL     1       0.927  10.484  19.823  0.00  0.00    +0.000 NA
ATOM      2  C   UNL     1       1.382   9.540  20.895  0.00  0.00    +0.000 C 
ATOM      3  C   UNL     1       1.509   8.072  20.436  0.00  0.00    +0.000 C 
ATOM      4  N   UNL     1       2.263   7.931  19.165  0.00  0.00    +0.000 N 
ATOM      5  C   UNL     1       1.822   8.863  18.103  0.00  0.00    +0.000 C 
ATOM      6  C   UNL     1       1.791  10.315  18.608  0.00  0.00    +0.000 C 
ENDROOT
BRANCH   4   7
ATOM      7  C   UNL     1       2.805   6.670  18.823  0.00  0.00    +0.000 A 
ATOM      8  C   UNL     1       3.670   6.489  17.809  0.00  0.00    +0.000 A 
ATOM      9  C   UNL     1       4.224   5.113  17.595  0.00  0.00    +0.000 A 
ATOM     10  N   UNL     1       3.940   4.080  18.334  0.00  0.00    +0.000 NA
ATOM     11  C   UNL     1       3.065   4.284  19.363  0.00  0.00    +0.000 A 
ATOM     12  N   UNL     1       2.652   3.428  20.273  0.00  0.00    +0.000 NA
ATOM     13  C   UNL     1       1.826   4.170  21.057  0.00  0.00    +0.000 A 
ATOM     14  N   UNL     1       1.666   5.443  20.703  0.00  0.00    +0.000 NA
ATOM     15  N   UNL     1       2.483   5.538  19.613  0.00  0.00    +0.000 N 
BRANCH   9  16
ATOM     16  C   UNL     1       5.206   4.975  16.474  0.00  0.00    +0.000 A 
ATOM     17  C   UNL     1       4.786   4.386  15.276  0.00  0.00    +0.000 A 
ATOM     18  C   UNL     1       5.703   4.154  14.247  0.00  0.00    +0.000 A 
ATOM     19  C   UNL     1       7.041   4.516  14.408  0.00  0.00    +0.000 A 
ATOM     20  C   UNL     1       7.458   5.136  15.584  0.00  0.00    +0.000 A 
ATOM     21  C   UNL     1       6.543   5.378  16.609  0.00  0.00    +0.000 A 
ENDBRANCH   9  16
ENDBRANCH   4   7
BRANCH   1  22
ATOM     22  S   UNL     1      -0.734  10.587  19.485  0.00  0.00    +0.000 S 
ATOM     23  O   UNL     1      -1.327   9.310  19.810  0.00  0.00    +0.000 OA
ATOM     24  O   UNL     1      -0.881  11.146  18.155  0.00  0.00    +0.000 OA
BRANCH  22  28
ATOM     25  C   UNL     1      -2.467  13.522  22.549  0.00  0.00    +0.000 A 
ATOM     26  C   UNL     1      -2.992  13.470  21.252  0.00  0.00    +0.000 A 
ATOM     27  C   UNL     1      -2.456  12.600  20.295  0.00  0.00    +0.000 A 
ATOM     28  C   UNL     1      -1.362  11.796  20.633  0.00  0.00    +0.000 A 
ATOM     29  C   UNL     1      -0.833  11.846  21.927  0.00  0.00    +0.000 A 
ATOM     30  C   UNL     1      -1.379  12.712  22.876  0.00  0.00    +0.000 A 
BRANCH  25  32
ATOM     31  C   UNL     1      -4.211  13.929  24.105  0.00  0.00    +0.000 C 
ATOM     32  O   UNL     1      -3.070  14.409  23.399  0.00  0.00    +0.000 OA
ENDBRANCH  25  32
ENDBRANCH  22  28
ENDBRANCH   1  22
TORSDOF 5
ENDMDL
