MODEL 1
REMARK VINA RESULT:      -7.6      0.000      0.000
REMARK  Name = 
REMARK  7 active torsions:
REMARK  status: ('A' for Active; 'I' for Inactive)
REMARK    1  A    between atoms: C_1  and  C_2
REMARK    2  A    between atoms: C_2  and  O_3
REMARK    3  A    between atoms: O_3  and  C_4
REMARK    4  A    between atoms: C_9  and  N_10
REMARK    5  A    between atoms: C_16  and  C_17
REMARK    6  A    between atoms: N_19  and  C_20
REMARK    7  A    between atoms: C_20  and  C_21
REMARK                            x       y       z     vdW  Elec       q    Type
REMARK                         _______ _______ _______ _____ _____    ______ ____
ROOT
ATOM      1  N   UNL     1       1.796   7.902  19.118  0.00  0.00    +0.000 N 
ATOM      2  C   UNL     1       1.519   7.550  20.498  0.00  0.00    +0.000 C 
ATOM      3  C   UNL     1       0.924   8.811  21.038  0.00  0.00    +0.000 A 
ATOM      4  C   UNL     1       0.460   9.056  22.323  0.00  0.00    +0.000 A 
ATOM      5  C   UNL     1      -0.047  10.326  22.602  0.00  0.00    +0.000 A 
ATOM      6  C   UNL     1      -0.055  11.328  21.614  0.00  0.00    +0.000 A 
ATOM      7  C   UNL     1       0.436  11.091  20.310  0.00  0.00    +0.000 A 
ATOM      8  C   UNL     1       0.887   9.808  20.052  0.00  0.00    +0.000 A 
ATOM      9  C   UNL     1       1.381   9.192  18.814  0.00  0.00    +0.000 C 
ATOM     10  O   UNL     1       1.426   9.743  17.729  0.00  0.00    +0.000 OA
ENDROOT
BRANCH   1  16
ATOM     11  C   UNL     1       5.699   4.449  18.947  0.00  0.00    +0.000 C 
ATOM     12  O   UNL     1       5.532   3.281  19.278  0.00  0.00    +0.000 OA
ATOM     13  N   UNL     1       4.681   5.392  18.907  0.00  0.00    +0.000 N 
ATOM     14  C   UNL     1       3.356   5.026  19.392  0.00  0.00    +0.000 C 
ATOM     15  C   UNL     1       2.265   5.528  18.457  0.00  0.00    +0.000 C 
ATOM     16  C   UNL     1       2.403   7.015  18.115  0.00  0.00    +0.000 C 
ATOM     17  C   UNL     1       3.837   7.383  17.719  0.00  0.00    +0.000 C 
ATOM     18  C   UNL     1       4.907   6.806  18.640  0.00  0.00    +0.000 C 
BRANCH  11  19
ATOM     19  O   UNL     1       6.904   4.958  18.569  0.00  0.00    +0.000 OA
BRANCH  19  21
ATOM     20  C   UNL     1       6.905   4.987  16.136  0.00  0.00    +0.000 C 
ATOM     21  C   UNL     1       7.493   4.376  17.395  0.00  0.00    +0.000 C 
ENDBRANCH  19  21
ENDBRANCH  11  19
ENDBRANCH   1  16
BRANCH   7  22
ATOM     22  C   UNL     1       0.454  12.251  19.372  0.00  0.00    +0.000 C 
ATOM     23  O   UNL     1      -0.442  12.349  18.536  0.00  0.00    +0.000 OA
ATOM     24  N   UNL     1       1.424  13.214  19.538  0.00  0.00    +0.000 N 
ATOM     25  H   UNL     1       2.292  12.949  19.999  0.00  0.00    +0.000 HD
BRANCH  24  26
ATOM     26  C   UNL     1       1.506  14.374  18.673  0.00  0.00    +0.000 C 
BRANCH  26  27
ATOM     27  C   UNL     1       2.906  14.944  18.646  0.00  0.00    +0.000 A 
ATOM     28  C   UNL     1       3.146  16.232  19.182  0.00  0.00    +0.000 A 
ATOM     29  C   UNL     1       4.432  16.784  19.204  0.00  0.00    +0.000 A 
ATOM     30  C   UNL     1       5.457  16.035  18.675  0.00  0.00    +0.000 A 
ATOM     31  C   UNL     1       5.239  14.785  18.140  0.00  0.00    +0.000 A 
ATOM     32  C   UNL     1       3.983  14.209  18.121  0.00  0.00    +0.000 A 
ATOM     33  O   UNL     1       6.385  14.228  17.658  0.00  0.00    +0.000 OA
ATOM     34  C   UNL     1       7.327  15.301  17.880  0.00  0.00    +0.000 C 
ATOM     35  O   UNL     1       6.762  16.412  18.604  0.00  0.00    +0.000 OA
ENDBRANCH  26  27
ENDBRANCH  24  26
ENDBRANCH   7  22
TORSDOF 6
ENDMDL
MODEL 2
REMARK VINA RESULT:      -7.5      3.801     10.367
REMARK  Name = 
REMARK  7 active torsions:
REMARK  status: ('A' for Active; 'I' for Inactive)
REMARK    1  A    between atoms: C_1  and  C_2
REMARK    2  A    between atoms: C_2  and  O_3
REMARK    3  A    between atoms: O_3  and  C_4
REMARK    4  A    between atoms: C_9  and  N_10
REMARK    5  A    between atoms: C_16  and  C_17
REMARK    6  A    between atoms: N_19  and  C_20
REMARK    7  A    between atoms: C_20  and  C_21
REMARK                            x       y       z     vdW  Elec       q    Type
REMARK                         _______ _______ _______ _____ _____    ______ ____
ROOT
ATOM      1  N   UNL     1      -0.889  12.332  20.982  0.00  0.00    +0.000 N 
ATOM      2  C   UNL     1      -2.180  12.308  20.321  0.00  0.00    +0.000 C 
ATOM      3  C   UNL     1      -1.942  11.369  19.183  0.00  0.00    +0.000 A 
ATOM      4  C   UNL     1      -2.842  10.960  18.209  0.00  0.00    +0.000 A 
ATOM      5  C   UNL     1      -2.385  10.076  17.229  0.00  0.00    +0.000 A 
ATOM      6  C   UNL     1      -1.046   9.645  17.221  0.00  0.00    +0.000 A 
ATOM      7  C   UNL     1      -0.119  10.074  18.197  0.00  0.00    +0.000 A 
ATOM      8  C   UNL     1      -0.616  10.911  19.182  0.00  0.00    +0.000 A 
ATOM      9  C   UNL     1       0.024  11.478  20.376  0.00  0.00    +0.000 C 
ATOM     10  O   UNL     1       1.163  11.241  20.737  0.00  0.00    +0.000 OA
ENDROOT
BRANCH   1  16
ATOM     11  C   UNL     1      -3.122  16.096  23.816  0.00  0.00    +0.000 C 
ATOM     12  O   UNL     1      -3.915  15.834  24.711  0.00  0.00    +0.000 OA
ATOM     13  N   UNL     1      -2.446  15.133  23.078  0.00  0.00    +0.000 N 
ATOM     14  C   UNL     1      -2.770  13.727  23.282  0.00  0.00    +0.000 C 
ATOM     15  C   UNL     1      -1.512  12.872  23.351  0.00  0.00    +0.000 C 
ATOM     16  C   UNL     1      -0.555  13.116  22.179  0.00  0.00    +0.000 C 
ATOM     17  C   UNL     1      -0.328  14.610  21.924  0.00  0.00    +0.000 C 
ATOM     18  C   UNL     1      -1.605  15.445  21.930  0.00  0.00    +0.000 C 
BRANCH  11  19
ATOM     19  O   UNL     1      -2.800  17.365  23.445  0.00  0.00    +0.000 OA
BRANCH  19  21
ATOM     20  C   UNL     1      -3.721  18.606  21.565  0.00  0.00    +0.000 C 
ATOM     21  C   UNL     1      -3.893  18.193  23.016  0.00  0.00    +0.000 C 
ENDBRANCH  19  21
ENDBRANCH  11  19
ENDBRANCH   1  16
BRANCH   7  22
ATOM     22  C   UNL     1       1.292   9.617  18.039  0.00  0.00    +0.000 C 
ATOM     23  O   UNL     1       2.177  10.463  17.924  0.00  0.00    +0.000 OA
ATOM     24  N   UNL     1       1.558   8.269  18.120  0.00  0.00    +0.000 N 
ATOM     25  H   UNL     1       0.809   7.616  17.898  0.00  0.00    +0.000 HD
BRANCH  24  26
ATOM     26  C   UNL     1       2.902   7.746  17.984  0.00  0.00    +0.000 C 
BRANCH  26  27
ATOM     27  C   UNL     1       2.947   6.261  18.267  0.00  0.00    +0.000 A 
ATOM     28  C   UNL     1       1.863   5.441  17.871  0.00  0.00    +0.000 A 
ATOM     29  C   UNL     1       1.878   4.059  18.086  0.00  0.00    +0.000 A 
ATOM     30  C   UNL     1       2.981   3.522  18.709  0.00  0.00    +0.000 A 
ATOM     31  C   UNL     1       4.039   4.306  19.110  0.00  0.00    +0.000 A 
ATOM     32  C   UNL     1       4.059   5.670  18.894  0.00  0.00    +0.000 A 
ATOM     33  O   UNL     1       5.016   3.576  19.718  0.00  0.00    +0.000 OA
ATOM     34  C   UNL     1       4.413   2.262  19.722  0.00  0.00    +0.000 C 
ATOM     35  O   UNL     1       3.164   2.206  19.005  0.00  0.00    +0.000 OA
ENDBRANCH  26  27
ENDBRANCH  24  26
ENDBRANCH   7  22
TORSDOF 6
ENDMDL
MODEL 3
REMARK VINA RESULT:      -7.4      4.003     10.304
REMARK  Name = 
REMARK  7 active torsions:
REMARK  status: ('A' for Active; 'I' for Inactive)
REMARK    1  A    between atoms: C_1  and  C_2
REMARK    2  A    between atoms: C_2  and  O_3
REMARK    3  A    between atoms: O_3  and  C_4
REMARK    4  A    between atoms: C_9  and  N_10
REMARK    5  A    between atoms: C_16  and  C_17
REMARK    6  A    between atoms: N_19  and  C_20
REMARK    7  A    between atoms: C_20  and  C_21
REMARK                            x       y       z     vdW  Elec       q    Type
REMARK                         _______ _______ _______ _____ _____    ______ ____
ROOT
ATOM      1  N   UNL     1      -1.457  12.171  21.246  0.00  0.00    +0.000 N 
ATOM      2  C   UNL     1      -2.693  12.207  20.488  0.00  0.00    +0.000 C 
ATOM      3  C   UNL     1      -2.336  11.445  19.253  0.00  0.00    +0.000 A 
ATOM      4  C   UNL     1      -3.144  11.154  18.164  0.00  0.00    +0.000 A 
ATOM      5  C   UNL     1      -2.584  10.430  17.109  0.00  0.00    +0.000 A 
ATOM      6  C   UNL     1      -1.232  10.040  17.147  0.00  0.00    +0.000 A 
ATOM      7  C   UNL     1      -0.398  10.352  18.244  0.00  0.00    +0.000 A 
ATOM      8  C   UNL     1      -0.997  11.027  19.294  0.00  0.00    +0.000 A 
ATOM      9  C   UNL     1      -0.470  11.436  20.602  0.00  0.00    +0.000 C 
ATOM     10  O   UNL     1       0.647  11.181  21.015  0.00  0.00    +0.000 OA
ENDROOT
BRANCH   1  16
ATOM     11  C   UNL     1      -3.444  16.156  23.958  0.00  0.00    +0.000 C 
ATOM     12  O   UNL     1      -4.452  16.023  24.641  0.00  0.00    +0.000 OA
ATOM     13  N   UNL     1      -2.834  15.114  23.273  0.00  0.00    +0.000 N 
ATOM     14  C   UNL     1      -3.474  13.806  23.255  0.00  0.00    +0.000 C 
ATOM     15  C   UNL     1      -2.464  12.690  23.484  0.00  0.00    +0.000 C 
ATOM     16  C   UNL     1      -1.243  12.786  22.564  0.00  0.00    +0.000 C 
ATOM     17  C   UNL     1      -0.666  14.206  22.521  0.00  0.00    +0.000 C 
ATOM     18  C   UNL     1      -1.715  15.301  22.359  0.00  0.00    +0.000 C 
BRANCH  11  19
ATOM     19  O   UNL     1      -2.797  17.343  23.798  0.00  0.00    +0.000 OA
BRANCH  19  21
ATOM     20  C   UNL     1      -1.324  17.245  25.733  0.00  0.00    +0.000 C 
ATOM     21  C   UNL     1      -2.411  18.018  25.006  0.00  0.00    +0.000 C 
ENDBRANCH  19  21
ENDBRANCH  11  19
ENDBRANCH   1  16
BRANCH   7  22
ATOM     22  C   UNL     1       1.038   9.959  18.137  0.00  0.00    +0.000 C 
ATOM     23  O   UNL     1       1.898  10.832  18.240  0.00  0.00    +0.000 OA
ATOM     24  N   UNL     1       1.345   8.622  18.017  0.00  0.00    +0.000 N 
ATOM     25  H   UNL     1       0.641   7.999  17.627  0.00  0.00    +0.000 HD
BRANCH  24  26
ATOM     26  C   UNL     1       2.714   8.159  17.915  0.00  0.00    +0.000 C 
BRANCH  26  27
ATOM     27  C   UNL     1       2.865   6.758  18.462  0.00  0.00    +0.000 A 
ATOM     28  C   UNL     1       3.581   5.791  17.718  0.00  0.00    +0.000 A 
ATOM     29  C   UNL     1       3.769   4.491  18.203  0.00  0.00    +0.000 A 
ATOM     30  C   UNL     1       3.223   4.181  19.427  0.00  0.00    +0.000 A 
ATOM     31  C   UNL     1       2.514   5.107  20.158  0.00  0.00    +0.000 A 
ATOM     32  C   UNL     1       2.328   6.401  19.712  0.00  0.00    +0.000 A 
ATOM     33  O   UNL     1       2.048   4.586  21.328  0.00  0.00    +0.000 OA
ATOM     34  C   UNL     1       2.478   3.212  21.207  0.00  0.00    +0.000 C 
ATOM     35  O   UNL     1       3.298   2.972  20.047  0.00  0.00    +0.000 OA
ENDBRANCH  26  27
ENDBRANCH  24  26
ENDBRANCH   7  22
TORSDOF 6
ENDMDL
MODEL 4
REMARK VINA RESULT:      -7.4      4.130     10.541
REMARK  Name = 
REMARK  7 active torsions:
REMARK  status: ('A' for Active; 'I' for Inactive)
REMARK    1  A    between atoms: C_1  and  C_2
REMARK    2  A    between atoms: C_2  and  O_3
REMARK    3  A    between atoms: O_3  and  C_4
REMARK    4  A    between atoms: C_9  and  N_10
REMARK    5  A    between atoms: C_16  and  C_17
REMARK    6  A    between atoms: N_19  and  C_20
REMARK    7  A    between atoms: C_20  and  C_21
REMARK                            x       y       z     vdW  Elec       q    Type
REMARK                         _______ _______ _______ _____ _____    ______ ____
ROOT
ATOM      1  N   UNL     1      -1.022  12.267  21.130  0.00  0.00    +0.000 N 
ATOM      2  C   UNL     1      -2.224  12.468  20.342  0.00  0.00    +0.000 C 
ATOM      3  C   UNL     1      -2.000  11.560  19.176  0.00  0.00    +0.000 A 
ATOM      4  C   UNL     1      -2.837  11.338  18.093  0.00  0.00    +0.000 A 
ATOM      5  C   UNL     1      -2.407  10.445  17.108  0.00  0.00    +0.000 A 
ATOM      6  C   UNL     1      -1.151   9.820  17.207  0.00  0.00    +0.000 A 
ATOM      7  C   UNL     1      -0.284  10.059  18.297  0.00  0.00    +0.000 A 
ATOM      8  C   UNL     1      -0.760  10.911  19.280  0.00  0.00    +0.000 A 
ATOM      9  C   UNL     1      -0.180  11.317  20.566  0.00  0.00    +0.000 C 
ATOM     10  O   UNL     1       0.867  10.897  21.023  0.00  0.00    +0.000 OA
ENDROOT
BRANCH   1  16
ATOM     11  C   UNL     1      -3.198  15.921  24.147  0.00  0.00    +0.000 C 
ATOM     12  O   UNL     1      -4.053  15.637  24.976  0.00  0.00    +0.000 OA
ATOM     13  N   UNL     1      -2.536  14.981  23.367  0.00  0.00    +0.000 N 
ATOM     14  C   UNL     1      -2.947  13.585  23.439  0.00  0.00    +0.000 C 
ATOM     15  C   UNL     1      -1.744  12.655  23.501  0.00  0.00    +0.000 C 
ATOM     16  C   UNL     1      -0.712  12.933  22.403  0.00  0.00    +0.000 C 
ATOM     17  C   UNL     1      -0.390  14.427  22.282  0.00  0.00    +0.000 C 
ATOM     18  C   UNL     1      -1.618  15.333  22.292  0.00  0.00    +0.000 C 
BRANCH  11  19
ATOM     19  O   UNL     1      -2.787  17.195  23.897  0.00  0.00    +0.000 OA
BRANCH  19  21
ATOM     20  C   UNL     1      -4.760  18.614  23.791  0.00  0.00    +0.000 C 
ATOM     21  C   UNL     1      -3.624  17.967  23.021  0.00  0.00    +0.000 C 
ENDBRANCH  19  21
ENDBRANCH  11  19
ENDBRANCH   1  16
BRANCH   7  22
ATOM     22  C   UNL     1       1.057   9.405  18.253  0.00  0.00    +0.000 C 
ATOM     23  O   UNL     1       1.901   9.842  17.475  0.00  0.00    +0.000 OA
ATOM     24  N   UNL     1       1.324   8.397  19.152  0.00  0.00    +0.000 N 
ATOM     25  H   UNL     1       0.540   7.872  19.534  0.00  0.00    +0.000 HD
BRANCH  24  26
ATOM     26  C   UNL     1       2.603   7.717  19.179  0.00  0.00    +0.000 C 
BRANCH  26  27
ATOM     27  C   UNL     1       2.430   6.223  19.328  0.00  0.00    +0.000 A 
ATOM     28  C   UNL     1       1.753   5.707  20.460  0.00  0.00    +0.000 A 
ATOM     29  C   UNL     1       1.546   4.333  20.622  0.00  0.00    +0.000 A 
ATOM     30  C   UNL     1       2.033   3.495  19.645  0.00  0.00    +0.000 A 
ATOM     31  C   UNL     1       2.703   3.978  18.544  0.00  0.00    +0.000 A 
ATOM     32  C   UNL     1       2.907   5.331  18.350  0.00  0.00    +0.000 A 
ATOM     33  O   UNL     1       3.113   2.978  17.714  0.00  0.00    +0.000 OA
ATOM     34  C   UNL     1       2.693   1.814  18.461  0.00  0.00    +0.000 C 
ATOM     35  O   UNL     1       1.931   2.138  19.640  0.00  0.00    +0.000 OA
ENDBRANCH  26  27
ENDBRANCH  24  26
ENDBRANCH   7  22
TORSDOF 6
ENDMDL
MODEL 5
REMARK VINA RESULT:      -7.3      4.365     10.805
REMARK  Name = 
REMARK  7 active torsions:
REMARK  status: ('A' for Active; 'I' for Inactive)
REMARK    1  A    between atoms: C_1  and  C_2
REMARK    2  A    between atoms: C_2  and  O_3
REMARK    3  A    between atoms: O_3  and  C_4
REMARK    4  A    between atoms: C_9  and  N_10
REMARK    5  A    between atoms: C_16  and  C_17
REMARK    6  A    between atoms: N_19  and  C_20
REMARK    7  A    between atoms: C_20  and  C_21
REMARK                            x       y       z     vdW  Elec       q    Type
REMARK                         _______ _______ _______ _____ _____    ______ ____
ROOT
ATOM      1  N   UNL     1      -1.899  12.630  21.271  0.00  0.00    +0.000 N 
ATOM      2  C   UNL     1      -2.943  12.774  20.274  0.00  0.00    +0.000 C 
ATOM      3  C   UNL     1      -2.504  11.821  19.209  0.00  0.00    +0.000 A 
ATOM      4  C   UNL     1      -3.132  11.536  18.006  0.00  0.00    +0.000 A 
ATOM      5  C   UNL     1      -2.524  10.610  17.155  0.00  0.00    +0.000 A 
ATOM      6  C   UNL     1      -1.298  10.014  17.504  0.00  0.00    +0.000 A 
ATOM      7  C   UNL     1      -0.643  10.316  18.719  0.00  0.00    +0.000 A 
ATOM      8  C   UNL     1      -1.296  11.201  19.561  0.00  0.00    +0.000 A 
ATOM      9  C   UNL     1      -0.959  11.673  20.910  0.00  0.00    +0.000 C 
ATOM     10  O   UNL     1      -0.006  11.293  21.565  0.00  0.00    +0.000 OA
ENDROOT
BRANCH   1  16
ATOM     11  C   UNL     1      -4.580  16.414  23.655  0.00  0.00    +0.000 C 
ATOM     12  O   UNL     1      -5.576  16.165  24.323  0.00  0.00    +0.000 OA
ATOM     13  N   UNL     1      -3.790  15.440  23.057  0.00  0.00    +0.000 N 
ATOM     14  C   UNL     1      -4.214  14.047  23.117  0.00  0.00    +0.000 C 
ATOM     15  C   UNL     1      -3.048  13.126  23.445  0.00  0.00    +0.000 C 
ATOM     16  C   UNL     1      -1.828  13.356  22.547  0.00  0.00    +0.000 C 
ATOM     17  C   UNL     1      -1.482  14.844  22.419  0.00  0.00    +0.000 C 
ATOM     18  C   UNL     1      -2.686  15.744  22.157  0.00  0.00    +0.000 C 
BRANCH  11  19
ATOM     19  O   UNL     1      -4.124  17.675  23.427  0.00  0.00    +0.000 OA
BRANCH  19  21
ATOM     20  C   UNL     1      -5.316  18.389  21.430  0.00  0.00    +0.000 C 
ATOM     21  C   UNL     1      -5.086  18.611  22.914  0.00  0.00    +0.000 C 
ENDBRANCH  19  21
ENDBRANCH  11  19
ENDBRANCH   1  16
BRANCH   7  22
ATOM     22  C   UNL     1       0.691   9.688  18.944  0.00  0.00    +0.000 C 
ATOM     23  O   UNL     1       1.660  10.118  18.322  0.00  0.00    +0.000 OA
ATOM     24  N   UNL     1       0.801   8.710  19.907  0.00  0.00    +0.000 N 
ATOM     25  H   UNL     1      -0.033   8.181  20.154  0.00  0.00    +0.000 HD
BRANCH  24  26
ATOM     26  C   UNL     1       2.062   8.055  20.191  0.00  0.00    +0.000 C 
BRANCH  26  27
ATOM     27  C   UNL     1       2.004   6.580  19.863  0.00  0.00    +0.000 A 
ATOM     28  C   UNL     1       1.453   5.677  20.802  0.00  0.00    +0.000 A 
ATOM     29  C   UNL     1       1.353   4.308  20.526  0.00  0.00    +0.000 A 
ATOM     30  C   UNL     1       1.821   3.867  19.309  0.00  0.00    +0.000 A 
ATOM     31  C   UNL     1       2.370   4.731  18.389  0.00  0.00    +0.000 A 
ATOM     32  C   UNL     1       2.465   6.089  18.628  0.00  0.00    +0.000 A 
ATOM     33  O   UNL     1       2.783   4.084  17.263  0.00  0.00    +0.000 OA
ATOM     34  C   UNL     1       2.502   2.711  17.617  0.00  0.00    +0.000 C 
ATOM     35  O   UNL     1       1.812   2.578  18.875  0.00  0.00    +0.000 OA
ENDBRANCH  26  27
ENDBRANCH  24  26
ENDBRANCH   7  22
TORSDOF 6
ENDMDL
MODEL 6
REMARK VINA RESULT:      -7.3      2.577      9.240
REMARK  Name = 
REMARK  7 active torsions:
REMARK  status: ('A' for Active; 'I' for Inactive)
REMARK    1  A    between atoms: C_1  and  C_2
REMARK    2  A    between atoms: C_2  and  O_3
REMARK    3  A    between atoms: O_3  and  C_4
REMARK    4  A    between atoms: C_9  and  N_10
REMARK    5  A    between atoms: C_16  and  C_17
REMARK    6  A    between atoms: N_19  and  C_20
REMARK    7  A    between atoms: C_20  and  C_21
REMARK                            x       y       z     vdW  Elec       q    Type
REMARK                         _______ _______ _______ _____ _____    ______ ____
ROOT
ATOM      1  N   UNL     1       0.682  13.853  20.163  0.00  0.00    +0.000 N 
ATOM      2  C   UNL     1      -0.195  14.068  19.027  0.00  0.00    +0.000 C 
ATOM      3  C   UNL     1      -0.701  12.690  18.746  0.00  0.00    +0.000 A 
ATOM      4  C   UNL     1      -1.590  12.291  17.758  0.00  0.00    +0.000 A 
ATOM      5  C   UNL     1      -1.911  10.934  17.679  0.00  0.00    +0.000 A 
ATOM      6  C   UNL     1      -1.323  10.006  18.558  0.00  0.00    +0.000 A 
ATOM      7  C   UNL     1      -0.401  10.403  19.552  0.00  0.00    +0.000 A 
ATOM      8  C   UNL     1      -0.141  11.761  19.635  0.00  0.00    +0.000 A 
ATOM      9  C   UNL     1       0.684  12.527  20.578  0.00  0.00    +0.000 C 
ATOM     10  O   UNL     1       1.272  12.056  21.534  0.00  0.00    +0.000 OA
ENDROOT
BRANCH   1  16
ATOM     11  C   UNL     1       5.119  16.465  19.342  0.00  0.00    +0.000 C 
ATOM     12  O   UNL     1       5.143  17.480  18.656  0.00  0.00    +0.000 OA
ATOM     13  N   UNL     1       3.956  15.771  19.650  0.00  0.00    +0.000 N 
ATOM     14  C   UNL     1       2.699  16.186  19.040  0.00  0.00    +0.000 C 
ATOM     15  C   UNL     1       1.567  16.198  20.057  0.00  0.00    +0.000 C 
ATOM     16  C   UNL     1       1.459  14.892  20.852  0.00  0.00    +0.000 C 
ATOM     17  C   UNL     1       2.821  14.428  21.381  0.00  0.00    +0.000 C 
ATOM     18  C   UNL     1       3.946  14.495  20.353  0.00  0.00    +0.000 C 
BRANCH  11  19
ATOM     19  O   UNL     1       6.229  15.903  19.892  0.00  0.00    +0.000 OA
BRANCH  19  21
ATOM     20  C   UNL     1       8.426  16.187  18.884  0.00  0.00    +0.000 C 
ATOM     21  C   UNL     1       7.172  15.335  18.968  0.00  0.00    +0.000 C 
ENDBRANCH  19  21
ENDBRANCH  11  19
ENDBRANCH   1  16
BRANCH   7  22
ATOM     22  C   UNL     1       0.221   9.322  20.371  0.00  0.00    +0.000 C 
ATOM     23  O   UNL     1      -0.342   8.965  21.403  0.00  0.00    +0.000 OA
ATOM     24  N   UNL     1       1.354   8.705  19.890  0.00  0.00    +0.000 N 
ATOM     25  H   UNL     1       1.942   9.218  19.237  0.00  0.00    +0.000 HD
BRANCH  24  26
ATOM     26  C   UNL     1       2.014   7.642  20.621  0.00  0.00    +0.000 C 
BRANCH  26  27
ATOM     27  C   UNL     1       1.950   6.332  19.869  0.00  0.00    +0.000 A 
ATOM     28  C   UNL     1       2.475   6.254  18.557  0.00  0.00    +0.000 A 
ATOM     29  C   UNL     1       2.462   5.053  17.837  0.00  0.00    +0.000 A 
ATOM     30  C   UNL     1       1.909   3.950  18.447  0.00  0.00    +0.000 A 
ATOM     31  C   UNL     1       1.384   4.012  19.718  0.00  0.00    +0.000 A 
ATOM     32  C   UNL     1       1.400   5.179  20.457  0.00  0.00    +0.000 A 
ATOM     33  O   UNL     1       0.875   2.814  20.120  0.00  0.00    +0.000 OA
ATOM     34  C   UNL     1       1.070   2.019  18.928  0.00  0.00    +0.000 C 
ATOM     35  O   UNL     1       1.804   2.709  17.898  0.00  0.00    +0.000 OA
ENDBRANCH  26  27
ENDBRANCH  24  26
ENDBRANCH   7  22
TORSDOF 6
ENDMDL
MODEL 7
REMARK VINA RESULT:      -7.3      1.273      1.760
REMARK  Name = 
REMARK  7 active torsions:
REMARK  status: ('A' for Active; 'I' for Inactive)
REMARK    1  A    between atoms: C_1  and  C_2
REMARK    2  A    between atoms: C_2  and  O_3
REMARK    3  A    between atoms: O_3  and  C_4
REMARK    4  A    between atoms: C_9  and  N_10
REMARK    5  A    between atoms: C_16  and  C_17
REMARK    6  A    between atoms: N_19  and  C_20
REMARK    7  A    between atoms: C_20  and  C_21
REMARK                            x       y       z     vdW  Elec       q    Type
REMARK                         _______ _______ _______ _____ _____    ______ ____
ROOT
ATOM      1  N   UNL     1       1.757   7.841  19.168  0.00  0.00    +0.000 N 
ATOM      2  C   UNL     1       1.516   7.495  20.556  0.00  0.00    +0.000 C 
ATOM      3  C   UNL     1       0.906   8.748  21.098  0.00  0.00    +0.000 A 
ATOM      4  C   UNL     1       0.463   8.993  22.390  0.00  0.00    +0.000 A 
ATOM      5  C   UNL     1      -0.066  10.255  22.669  0.00  0.00    +0.000 A 
ATOM      6  C   UNL     1      -0.116  11.248  21.673  0.00  0.00    +0.000 A 
ATOM      7  C   UNL     1       0.353  11.011  20.362  0.00  0.00    +0.000 A 
ATOM      8  C   UNL     1       0.826   9.735  20.105  0.00  0.00    +0.000 A 
ATOM      9  C   UNL     1       1.308   9.119  18.862  0.00  0.00    +0.000 C 
ATOM     10  O   UNL     1       1.319   9.663  17.772  0.00  0.00    +0.000 OA
ENDROOT
BRANCH   1  16
ATOM     11  C   UNL     1       5.702   4.437  18.956  0.00  0.00    +0.000 C 
ATOM     12  O   UNL     1       5.554   3.269  19.293  0.00  0.00    +0.000 OA
ATOM     13  N   UNL     1       4.670   5.368  18.926  0.00  0.00    +0.000 N 
ATOM     14  C   UNL     1       3.357   4.987  19.430  0.00  0.00    +0.000 C 
ATOM     15  C   UNL     1       2.247   5.471  18.507  0.00  0.00    +0.000 C 
ATOM     16  C   UNL     1       2.362   6.959  18.159  0.00  0.00    +0.000 C 
ATOM     17  C   UNL     1       3.786   7.344  17.743  0.00  0.00    +0.000 C 
ATOM     18  C   UNL     1       4.875   6.784  18.653  0.00  0.00    +0.000 C 
BRANCH  11  19
ATOM     19  O   UNL     1       6.894   4.961  18.561  0.00  0.00    +0.000 OA
BRANCH  19  21
ATOM     20  C   UNL     1       6.742   4.769  16.140  0.00  0.00    +0.000 C 
ATOM     21  C   UNL     1       7.490   4.364  17.397  0.00  0.00    +0.000 C 
ENDBRANCH  19  21
ENDBRANCH  11  19
ENDBRANCH   1  16
BRANCH   7  22
ATOM     22  C   UNL     1       0.327  12.163  19.414  0.00  0.00    +0.000 C 
ATOM     23  O   UNL     1      -0.753  12.690  19.155  0.00  0.00    +0.000 OA
ATOM     24  N   UNL     1       1.525  12.647  18.937  0.00  0.00    +0.000 N 
ATOM     25  H   UNL     1       2.324  12.017  18.914  0.00  0.00    +0.000 HD
BRANCH  24  26
ATOM     26  C   UNL     1       1.585  13.766  18.019  0.00  0.00    +0.000 C 
BRANCH  26  27
ATOM     27  C   UNL     1       2.430  14.890  18.575  0.00  0.00    +0.000 A 
ATOM     28  C   UNL     1       3.474  15.433  17.788  0.00  0.00    +0.000 A 
ATOM     29  C   UNL     1       4.261  16.493  18.253  0.00  0.00    +0.000 A 
ATOM     30  C   UNL     1       3.990  16.985  19.509  0.00  0.00    +0.000 A 
ATOM     31  C   UNL     1       2.986  16.462  20.291  0.00  0.00    +0.000 A 
ATOM     32  C   UNL     1       2.183  15.427  19.851  0.00  0.00    +0.000 A 
ATOM     33  O   UNL     1       2.902  17.084  21.501  0.00  0.00    +0.000 OA
ATOM     34  C   UNL     1       4.017  18.000  21.416  0.00  0.00    +0.000 C 
ATOM     35  O   UNL     1       4.654  18.003  20.123  0.00  0.00    +0.000 OA
ENDBRANCH  26  27
ENDBRANCH  24  26
ENDBRANCH   7  22
TORSDOF 6
ENDMDL
MODEL 8
REMARK VINA RESULT:      -7.3      0.977      1.237
REMARK  Name = 
REMARK  7 active torsions:
REMARK  status: ('A' for Active; 'I' for Inactive)
REMARK    1  A    between atoms: C_1  and  C_2
REMARK    2  A    between atoms: C_2  and  O_3
REMARK    3  A    between atoms: O_3  and  C_4
REMARK    4  A    between atoms: C_9  and  N_10
REMARK    5  A    between atoms: C_16  and  C_17
REMARK    6  A    between atoms: N_19  and  C_20
REMARK    7  A    between atoms: C_20  and  C_21
REMARK                            x       y       z     vdW  Elec       q    Type
REMARK                         _______ _______ _______ _____ _____    ______ ____
ROOT
ATOM      1  N   UNL     1       1.899   7.371  19.245  0.00  0.00    +0.000 N 
ATOM      2  C   UNL     1       1.628   7.192  20.659  0.00  0.00    +0.000 C 
ATOM      3  C   UNL     1       1.152   8.549  21.069  0.00  0.00    +0.000 A 
ATOM      4  C   UNL     1       0.742   8.966  22.327  0.00  0.00    +0.000 A 
ATOM      5  C   UNL     1       0.347  10.298  22.475  0.00  0.00    +0.000 A 
ATOM      6  C   UNL     1       0.397  11.186  21.385  0.00  0.00    +0.000 A 
ATOM      7  C   UNL     1       0.834  10.772  20.107  0.00  0.00    +0.000 A 
ATOM      8  C   UNL     1       1.172   9.435  19.981  0.00  0.00    +0.000 A 
ATOM      9  C   UNL     1       1.583   8.651  18.809  0.00  0.00    +0.000 C 
ATOM     10  O   UNL     1       1.646   9.079  17.671  0.00  0.00    +0.000 OA
ENDROOT
BRANCH   1  16
ATOM     11  C   UNL     1       6.520   5.264  18.064  0.00  0.00    +0.000 C 
ATOM     12  O   UNL     1       6.983   4.336  18.716  0.00  0.00    +0.000 OA
ATOM     13  N   UNL     1       5.266   5.816  18.290  0.00  0.00    +0.000 N 
ATOM     14  C   UNL     1       4.487   5.360  19.435  0.00  0.00    +0.000 C 
ATOM     15  C   UNL     1       3.028   5.138  19.060  0.00  0.00    +0.000 C 
ATOM     16  C   UNL     1       2.406   6.335  18.333  0.00  0.00    +0.000 C 
ATOM     17  C   UNL     1       3.307   6.857  17.208  0.00  0.00    +0.000 C 
ATOM     18  C   UNL     1       4.774   7.001  17.601  0.00  0.00    +0.000 C 
BRANCH  11  19
ATOM     19  O   UNL     1       7.178   5.858  17.031  0.00  0.00    +0.000 OA
BRANCH  19  21
ATOM     20  C   UNL     1       6.252   5.132  14.902  0.00  0.00    +0.000 C 
ATOM     21  C   UNL     1       7.412   5.037  15.876  0.00  0.00    +0.000 C 
ENDBRANCH  19  21
ENDBRANCH  11  19
ENDBRANCH   1  16
BRANCH   7  22
ATOM     22  C   UNL     1       0.924  11.820  19.049  0.00  0.00    +0.000 C 
ATOM     23  O   UNL     1      -0.116  12.309  18.612  0.00  0.00    +0.000 OA
ATOM     24  N   UNL     1       2.171  12.262  18.668  0.00  0.00    +0.000 N 
ATOM     25  H   UNL     1       2.965  11.639  18.803  0.00  0.00    +0.000 HD
BRANCH  24  26
ATOM     26  C   UNL     1       2.343  13.281  17.652  0.00  0.00    +0.000 C 
BRANCH  26  27
ATOM     27  C   UNL     1       3.067  14.489  18.201  0.00  0.00    +0.000 A 
ATOM     28  C   UNL     1       2.332  15.508  18.853  0.00  0.00    +0.000 A 
ATOM     29  C   UNL     1       2.967  16.629  19.401  0.00  0.00    +0.000 A 
ATOM     30  C   UNL     1       4.334  16.712  19.274  0.00  0.00    +0.000 A 
ATOM     31  C   UNL     1       5.063  15.736  18.634  0.00  0.00    +0.000 A 
ATOM     32  C   UNL     1       4.464  14.611  18.099  0.00  0.00    +0.000 A 
ATOM     33  O   UNL     1       6.394  16.025  18.607  0.00  0.00    +0.000 OA
ATOM     34  C   UNL     1       6.404  17.328  19.233  0.00  0.00    +0.000 C 
ATOM     35  O   UNL     1       5.114  17.727  19.736  0.00  0.00    +0.000 OA
ENDBRANCH  26  27
ENDBRANCH  24  26
ENDBRANCH   7  22
TORSDOF 6
ENDMDL
MODEL 9
REMARK VINA RESULT:      -7.3      4.380      6.491
REMARK  Name = 
REMARK  7 active torsions:
REMARK  status: ('A' for Active; 'I' for Inactive)
REMARK    1  A    between atoms: C_1  and  C_2
REMARK    2  A    between atoms: C_2  and  O_3
REMARK    3  A    between atoms: O_3  and  C_4
REMARK    4  A    between atoms: C_9  and  N_10
REMARK    5  A    between atoms: C_16  and  C_17
REMARK    6  A    between atoms: N_19  and  C_20
REMARK    7  A    between atoms: C_20  and  C_21
REMARK                            x       y       z     vdW  Elec       q    Type
REMARK                         _______ _______ _______ _____ _____    ______ ____
ROOT
ATOM      1  N   UNL     1      -0.621  10.863  18.956  0.00  0.00    +0.000 N 
ATOM      2  C   UNL     1      -1.198  10.274  17.763  0.00  0.00    +0.000 C 
ATOM      3  C   UNL     1      -2.597  10.798  17.788  0.00  0.00    +0.000 A 
ATOM      4  C   UNL     1      -3.615  10.565  16.875  0.00  0.00    +0.000 A 
ATOM      5  C   UNL     1      -4.856  11.158  17.115  0.00  0.00    +0.000 A 
ATOM      6  C   UNL     1      -5.065  11.942  18.265  0.00  0.00    +0.000 A 
ATOM      7  C   UNL     1      -4.039  12.166  19.210  0.00  0.00    +0.000 A 
ATOM      8  C   UNL     1      -2.808  11.604  18.918  0.00  0.00    +0.000 A 
ATOM      9  C   UNL     1      -1.519  11.693  19.616  0.00  0.00    +0.000 C 
ATOM     10  O   UNL     1      -1.307  12.368  20.607  0.00  0.00    +0.000 OA
ENDROOT
BRANCH   1  16
ATOM     11  C   UNL     1       2.961   7.078  18.792  0.00  0.00    +0.000 C 
ATOM     12  O   UNL     1       3.707   6.947  17.829  0.00  0.00    +0.000 OA
ATOM     13  N   UNL     1       2.038   8.108  18.919  0.00  0.00    +0.000 N 
ATOM     14  C   UNL     1       1.847   9.029  17.806  0.00  0.00    +0.000 C 
ATOM     15  C   UNL     1       1.765  10.471  18.288  0.00  0.00    +0.000 C 
ATOM     16  C   UNL     1       0.758  10.668  19.426  0.00  0.00    +0.000 C 
ATOM     17  C   UNL     1       0.917   9.610  20.524  0.00  0.00    +0.000 C 
ATOM     18  C   UNL     1       1.065   8.185  20.000  0.00  0.00    +0.000 C 
BRANCH  11  19
ATOM     19  O   UNL     1       2.956   6.232  19.859  0.00  0.00    +0.000 OA
BRANCH  19  21
ATOM     20  C   UNL     1       1.489   4.442  20.609  0.00  0.00    +0.000 C 
ATOM     21  C   UNL     1       2.526   4.887  19.594  0.00  0.00    +0.000 C 
ENDBRANCH  19  21
ENDBRANCH  11  19
ENDBRANCH   1  16
BRANCH   7  22
ATOM     22  C   UNL     1      -4.400  12.943  20.431  0.00  0.00    +0.000 C 
ATOM     23  O   UNL     1      -4.714  12.330  21.450  0.00  0.00    +0.000 OA
ATOM     24  N   UNL     1      -4.280  14.314  20.396  0.00  0.00    +0.000 N 
ATOM     25  H   UNL     1      -4.332  14.779  19.491  0.00  0.00    +0.000 HD
BRANCH  24  26
ATOM     26  C   UNL     1      -4.604  15.139  21.541  0.00  0.00    +0.000 C 
BRANCH  26  27
ATOM     27  C   UNL     1      -3.405  15.326  22.444  0.00  0.00    +0.000 A 
ATOM     28  C   UNL     1      -2.126  15.532  21.872  0.00  0.00    +0.000 A 
ATOM     29  C   UNL     1      -0.995  15.738  22.671  0.00  0.00    +0.000 A 
ATOM     30  C   UNL     1      -1.168  15.723  24.036  0.00  0.00    +0.000 A 
ATOM     31  C   UNL     1      -2.402  15.513  24.608  0.00  0.00    +0.000 A 
ATOM     32  C   UNL     1      -3.538  15.324  23.844  0.00  0.00    +0.000 A 
ATOM     33  O   UNL     1      -2.344  15.521  25.970  0.00  0.00    +0.000 OA
ATOM     34  C   UNL     1      -0.923  15.680  26.182  0.00  0.00    +0.000 C 
ATOM     35  O   UNL     1      -0.186  15.897  24.962  0.00  0.00    +0.000 OA
ENDBRANCH  26  27
ENDBRANCH  24  26
ENDBRANCH   7  22
TORSDOF 6
ENDMDL
