MODEL 1
REMARK VINA RESULT:      -8.1      0.000      0.000
REMARK  Name = 
REMARK  2 active torsions:
REMARK  status: ('A' for Active; 'I' for Inactive)
REMARK    1  A    between atoms: C_1  and  N_2
REMARK    2  A    between atoms: C_12  and  C_14
REMARK                            x       y       z     vdW  Elec       q    Type
REMARK                         _______ _______ _______ _____ _____    ______ ____
ROOT
ATOM      1  C   UNL     1       2.172   7.709  19.082  0.00  0.00    +0.000 C 
ATOM      2  N   UNL     1       2.491   6.311  19.324  0.00  0.00    +0.000 NA
ATOM      3  C   UNL     1       1.661   5.707  20.386  0.00  0.00    +0.000 C 
ATOM      4  C   UNL     1       1.630   4.166  20.585  0.00  0.00    +0.000 C 
ATOM      5  O   UNL     1       1.450   3.436  19.375  0.00  0.00    +0.000 OA
ATOM      6  C   UNL     1       2.635   3.126  18.617  0.00  0.00    +0.000 C 
ATOM      7  C   UNL     1       3.601   4.317  18.335  0.00  0.00    +0.000 C 
ATOM      8  C   UNL     1       4.514   4.486  19.577  0.00  0.00    +0.000 C 
ATOM      9  C   UNL     1       5.469   5.630  19.372  0.00  0.00    +0.000 C 
ATOM     10  C   UNL     1       6.502   5.123  18.434  0.00  0.00    +0.000 C 
ATOM     11  N   UNL     1       5.953   4.767  17.137  0.00  0.00    +0.000 N 
ATOM     12  C   UNL     1       7.038   4.409  16.289  0.00  0.00    +0.000 C 
ATOM     13  O   UNL     1       8.139   4.121  16.777  0.00  0.00    +0.000 OA
ATOM     14  C   UNL     1       4.598   4.076  17.083  0.00  0.00    +0.000 C 
ATOM     15  C   UNL     1       2.667   5.538  18.101  0.00  0.00    +0.000 C 
ENDROOT
BRANCH  12  16
ATOM     16  C   UNL     1       7.025   4.578  14.821  0.00  0.00    +0.000 A 
ATOM     17  C   UNL     1       6.210   3.688  14.098  0.00  0.00    +0.000 A 
ATOM     18  N   UNL     1       6.183   3.632  12.744  0.00  0.00    +0.000 NA
ATOM     19  C   UNL     1       7.011   4.496  12.132  0.00  0.00    +0.000 A 
ATOM     20  C   UNL     1       7.821   5.374  12.840  0.00  0.00    +0.000 A 
ATOM     21  N   UNL     1       7.857   5.448  14.197  0.00  0.00    +0.000 NA
ENDBRANCH  12  16
TORSDOF 1
ENDMDL
MODEL 2
REMARK VINA RESULT:      -7.2      1.781      2.352
REMARK  Name = 
REMARK  2 active torsions:
REMARK  status: ('A' for Active; 'I' for Inactive)
REMARK    1  A    between atoms: C_1  and  N_2
REMARK    2  A    between atoms: C_12  and  C_14
REMARK                            x       y       z     vdW  Elec       q    Type
REMARK                         _______ _______ _______ _____ _____    ______ ____
ROOT
ATOM      1  C   UNL     1       0.353   2.939  18.495  0.00  0.00    +0.000 C 
ATOM      2  N   UNL     1       1.566   3.203  19.254  0.00  0.00    +0.000 NA
ATOM      3  C   UNL     1       1.443   2.838  20.680  0.00  0.00    +0.000 C 
ATOM      4  C   UNL     1       2.702   2.754  21.586  0.00  0.00    +0.000 C 
ATOM      5  O   UNL     1       3.779   2.024  21.005  0.00  0.00    +0.000 OA
ATOM      6  C   UNL     1       4.675   2.756  20.146  0.00  0.00    +0.000 C 
ATOM      7  C   UNL     1       4.008   3.620  19.034  0.00  0.00    +0.000 C 
ATOM      8  C   UNL     1       3.608   4.977  19.668  0.00  0.00    +0.000 C 
ATOM      9  C   UNL     1       2.947   5.859  18.644  0.00  0.00    +0.000 C 
ATOM     10  C   UNL     1       4.047   6.361  17.782  0.00  0.00    +0.000 C 
ATOM     11  N   UNL     1       4.732   5.293  17.073  0.00  0.00    +0.000 N 
ATOM     12  C   UNL     1       5.680   5.893  16.196  0.00  0.00    +0.000 C 
ATOM     13  O   UNL     1       6.033   7.067  16.373  0.00  0.00    +0.000 OA
ATOM     14  C   UNL     1       4.992   3.983  17.800  0.00  0.00    +0.000 C 
ATOM     15  C   UNL     1       2.781   2.786  18.566  0.00  0.00    +0.000 C 
ENDROOT
BRANCH  12  16
ATOM     16  C   UNL     1       6.118   5.288  14.922  0.00  0.00    +0.000 A 
ATOM     17  C   UNL     1       5.231   4.369  14.330  0.00  0.00    +0.000 A 
ATOM     18  N   UNL     1       5.537   3.638  13.230  0.00  0.00    +0.000 NA
ATOM     19  C   UNL     1       6.771   3.850  12.743  0.00  0.00    +0.000 A 
ATOM     20  C   UNL     1       7.653   4.752  13.325  0.00  0.00    +0.000 A 
ATOM     21  N   UNL     1       7.361   5.498  14.424  0.00  0.00    +0.000 NA
ENDBRANCH  12  16
TORSDOF 1
ENDMDL
MODEL 3
REMARK VINA RESULT:      -7.0      1.878      2.602
REMARK  Name = 
REMARK  2 active torsions:
REMARK  status: ('A' for Active; 'I' for Inactive)
REMARK    1  A    between atoms: C_1  and  N_2
REMARK    2  A    between atoms: C_12  and  C_14
REMARK                            x       y       z     vdW  Elec       q    Type
REMARK                         _______ _______ _______ _____ _____    ______ ____
ROOT
ATOM      1  C   UNL     1       0.344   2.700  18.559  0.00  0.00    +0.000 C 
ATOM      2  N   UNL     1       1.555   3.067  19.276  0.00  0.00    +0.000 NA
ATOM      3  C   UNL     1       1.457   2.827  20.730  0.00  0.00    +0.000 C 
ATOM      4  C   UNL     1       2.727   2.862  21.625  0.00  0.00    +0.000 C 
ATOM      5  O   UNL     1       3.820   2.116  21.097  0.00  0.00    +0.000 OA
ATOM      6  C   UNL     1       4.685   2.795  20.166  0.00  0.00    +0.000 C 
ATOM      7  C   UNL     1       3.980   3.536  18.989  0.00  0.00    +0.000 C 
ATOM      8  C   UNL     1       3.544   4.931  19.506  0.00  0.00    +0.000 C 
ATOM      9  C   UNL     1       2.847   5.698  18.416  0.00  0.00    +0.000 C 
ATOM     10  C   UNL     1       3.923   6.154  17.499  0.00  0.00    +0.000 C 
ATOM     11  N   UNL     1       4.633   5.049  16.879  0.00  0.00    +0.000 N 
ATOM     12  C   UNL     1       5.553   5.596  15.941  0.00  0.00    +0.000 C 
ATOM     13  O   UNL     1       5.871   6.791  16.008  0.00  0.00    +0.000 OA
ATOM     14  C   UNL     1       4.940   3.817  17.716  0.00  0.00    +0.000 C 
ATOM     15  C   UNL     1       2.776   2.627  18.613  0.00  0.00    +0.000 C 
ENDROOT
BRANCH  12  16
ATOM     16  C   UNL     1       5.998   4.893  14.719  0.00  0.00    +0.000 A 
ATOM     17  C   UNL     1       7.221   5.314  14.167  0.00  0.00    +0.000 A 
ATOM     18  N   UNL     1       7.704   4.858  12.986  0.00  0.00    +0.000 NA
ATOM     19  C   UNL     1       6.913   3.966  12.366  0.00  0.00    +0.000 A 
ATOM     20  C   UNL     1       5.702   3.549  12.903  0.00  0.00    +0.000 A 
ATOM     21  N   UNL     1       5.205   3.992  14.089  0.00  0.00    +0.000 NA
ENDBRANCH  12  16
TORSDOF 1
ENDMDL
MODEL 4
REMARK VINA RESULT:      -6.8      0.617      1.068
REMARK  Name = 
REMARK  2 active torsions:
REMARK  status: ('A' for Active; 'I' for Inactive)
REMARK    1  A    between atoms: C_1  and  N_2
REMARK    2  A    between atoms: C_12  and  C_14
REMARK                            x       y       z     vdW  Elec       q    Type
REMARK                         _______ _______ _______ _____ _____    ______ ____
ROOT
ATOM      1  C   UNL     1       2.063   7.737  18.816  0.00  0.00    +0.000 C 
ATOM      2  N   UNL     1       2.446   6.394  19.224  0.00  0.00    +0.000 NA
ATOM      3  C   UNL     1       1.661   5.895  20.371  0.00  0.00    +0.000 C 
ATOM      4  C   UNL     1       1.700   4.392  20.761  0.00  0.00    +0.000 C 
ATOM      5  O   UNL     1       1.531   3.509  19.656  0.00  0.00    +0.000 OA
ATOM      6  C   UNL     1       2.716   3.155  18.917  0.00  0.00    +0.000 C 
ATOM      7  C   UNL     1       3.624   4.339  18.467  0.00  0.00    +0.000 C 
ATOM      8  C   UNL     1       4.550   4.700  19.657  0.00  0.00    +0.000 C 
ATOM      9  C   UNL     1       5.451   5.847  19.290  0.00  0.00    +0.000 C 
ATOM     10  C   UNL     1       6.489   5.269  18.400  0.00  0.00    +0.000 C 
ATOM     11  N   UNL     1       5.934   4.730  17.170  0.00  0.00    +0.000 N 
ATOM     12  C   UNL     1       7.020   4.313  16.350  0.00  0.00    +0.000 C 
ATOM     13  O   UNL     1       8.140   4.135  16.846  0.00  0.00    +0.000 OA
ATOM     14  C   UNL     1       4.610   3.984  17.233  0.00  0.00    +0.000 C 
ATOM     15  C   UNL     1       2.634   5.482  18.103  0.00  0.00    +0.000 C 
ENDROOT
BRANCH  12  16
ATOM     16  C   UNL     1       6.974   4.296  14.873  0.00  0.00    +0.000 A 
ATOM     17  C   UNL     1       7.768   5.253  14.213  0.00  0.00    +0.000 A 
ATOM     18  N   UNL     1       7.742   5.448  12.872  0.00  0.00    +0.000 NA
ATOM     19  C   UNL     1       6.884   4.656  12.208  0.00  0.00    +0.000 A 
ATOM     20  C   UNL     1       6.094   3.713  12.854  0.00  0.00    +0.000 A 
ATOM     21  N   UNL     1       6.111   3.500  14.197  0.00  0.00    +0.000 NA
ENDBRANCH  12  16
TORSDOF 1
ENDMDL
MODEL 5
REMARK VINA RESULT:      -6.8      4.961      7.314
REMARK  Name = 
REMARK  2 active torsions:
REMARK  status: ('A' for Active; 'I' for Inactive)
REMARK    1  A    between atoms: C_1  and  N_2
REMARK    2  A    between atoms: C_12  and  C_14
REMARK                            x       y       z     vdW  Elec       q    Type
REMARK                         _______ _______ _______ _____ _____    ______ ____
ROOT
ATOM      1  C   UNL     1      -2.131  10.455  18.162  0.00  0.00    +0.000 C 
ATOM      2  N   UNL     1      -0.912  10.738  18.905  0.00  0.00    +0.000 NA
ATOM      3  C   UNL     1      -0.778  12.163  19.269  0.00  0.00    +0.000 C 
ATOM      4  C   UNL     1       0.280  12.617  20.312  0.00  0.00    +0.000 C 
ATOM      5  O   UNL     1       0.294  11.825  21.496  0.00  0.00    +0.000 OA
ATOM      6  C   UNL     1       1.100  10.631  21.474  0.00  0.00    +0.000 C 
ATOM      7  C   UNL     1       0.895   9.686  20.251  0.00  0.00    +0.000 C 
ATOM      8  C   UNL     1       1.769  10.223  19.089  0.00  0.00    +0.000 C 
ATOM      9  C   UNL     1       1.609   9.357  17.870  0.00  0.00    +0.000 C 
ATOM     10  C   UNL     1       2.390   8.125  18.152  0.00  0.00    +0.000 C 
ATOM     11  N   UNL     1       1.875   7.386  19.292  0.00  0.00    +0.000 N 
ATOM     12  C   UNL     1       2.619   6.177  19.397  0.00  0.00    +0.000 C 
ATOM     13  O   UNL     1       3.710   6.067  18.822  0.00  0.00    +0.000 OA
ATOM     14  C   UNL     1       1.384   8.163  20.504  0.00  0.00    +0.000 C 
ATOM     15  C   UNL     1      -0.629   9.758  19.946  0.00  0.00    +0.000 C 
ENDROOT
BRANCH  12  16
ATOM     16  C   UNL     1       2.075   4.925  19.964  0.00  0.00    +0.000 A 
ATOM     17  C   UNL     1       2.463   4.617  21.281  0.00  0.00    +0.000 A 
ATOM     18  N   UNL     1       2.153   3.450  21.896  0.00  0.00    +0.000 NA
ATOM     19  C   UNL     1       1.444   2.591  21.144  0.00  0.00    +0.000 A 
ATOM     20  C   UNL     1       1.063   2.887  19.841  0.00  0.00    +0.000 A 
ATOM     21  N   UNL     1       1.360   4.054  19.210  0.00  0.00    +0.000 NA
ENDBRANCH  12  16
TORSDOF 1
ENDMDL
MODEL 6
REMARK VINA RESULT:      -6.7      4.855      7.136
REMARK  Name = 
REMARK  2 active torsions:
REMARK  status: ('A' for Active; 'I' for Inactive)
REMARK    1  A    between atoms: C_1  and  N_2
REMARK    2  A    between atoms: C_12  and  C_14
REMARK                            x       y       z     vdW  Elec       q    Type
REMARK                         _______ _______ _______ _____ _____    ______ ____
ROOT
ATOM      1  C   UNL     1      -2.211  10.489  18.172  0.00  0.00    +0.000 C 
ATOM      2  N   UNL     1      -0.993  10.801  18.905  0.00  0.00    +0.000 NA
ATOM      3  C   UNL     1      -0.929  12.210  19.341  0.00  0.00    +0.000 C 
ATOM      4  C   UNL     1       0.126  12.668  20.385  0.00  0.00    +0.000 C 
ATOM      5  O   UNL     1       0.208  11.818  21.526  0.00  0.00    +0.000 OA
ATOM      6  C   UNL     1       1.077  10.673  21.426  0.00  0.00    +0.000 C 
ATOM      7  C   UNL     1       0.897   9.782  20.160  0.00  0.00    +0.000 C 
ATOM      8  C   UNL     1       1.715  10.426  19.011  0.00  0.00    +0.000 C 
ATOM      9  C   UNL     1       1.575   9.615  17.752  0.00  0.00    +0.000 C 
ATOM     10  C   UNL     1       2.428   8.416  17.955  0.00  0.00    +0.000 C 
ATOM     11  N   UNL     1       1.978   7.592  19.064  0.00  0.00    +0.000 N 
ATOM     12  C   UNL     1       2.789   6.422  19.092  0.00  0.00    +0.000 C 
ATOM     13  O   UNL     1       3.871   6.402  18.491  0.00  0.00    +0.000 OA
ATOM     14  C   UNL     1       1.472   8.278  20.324  0.00  0.00    +0.000 C 
ATOM     15  C   UNL     1      -0.635   9.786  19.888  0.00  0.00    +0.000 C 
ENDROOT
BRANCH  12  16
ATOM     16  C   UNL     1       2.326   5.115  19.602  0.00  0.00    +0.000 A 
ATOM     17  C   UNL     1       1.735   4.252  18.661  0.00  0.00    +0.000 A 
ATOM     18  N   UNL     1       1.150   3.074  18.992  0.00  0.00    +0.000 NA
ATOM     19  C   UNL     1       1.169   2.789  20.305  0.00  0.00    +0.000 A 
ATOM     20  C   UNL     1       1.748   3.639  21.240  0.00  0.00    +0.000 A 
ATOM     21  N   UNL     1       2.343   4.821  20.926  0.00  0.00    +0.000 NA
ENDBRANCH  12  16
TORSDOF 1
ENDMDL
MODEL 7
REMARK VINA RESULT:      -6.2      3.844      6.423
REMARK  Name = 
REMARK  2 active torsions:
REMARK  status: ('A' for Active; 'I' for Inactive)
REMARK    1  A    between atoms: C_1  and  N_2
REMARK    2  A    between atoms: C_12  and  C_14
REMARK                            x       y       z     vdW  Elec       q    Type
REMARK                         _______ _______ _______ _____ _____    ______ ____
ROOT
ATOM      1  C   UNL     1       2.091  13.015  20.532  0.00  0.00    +0.000 C 
ATOM      2  N   UNL     1       0.973  12.161  20.162  0.00  0.00    +0.000 NA
ATOM      3  C   UNL     1      -0.323  12.869  20.182  0.00  0.00    +0.000 C 
ATOM      4  C   UNL     1      -1.583  12.232  19.533  0.00  0.00    +0.000 C 
ATOM      5  O   UNL     1      -1.352  11.709  18.228  0.00  0.00    +0.000 OA
ATOM      6  C   UNL     1      -0.856  10.359  18.144  0.00  0.00    +0.000 C 
ATOM      7  C   UNL     1       0.379  10.025  19.034  0.00  0.00    +0.000 C 
ATOM      8  C   UNL     1      -0.142   9.679  20.452  0.00  0.00    +0.000 C 
ATOM      9  C   UNL     1       1.006   9.354  21.367  0.00  0.00    +0.000 C 
ATOM     10  C   UNL     1       1.449   7.990  20.980  0.00  0.00    +0.000 C 
ATOM     11  N   UNL     1       1.939   7.928  19.614  0.00  0.00    +0.000 N 
ATOM     12  C   UNL     1       2.441   6.615  19.392  0.00  0.00    +0.000 C 
ATOM     13  O   UNL     1       2.118   5.690  20.149  0.00  0.00    +0.000 OA
ATOM     14  C   UNL     1       1.216   8.729  18.542  0.00  0.00    +0.000 C 
ATOM     15  C   UNL     1       1.248  11.316  19.007  0.00  0.00    +0.000 C 
ENDROOT
BRANCH  12  16
ATOM     16  C   UNL     1       3.529   6.300  18.442  0.00  0.00    +0.000 A 
ATOM     17  C   UNL     1       4.111   5.026  18.561  0.00  0.00    +0.000 A 
ATOM     18  N   UNL     1       5.197   4.631  17.850  0.00  0.00    +0.000 NA
ATOM     19  C   UNL     1       5.689   5.564  17.018  0.00  0.00    +0.000 A 
ATOM     20  C   UNL     1       5.121   6.826  16.899  0.00  0.00    +0.000 A 
ATOM     21  N   UNL     1       4.030   7.237  17.599  0.00  0.00    +0.000 NA
ENDBRANCH  12  16
TORSDOF 1
ENDMDL
MODEL 8
REMARK VINA RESULT:      -6.2      3.948      6.712
REMARK  Name = 
REMARK  2 active torsions:
REMARK  status: ('A' for Active; 'I' for Inactive)
REMARK    1  A    between atoms: C_1  and  N_2
REMARK    2  A    between atoms: C_12  and  C_14
REMARK                            x       y       z     vdW  Elec       q    Type
REMARK                         _______ _______ _______ _____ _____    ______ ____
ROOT
ATOM      1  C   UNL     1       2.006  13.177  20.608  0.00  0.00    +0.000 C 
ATOM      2  N   UNL     1       0.911  12.321  20.177  0.00  0.00    +0.000 NA
ATOM      3  C   UNL     1      -0.365  13.050  20.032  0.00  0.00    +0.000 C 
ATOM      4  C   UNL     1      -1.569  12.397  19.299  0.00  0.00    +0.000 C 
ATOM      5  O   UNL     1      -1.225  11.798  18.053  0.00  0.00    +0.000 OA
ATOM      6  C   UNL     1      -0.751  10.438  18.092  0.00  0.00    +0.000 C 
ATOM      7  C   UNL     1       0.385  10.135  19.115  0.00  0.00    +0.000 C 
ATOM      8  C   UNL     1      -0.278   9.877  20.492  0.00  0.00    +0.000 C 
ATOM      9  C   UNL     1       0.770   9.586  21.531  0.00  0.00    +0.000 C 
ATOM     10  C   UNL     1       1.219   8.196  21.265  0.00  0.00    +0.000 C 
ATOM     11  N   UNL     1       1.838   8.050  19.959  0.00  0.00    +0.000 N 
ATOM     12  C   UNL     1       2.331   6.718  19.859  0.00  0.00    +0.000 C 
ATOM     13  O   UNL     1       1.916   5.843  20.630  0.00  0.00    +0.000 OA
ATOM     14  C   UNL     1       1.238   8.801  18.779  0.00  0.00    +0.000 C 
ATOM     15  C   UNL     1       1.279  11.408  19.103  0.00  0.00    +0.000 C 
ENDROOT
BRANCH  12  16
ATOM     16  C   UNL     1       3.498   6.334  19.038  0.00  0.00    +0.000 A 
ATOM     17  C   UNL     1       3.605   6.952  17.778  0.00  0.00    +0.000 A 
ATOM     18  N   UNL     1       4.544   6.617  16.860  0.00  0.00    +0.000 NA
ATOM     19  C   UNL     1       5.374   5.631  17.242  0.00  0.00    +0.000 A 
ATOM     20  C   UNL     1       5.271   5.014  18.482  0.00  0.00    +0.000 A 
ATOM     21  N   UNL     1       4.339   5.341  19.417  0.00  0.00    +0.000 NA
ENDBRANCH  12  16
TORSDOF 1
ENDMDL
MODEL 9
REMARK VINA RESULT:      -6.2      3.715      7.470
REMARK  Name = 
REMARK  2 active torsions:
REMARK  status: ('A' for Active; 'I' for Inactive)
REMARK    1  A    between atoms: C_1  and  N_2
REMARK    2  A    between atoms: C_12  and  C_14
REMARK                            x       y       z     vdW  Elec       q    Type
REMARK                         _______ _______ _______ _____ _____    ______ ____
ROOT
ATOM      1  C   UNL     1       1.075   3.174  18.454  0.00  0.00    +0.000 C 
ATOM      2  N   UNL     1       2.231   4.056  18.504  0.00  0.00    +0.000 NA
ATOM      3  C   UNL     1       3.513   3.329  18.402  0.00  0.00    +0.000 C 
ATOM      4  C   UNL     1       4.837   4.095  18.131  0.00  0.00    +0.000 C 
ATOM      5  O   UNL     1       4.745   5.039  17.068  0.00  0.00    +0.000 OA
ATOM      6  C   UNL     1       4.269   6.357  17.404  0.00  0.00    +0.000 C 
ATOM      7  C   UNL     1       2.952   6.420  18.235  0.00  0.00    +0.000 C 
ATOM      8  C   UNL     1       3.328   6.243  19.728  0.00  0.00    +0.000 C 
ATOM      9  C   UNL     1       2.094   6.286  20.587  0.00  0.00    +0.000 C 
ATOM     10  C   UNL     1       1.703   7.717  20.651  0.00  0.00    +0.000 C 
ATOM     11  N   UNL     1       1.356   8.259  19.348  0.00  0.00    +0.000 N 
ATOM     12  C   UNL     1       0.889   9.590  19.542  0.00  0.00    +0.000 C 
ATOM     13  O   UNL     1       1.140  10.188  20.597  0.00  0.00    +0.000 OA
ATOM     14  C   UNL     1       2.179   7.840  18.140  0.00  0.00    +0.000 C 
ATOM     15  C   UNL     1       2.081   5.253  17.687  0.00  0.00    +0.000 C 
ENDROOT
BRANCH  12  16
ATOM     16  C   UNL     1      -0.093  10.253  18.659  0.00  0.00    +0.000 A 
ATOM     17  C   UNL     1      -0.254  11.639  18.835  0.00  0.00    +0.000 A 
ATOM     18  N   UNL     1      -1.198  12.369  18.193  0.00  0.00    +0.000 NA
ATOM     19  C   UNL     1      -1.989  11.660  17.370  0.00  0.00    +0.000 A 
ATOM     20  C   UNL     1      -1.839  10.291  17.196  0.00  0.00    +0.000 A 
ATOM     21  N   UNL     1      -0.894   9.544  17.827  0.00  0.00    +0.000 NA
ENDBRANCH  12  16
TORSDOF 1
ENDMDL
