MODEL 1
REMARK VINA RESULT:      -6.2      0.000      0.000
REMARK  Name = 
REMARK  6 active torsions:
REMARK  status: ('A' for Active; 'I' for Inactive)
REMARK    1  A    between atoms: C_1  and  O_2
REMARK    2  A    between atoms: O_2  and  C_3
REMARK    3  A    between atoms: C_3  and  C_4
REMARK    4  A    between atoms: C_4  and  C_5
REMARK    5  A    between atoms: N_7  and  C_8
REMARK    6  A    between atoms: C_15  and  O_16
REMARK                            x       y       z     vdW  Elec       q    Type
REMARK                         _______ _______ _______ _____ _____    ______ ____
ROOT
ATOM      1  C   UNL     1       4.352   4.109  17.431  0.00  0.00    +0.000 A 
ATOM      2  C   UNL     1       4.729   3.899  16.102  0.00  0.00    +0.000 A 
ATOM      3  C   UNL     1       6.016   4.232  15.676  0.00  0.00    +0.000 A 
ATOM      4 CL   UNL     1       6.471   3.923  14.044  0.00  0.00    +0.000 Cl
ATOM      5  C   UNL     1       6.936   4.792  16.553  0.00  0.00    +0.000 A 
ATOM      6  C   UNL     1       6.550   5.050  17.871  0.00  0.00    +0.000 A 
ATOM      7 BR   UNL     1       7.816   5.817  19.056  0.00  0.00    +0.000 Br
ATOM      8  C   UNL     1       5.260   4.720  18.307  0.00  0.00    +0.000 A 
ENDROOT
BRANCH   1  11
ATOM      9  C   UNL     1       2.716   2.436  18.277  0.00  0.00    +0.000 C 
ATOM     10  O   UNL     1       3.449   1.450  18.263  0.00  0.00    +0.000 OA
ATOM     11  N   UNL     1       3.089   3.723  17.937  0.00  0.00    +0.000 N 
ATOM     12  H   UNL     1       2.494   4.499  18.217  0.00  0.00    +0.000 HD
BRANCH   9  13
ATOM     13  C   UNL     1       1.275   2.297  18.700  0.00  0.00    +0.000 C 
BRANCH  13  14
ATOM     14  C   UNL     1       0.914   3.390  19.684  0.00  0.00    +0.000 C 
BRANCH  14  16
ATOM     15  C   UNL     1       1.936   2.892  21.738  0.00  0.00    +0.000 C 
ATOM     16  O   UNL     1       2.031   3.644  20.533  0.00  0.00    +0.000 OA
ENDBRANCH  14  16
ENDBRANCH  13  14
ENDBRANCH   9  13
ENDBRANCH   1  11
BRANCH   8  17
ATOM     17  O   UNL     1       4.861   4.963  19.598  0.00  0.00    +0.000 OA
ATOM     18  H   UNL     1       4.070   5.533  19.556  0.00  0.00    +0.000 HD
ENDBRANCH   8  17
TORSDOF 5
ENDMDL
MODEL 2
REMARK VINA RESULT:      -6.1      3.516      5.779
REMARK  Name = 
REMARK  6 active torsions:
REMARK  status: ('A' for Active; 'I' for Inactive)
REMARK    1  A    between atoms: C_1  and  O_2
REMARK    2  A    between atoms: O_2  and  C_3
REMARK    3  A    between atoms: C_3  and  C_4
REMARK    4  A    between atoms: C_4  and  C_5
REMARK    5  A    between atoms: N_7  and  C_8
REMARK    6  A    between atoms: C_15  and  O_16
REMARK                            x       y       z     vdW  Elec       q    Type
REMARK                         _______ _______ _______ _____ _____    ______ ____
ROOT
ATOM      1  C   UNL     1       4.028   4.893  18.838  0.00  0.00    +0.000 A 
ATOM      2  C   UNL     1       3.470   6.169  18.942  0.00  0.00    +0.000 A 
ATOM      3  C   UNL     1       2.405   6.402  19.813  0.00  0.00    +0.000 A 
ATOM      4 CL   UNL     1       1.763   7.993  19.957  0.00  0.00    +0.000 Cl
ATOM      5  C   UNL     1       1.870   5.372  20.578  0.00  0.00    +0.000 A 
ATOM      6  C   UNL     1       2.391   4.083  20.442  0.00  0.00    +0.000 A 
ATOM      7 BR   UNL     1       1.648   2.687  21.488  0.00  0.00    +0.000 Br
ATOM      8  C   UNL     1       3.459   3.841  19.568  0.00  0.00    +0.000 A 
ENDROOT
BRANCH   1  11
ATOM      9  C   UNL     1       6.473   4.839  18.379  0.00  0.00    +0.000 C 
ATOM     10  O   UNL     1       6.866   5.241  19.471  0.00  0.00    +0.000 OA
ATOM     11  N   UNL     1       5.154   4.615  18.029  0.00  0.00    +0.000 N 
ATOM     12  H   UNL     1       4.951   4.054  17.205  0.00  0.00    +0.000 HD
BRANCH   9  13
ATOM     13  C   UNL     1       7.467   4.540  17.284  0.00  0.00    +0.000 C 
BRANCH  13  14
ATOM     14  C   UNL     1       6.890   4.928  15.938  0.00  0.00    +0.000 C 
BRANCH  14  16
ATOM     15  C   UNL     1       6.203   3.936  13.925  0.00  0.00    +0.000 C 
ATOM     16  O   UNL     1       6.288   3.784  15.337  0.00  0.00    +0.000 OA
ENDBRANCH  14  16
ENDBRANCH  13  14
ENDBRANCH   9  13
ENDBRANCH   1  11
BRANCH   8  17
ATOM     17  O   UNL     1       3.987   2.582  19.422  0.00  0.00    +0.000 OA
ATOM     18  H   UNL     1       4.959   2.669  19.449  0.00  0.00    +0.000 HD
ENDBRANCH   8  17
TORSDOF 5
ENDMDL
MODEL 3
REMARK VINA RESULT:      -6.0      1.020      1.111
REMARK  Name = 
REMARK  6 active torsions:
REMARK  status: ('A' for Active; 'I' for Inactive)
REMARK    1  A    between atoms: C_1  and  O_2
REMARK    2  A    between atoms: O_2  and  C_3
REMARK    3  A    between atoms: C_3  and  C_4
REMARK    4  A    between atoms: C_4  and  C_5
REMARK    5  A    between atoms: N_7  and  C_8
REMARK    6  A    between atoms: C_15  and  O_16
REMARK                            x       y       z     vdW  Elec       q    Type
REMARK                         _______ _______ _______ _____ _____    ______ ____
ROOT
ATOM      1  C   UNL     1       4.534   3.792  17.363  0.00  0.00    +0.000 A 
ATOM      2  C   UNL     1       4.891   3.766  16.014  0.00  0.00    +0.000 A 
ATOM      3  C   UNL     1       6.106   4.314  15.598  0.00  0.00    +0.000 A 
ATOM      4 CL   UNL     1       6.545   4.231  13.935  0.00  0.00    +0.000 Cl
ATOM      5  C   UNL     1       6.971   4.907  16.509  0.00  0.00    +0.000 A 
ATOM      6  C   UNL     1       6.597   4.980  17.854  0.00  0.00    +0.000 A 
ATOM      7 BR   UNL     1       7.786   5.796  19.085  0.00  0.00    +0.000 Br
ATOM      8  C   UNL     1       5.379   4.434  18.279  0.00  0.00    +0.000 A 
ENDROOT
BRANCH   1  11
ATOM      9  C   UNL     1       2.123   3.809  17.981  0.00  0.00    +0.000 C 
ATOM     10  O   UNL     1       1.858   4.952  17.619  0.00  0.00    +0.000 OA
ATOM     11  N   UNL     1       3.353   3.188  17.852  0.00  0.00    +0.000 N 
ATOM     12  H   UNL     1       3.405   2.175  17.947  0.00  0.00    +0.000 HD
BRANCH   9  13
ATOM     13  C   UNL     1       1.058   2.954  18.621  0.00  0.00    +0.000 C 
BRANCH  13  14
ATOM     14  C   UNL     1       0.889   3.339  20.077  0.00  0.00    +0.000 C 
BRANCH  14  16
ATOM     15  C   UNL     1       2.570   2.675  21.573  0.00  0.00    +0.000 C 
ATOM     16  O   UNL     1       2.164   3.659  20.629  0.00  0.00    +0.000 OA
ENDBRANCH  14  16
ENDBRANCH  13  14
ENDBRANCH   9  13
ENDBRANCH   1  11
BRANCH   8  17
ATOM     17  O   UNL     1       4.994   4.492  19.596  0.00  0.00    +0.000 OA
ATOM     18  H   UNL     1       4.848   3.576  19.898  0.00  0.00    +0.000 HD
ENDBRANCH   8  17
TORSDOF 5
ENDMDL
MODEL 4
REMARK VINA RESULT:      -5.9      1.354      1.406
REMARK  Name = 
REMARK  6 active torsions:
REMARK  status: ('A' for Active; 'I' for Inactive)
REMARK    1  A    between atoms: C_1  and  O_2
REMARK    2  A    between atoms: O_2  and  C_3
REMARK    3  A    between atoms: C_3  and  C_4
REMARK    4  A    between atoms: C_4  and  C_5
REMARK    5  A    between atoms: N_7  and  C_8
REMARK    6  A    between atoms: C_15  and  O_16
REMARK                            x       y       z     vdW  Elec       q    Type
REMARK                         _______ _______ _______ _____ _____    ______ ____
ROOT
ATOM      1  C   UNL     1       5.120   3.826  17.091  0.00  0.00    +0.000 A 
ATOM      2  C   UNL     1       5.321   3.535  15.741  0.00  0.00    +0.000 A 
ATOM      3  C   UNL     1       6.186   4.319  14.975  0.00  0.00    +0.000 A 
ATOM      4 CL   UNL     1       6.453   3.914  13.322  0.00  0.00    +0.000 Cl
ATOM      5  C   UNL     1       6.846   5.407  15.532  0.00  0.00    +0.000 A 
ATOM      6  C   UNL     1       6.611   5.733  16.870  0.00  0.00    +0.000 A 
ATOM      7 BR   UNL     1       7.516   7.223  17.615  0.00  0.00    +0.000 Br
ATOM      8  C   UNL     1       5.743   4.953  17.645  0.00  0.00    +0.000 A 
ENDROOT
BRANCH   1  11
ATOM      9  C   UNL     1       2.936   2.929  17.877  0.00  0.00    +0.000 C 
ATOM     10  O   UNL     1       2.214   3.466  17.041  0.00  0.00    +0.000 OA
ATOM     11  N   UNL     1       4.315   3.025  17.934  0.00  0.00    +0.000 N 
ATOM     12  H   UNL     1       4.832   2.354  18.498  0.00  0.00    +0.000 HD
BRANCH   9  13
ATOM     13  C   UNL     1       2.327   2.073  18.960  0.00  0.00    +0.000 C 
BRANCH  13  14
ATOM     14  C   UNL     1       2.660   2.644  20.323  0.00  0.00    +0.000 C 
BRANCH  14  16
ATOM     15  C   UNL     1       2.043   4.841  20.873  0.00  0.00    +0.000 C 
ATOM     16  O   UNL     1       2.985   4.025  20.186  0.00  0.00    +0.000 OA
ENDBRANCH  14  16
ENDBRANCH  13  14
ENDBRANCH   9  13
ENDBRANCH   1  11
BRANCH   8  17
ATOM     17  O   UNL     1       5.501   5.254  18.962  0.00  0.00    +0.000 OA
ATOM     18  H   UNL     1       6.259   5.775  19.287  0.00  0.00    +0.000 HD
ENDBRANCH   8  17
TORSDOF 5
ENDMDL
MODEL 5
REMARK VINA RESULT:      -5.9      2.495      3.263
REMARK  Name = 
REMARK  6 active torsions:
REMARK  status: ('A' for Active; 'I' for Inactive)
REMARK    1  A    between atoms: C_1  and  O_2
REMARK    2  A    between atoms: O_2  and  C_3
REMARK    3  A    between atoms: C_3  and  C_4
REMARK    4  A    between atoms: C_4  and  C_5
REMARK    5  A    between atoms: N_7  and  C_8
REMARK    6  A    between atoms: C_15  and  O_16
REMARK                            x       y       z     vdW  Elec       q    Type
REMARK                         _______ _______ _______ _____ _____    ______ ____
ROOT
ATOM      1  C   UNL     1       4.989   4.905  18.634  0.00  0.00    +0.000 A 
ATOM      2  C   UNL     1       6.051   5.724  19.021  0.00  0.00    +0.000 A 
ATOM      3  C   UNL     1       7.016   6.111  18.089  0.00  0.00    +0.000 A 
ATOM      4 CL   UNL     1       8.292   7.158  18.580  0.00  0.00    +0.000 Cl
ATOM      5  C   UNL     1       6.950   5.677  16.771  0.00  0.00    +0.000 A 
ATOM      6  C   UNL     1       5.917   4.817  16.389  0.00  0.00    +0.000 A 
ATOM      7 BR   UNL     1       5.842   4.230  14.588  0.00  0.00    +0.000 Br
ATOM      8  C   UNL     1       4.945   4.423  17.318  0.00  0.00    +0.000 A 
ENDROOT
BRANCH   1  11
ATOM      9  C   UNL     1       2.907   5.366  19.918  0.00  0.00    +0.000 C 
ATOM     10  O   UNL     1       2.700   6.507  19.513  0.00  0.00    +0.000 OA
ATOM     11  N   UNL     1       3.943   4.543  19.514  0.00  0.00    +0.000 N 
ATOM     12  H   UNL     1       3.886   3.546  19.712  0.00  0.00    +0.000 HD
BRANCH   9  13
ATOM     13  C   UNL     1       1.984   4.750  20.940  0.00  0.00    +0.000 C 
BRANCH  13  14
ATOM     14  C   UNL     1       0.917   3.928  20.247  0.00  0.00    +0.000 C 
BRANCH  14  16
ATOM     15  C   UNL     1       1.063   2.217  18.647  0.00  0.00    +0.000 C 
ATOM     16  O   UNL     1       1.370   3.575  18.942  0.00  0.00    +0.000 OA
ENDBRANCH  14  16
ENDBRANCH  13  14
ENDBRANCH   9  13
ENDBRANCH   1  11
BRANCH   8  17
ATOM     17  O   UNL     1       3.921   3.581  16.963  0.00  0.00    +0.000 OA
ATOM     18  H   UNL     1       4.093   3.281  16.050  0.00  0.00    +0.000 HD
ENDBRANCH   8  17
TORSDOF 5
ENDMDL
MODEL 6
REMARK VINA RESULT:      -5.9      3.770      5.819
REMARK  Name = 
REMARK  6 active torsions:
REMARK  status: ('A' for Active; 'I' for Inactive)
REMARK    1  A    between atoms: C_1  and  O_2
REMARK    2  A    between atoms: O_2  and  C_3
REMARK    3  A    between atoms: C_3  and  C_4
REMARK    4  A    between atoms: C_4  and  C_5
REMARK    5  A    between atoms: N_7  and  C_8
REMARK    6  A    between atoms: C_15  and  O_16
REMARK                            x       y       z     vdW  Elec       q    Type
REMARK                         _______ _______ _______ _____ _____    ______ ____
ROOT
ATOM      1  C   UNL     1       5.734   4.171  15.951  0.00  0.00    +0.000 A 
ATOM      2  C   UNL     1       4.393   4.306  16.315  0.00  0.00    +0.000 A 
ATOM      3  C   UNL     1       4.052   4.882  17.541  0.00  0.00    +0.000 A 
ATOM      4 CL   UNL     1       2.391   5.079  17.949  0.00  0.00    +0.000 Cl
ATOM      5  C   UNL     1       5.034   5.312  18.425  0.00  0.00    +0.000 A 
ATOM      6  C   UNL     1       6.378   5.133  18.088  0.00  0.00    +0.000 A 
ATOM      7 BR   UNL     1       7.706   5.721  19.307  0.00  0.00    +0.000 Br
ATOM      8  C   UNL     1       6.729   4.556  16.861  0.00  0.00    +0.000 A 
ENDROOT
BRANCH   1  11
ATOM      9  C   UNL     1       6.748   4.394  13.690  0.00  0.00    +0.000 C 
ATOM     10  O   UNL     1       7.100   5.568  13.770  0.00  0.00    +0.000 OA
ATOM     11  N   UNL     1       6.137   3.665  14.694  0.00  0.00    +0.000 N 
ATOM     12  H   UNL     1       6.114   2.650  14.621  0.00  0.00    +0.000 HD
BRANCH   9  13
ATOM     13  C   UNL     1       6.981   3.623  12.414  0.00  0.00    +0.000 C 
BRANCH  13  14
ATOM     14  C   UNL     1       5.779   2.754  12.105  0.00  0.00    +0.000 C 
BRANCH  14  16
ATOM     15  C   UNL     1       3.759   3.164  10.983  0.00  0.00    +0.000 C 
ATOM     16  O   UNL     1       4.612   3.572  12.046  0.00  0.00    +0.000 OA
ENDBRANCH  14  16
ENDBRANCH  13  14
ENDBRANCH   9  13
ENDBRANCH   1  11
BRANCH   8  17
ATOM     17  O   UNL     1       8.043   4.374  16.510  0.00  0.00    +0.000 OA
ATOM     18  H   UNL     1       8.153   4.721  15.604  0.00  0.00    +0.000 HD
ENDBRANCH   8  17
TORSDOF 5
ENDMDL
MODEL 7
REMARK VINA RESULT:      -5.8      2.401      2.910
REMARK  Name = 
REMARK  6 active torsions:
REMARK  status: ('A' for Active; 'I' for Inactive)
REMARK    1  A    between atoms: C_1  and  O_2
REMARK    2  A    between atoms: O_2  and  C_3
REMARK    3  A    between atoms: C_3  and  C_4
REMARK    4  A    between atoms: C_4  and  C_5
REMARK    5  A    between atoms: N_7  and  C_8
REMARK    6  A    between atoms: C_15  and  O_16
REMARK                            x       y       z     vdW  Elec       q    Type
REMARK                         _______ _______ _______ _____ _____    ______ ____
ROOT
ATOM      1  C   UNL     1       4.995   4.542  18.545  0.00  0.00    +0.000 A 
ATOM      2  C   UNL     1       6.016   5.362  19.031  0.00  0.00    +0.000 A 
ATOM      3  C   UNL     1       7.011   5.828  18.171  0.00  0.00    +0.000 A 
ATOM      4 CL   UNL     1       8.235   6.874  18.784  0.00  0.00    +0.000 Cl
ATOM      5  C   UNL     1       7.018   5.475  16.828  0.00  0.00    +0.000 A 
ATOM      6  C   UNL     1       6.027   4.616  16.346  0.00  0.00    +0.000 A 
ATOM      7 BR   UNL     1       6.052   4.140  14.511  0.00  0.00    +0.000 Br
ATOM      8  C   UNL     1       5.025   4.142  17.202  0.00  0.00    +0.000 A 
ENDROOT
BRANCH   1  11
ATOM      9  C   UNL     1       3.910   2.951  20.120  0.00  0.00    +0.000 C 
ATOM     10  O   UNL     1       4.857   2.185  20.277  0.00  0.00    +0.000 OA
ATOM     11  N   UNL     1       3.921   4.101  19.351  0.00  0.00    +0.000 N 
ATOM     12  H   UNL     1       3.183   4.790  19.484  0.00  0.00    +0.000 HD
BRANCH   9  13
ATOM     13  C   UNL     1       2.595   2.673  20.806  0.00  0.00    +0.000 C 
BRANCH  13  14
ATOM     14  C   UNL     1       1.657   3.850  20.627  0.00  0.00    +0.000 C 
BRANCH  14  16
ATOM     15  C   UNL     1       0.692   2.466  18.995  0.00  0.00    +0.000 C 
ATOM     16  O   UNL     1       1.079   3.795  19.325  0.00  0.00    +0.000 OA
ENDBRANCH  14  16
ENDBRANCH  13  14
ENDBRANCH   9  13
ENDBRANCH   1  11
BRANCH   8  17
ATOM     17  O   UNL     1       4.042   3.298  16.748  0.00  0.00    +0.000 OA
ATOM     18  H   UNL     1       4.481   2.503  16.391  0.00  0.00    +0.000 HD
ENDBRANCH   8  17
TORSDOF 5
ENDMDL
MODEL 8
REMARK VINA RESULT:      -5.8      3.657      5.944
REMARK  Name = 
REMARK  6 active torsions:
REMARK  status: ('A' for Active; 'I' for Inactive)
REMARK    1  A    between atoms: C_1  and  O_2
REMARK    2  A    between atoms: O_2  and  C_3
REMARK    3  A    between atoms: C_3  and  C_4
REMARK    4  A    between atoms: C_4  and  C_5
REMARK    5  A    between atoms: N_7  and  C_8
REMARK    6  A    between atoms: C_15  and  O_16
REMARK                            x       y       z     vdW  Elec       q    Type
REMARK                         _______ _______ _______ _____ _____    ______ ____
ROOT
ATOM      1  C   UNL     1       3.881   5.098  19.119  0.00  0.00    +0.000 A 
ATOM      2  C   UNL     1       3.270   6.341  19.293  0.00  0.00    +0.000 A 
ATOM      3  C   UNL     1       2.177   6.473  20.151  0.00  0.00    +0.000 A 
ATOM      4 CL   UNL     1       1.468   8.025  20.384  0.00  0.00    +0.000 Cl
ATOM      5  C   UNL     1       1.666   5.374  20.831  0.00  0.00    +0.000 A 
ATOM      6  C   UNL     1       2.242   4.118  20.622  0.00  0.00    +0.000 A 
ATOM      7 BR   UNL     1       1.531   2.628  21.554  0.00  0.00    +0.000 Br
ATOM      8  C   UNL     1       3.338   3.977  19.762  0.00  0.00    +0.000 A 
ENDROOT
BRANCH   1  11
ATOM      9  C   UNL     1       6.342   5.051  18.755  0.00  0.00    +0.000 C 
ATOM     10  O   UNL     1       6.695   5.269  19.911  0.00  0.00    +0.000 OA
ATOM     11  N   UNL     1       5.035   4.919  18.322  0.00  0.00    +0.000 N 
ATOM     12  H   UNL     1       4.857   4.497  17.413  0.00  0.00    +0.000 HD
BRANCH   9  13
ATOM     13  C   UNL     1       7.376   4.899  17.667  0.00  0.00    +0.000 C 
BRANCH  13  14
ATOM     14  C   UNL     1       7.286   6.059  16.697  0.00  0.00    +0.000 C 
BRANCH  14  16
ATOM     15  C   UNL     1       7.754   8.198  17.542  0.00  0.00    +0.000 C 
ATOM     16  O   UNL     1       6.758   7.197  17.375  0.00  0.00    +0.000 OA
ENDBRANCH  14  16
ENDBRANCH  13  14
ENDBRANCH   9  13
ENDBRANCH   1  11
BRANCH   8  17
ATOM     17  O   UNL     1       3.920   2.752  19.546  0.00  0.00    +0.000 OA
ATOM     18  H   UNL     1       4.466   2.827  18.741  0.00  0.00    +0.000 HD
ENDBRANCH   8  17
TORSDOF 5
ENDMDL
MODEL 9
REMARK VINA RESULT:      -5.7      3.742      5.973
REMARK  Name = 
REMARK  6 active torsions:
REMARK  status: ('A' for Active; 'I' for Inactive)
REMARK    1  A    between atoms: C_1  and  O_2
REMARK    2  A    between atoms: O_2  and  C_3
REMARK    3  A    between atoms: C_3  and  C_4
REMARK    4  A    between atoms: C_4  and  C_5
REMARK    5  A    between atoms: N_7  and  C_8
REMARK    6  A    between atoms: C_15  and  O_16
REMARK                            x       y       z     vdW  Elec       q    Type
REMARK                         _______ _______ _______ _____ _____    ______ ____
ROOT
ATOM      1  C   UNL     1       5.629   4.215  16.097  0.00  0.00    +0.000 A 
ATOM      2  C   UNL     1       4.310   4.367  16.531  0.00  0.00    +0.000 A 
ATOM      3  C   UNL     1       4.041   4.950  17.770  0.00  0.00    +0.000 A 
ATOM      4 CL   UNL     1       2.406   5.168  18.264  0.00  0.00    +0.000 Cl
ATOM      5  C   UNL     1       5.072   5.372  18.600  0.00  0.00    +0.000 A 
ATOM      6  C   UNL     1       6.395   5.178  18.193  0.00  0.00    +0.000 A 
ATOM      7 BR   UNL     1       7.792   5.756  19.338  0.00  0.00    +0.000 Br
ATOM      8  C   UNL     1       6.674   4.592  16.952  0.00  0.00    +0.000 A 
ENDROOT
BRANCH   1  11
ATOM      9  C   UNL     1       6.593   4.398  13.810  0.00  0.00    +0.000 C 
ATOM     10  O   UNL     1       7.030   5.543  13.895  0.00  0.00    +0.000 OA
ATOM     11  N   UNL     1       5.959   3.700  14.822  0.00  0.00    +0.000 N 
ATOM     12  H   UNL     1       5.861   2.690  14.738  0.00  0.00    +0.000 HD
BRANCH   9  13
ATOM     13  C   UNL     1       6.734   3.631  12.519  0.00  0.00    +0.000 C 
BRANCH  13  14
ATOM     14  C   UNL     1       5.378   3.141  12.054  0.00  0.00    +0.000 C 
BRANCH  14  16
ATOM     15  C   UNL     1       6.904   1.608  11.145  0.00  0.00    +0.000 C 
ATOM     16  O   UNL     1       5.531   1.885  11.399  0.00  0.00    +0.000 OA
ENDBRANCH  14  16
ENDBRANCH  13  14
ENDBRANCH   9  13
ENDBRANCH   1  11
BRANCH   8  17
ATOM     17  O   UNL     1       7.966   4.395  16.532  0.00  0.00    +0.000 OA
ATOM     18  H   UNL     1       8.520   4.297  17.330  0.00  0.00    +0.000 HD
ENDBRANCH   8  17
TORSDOF 5
ENDMDL
