MODEL 1
REMARK VINA RESULT:      -7.0      0.000      0.000
REMARK  Name = 
REMARK  8 active torsions:
REMARK  status: ('A' for Active; 'I' for Inactive)
REMARK    1  A    between atoms: C_1  and  O_2
REMARK    2  A    between atoms: O_2  and  C_3
REMARK    3  A    between atoms: C_6  and  N_7
REMARK    4  A    between atoms: N_7  and  C_20
REMARK    5  A    between atoms: C_8  and  C_10
REMARK    6  A    between atoms: C_10  and  N_11
REMARK    7  A    between atoms: C_20  and  C_21
REMARK    8  A    between atoms: N_23  and  C_24
REMARK                            x       y       z     vdW  Elec       q    Type
REMARK                         _______ _______ _______ _____ _____    ______ ____
ROOT
ATOM      1  N   UNL     1      -2.903  13.852  21.836  0.00  0.00    +0.000 N 
ATOM      2  C   UNL     1      -3.905  13.825  20.835  0.00  0.00    +0.000 C 
ATOM      3  O   UNL     1      -4.480  14.854  20.471  0.00  0.00    +0.000 OA
ENDROOT
BRANCH   1   7
ATOM      4  C   UNL     1      -0.083  10.628  22.243  0.00  0.00    +0.000 A 
ATOM      5  C   UNL     1      -0.025  11.489  21.138  0.00  0.00    +0.000 A 
ATOM      6  C   UNL     1      -0.980  12.508  20.977  0.00  0.00    +0.000 A 
ATOM      7  C   UNL     1      -1.992  12.713  21.931  0.00  0.00    +0.000 A 
ATOM      8  C   UNL     1      -2.065  11.817  23.003  0.00  0.00    +0.000 A 
ATOM      9  C   UNL     1      -1.122  10.780  23.151  0.00  0.00    +0.000 A 
BRANCH   4  11
ATOM     10  C   UNL     1       0.822   8.612  21.334  0.00  0.00    +0.000 C 
ATOM     11  O   UNL     1       0.901   9.669  22.286  0.00  0.00    +0.000 OA
ENDBRANCH   4  11
ENDBRANCH   1   7
BRANCH   1  12
ATOM     12  C   UNL     1      -2.315  15.178  22.446  0.00  0.00    +0.000 C 
ATOM     13  C   UNL     1      -3.473  15.956  23.118  0.00  0.00    +0.000 C 
ATOM     14  C   UNL     1      -3.913  15.213  24.392  0.00  0.00    +0.000 C 
ATOM     15  C   UNL     1      -2.910  15.510  25.489  0.00  0.00    +0.000 C 
ATOM     16  C   UNL     1      -1.487  15.181  25.060  0.00  0.00    +0.000 C 
ATOM     17  C   UNL     1      -1.167  15.175  23.543  0.00  0.00    +0.000 C 
BRANCH  12  18
ATOM     18  C   UNL     1      -1.592  15.968  21.262  0.00  0.00    +0.000 C 
ATOM     19  O   UNL     1      -2.177  16.791  20.559  0.00  0.00    +0.000 OA
ATOM     20  N   UNL     1      -0.210  15.760  21.154  0.00  0.00    +0.000 N 
ATOM     21  H   UNL     1       0.239  15.194  21.864  0.00  0.00    +0.000 HD
BRANCH  20  22
ATOM     22  C   UNL     1       0.652  16.453  20.189  0.00  0.00    +0.000 C 
ATOM     23  C   UNL     1       2.080  16.738  20.674  0.00  0.00    +0.000 C 
ATOM     24  C   UNL     1       2.858  17.038  19.390  0.00  0.00    +0.000 C 
ATOM     25  C   UNL     1       2.156  16.254  18.282  0.00  0.00    +0.000 C 
ATOM     26  C   UNL     1       0.931  15.610  18.939  0.00  0.00    +0.000 C 
ENDBRANCH  20  22
ENDBRANCH  12  18
ENDBRANCH   1  12
BRANCH   2  27
ATOM     27  C   UNL     1      -4.425  12.459  20.372  0.00  0.00    +0.000 C 
BRANCH  27  28
ATOM     28  N   UNL     1      -4.466  12.045  18.967  0.00  0.00    +0.000 N 
ATOM     29  N   UNL     1      -5.545  12.524  18.298  0.00  0.00    +0.000 NA
ATOM     30  N   UNL     1      -5.481  12.132  17.033  0.00  0.00    +0.000 NA
ATOM     31  C   UNL     1      -4.344  11.402  16.892  0.00  0.00    +0.000 A 
ATOM     32  C   UNL     1      -3.834  10.773  15.735  0.00  0.00    +0.000 A 
ATOM     33  C   UNL     1      -2.639  10.080  15.820  0.00  0.00    +0.000 A 
ATOM     34  C   UNL     1      -1.954  10.018  17.038  0.00  0.00    +0.000 A 
ATOM     35  C   UNL     1      -2.442  10.641  18.208  0.00  0.00    +0.000 A 
ATOM     36  C   UNL     1      -3.661  11.327  18.110  0.00  0.00    +0.000 A 
ENDBRANCH  27  28
ENDBRANCH   2  27
TORSDOF 7
ENDMDL
MODEL 2
REMARK VINA RESULT:      -6.9      3.242      6.512
REMARK  Name = 
REMARK  8 active torsions:
REMARK  status: ('A' for Active; 'I' for Inactive)
REMARK    1  A    between atoms: C_1  and  O_2
REMARK    2  A    between atoms: O_2  and  C_3
REMARK    3  A    between atoms: C_6  and  N_7
REMARK    4  A    between atoms: N_7  and  C_20
REMARK    5  A    between atoms: C_8  and  C_10
REMARK    6  A    between atoms: C_10  and  N_11
REMARK    7  A    between atoms: C_20  and  C_21
REMARK    8  A    between atoms: N_23  and  C_24
REMARK                            x       y       z     vdW  Elec       q    Type
REMARK                         _______ _______ _______ _____ _____    ______ ____
ROOT
ATOM      1  N   UNL     1      -0.097  12.041  20.028  0.00  0.00    +0.000 N 
ATOM      2  C   UNL     1       0.377  10.884  20.693  0.00  0.00    +0.000 C 
ATOM      3  O   UNL     1       1.050  10.963  21.723  0.00  0.00    +0.000 OA
ENDROOT
BRANCH   1   7
ATOM      4  C   UNL     1      -3.313  11.374  17.248  0.00  0.00    +0.000 A 
ATOM      5  C   UNL     1      -2.017  11.646  16.786  0.00  0.00    +0.000 A 
ATOM      6  C   UNL     1      -0.978  11.918  17.693  0.00  0.00    +0.000 A 
ATOM      7  C   UNL     1      -1.201  11.891  19.081  0.00  0.00    +0.000 A 
ATOM      8  C   UNL     1      -2.507  11.664  19.525  0.00  0.00    +0.000 A 
ATOM      9  C   UNL     1      -3.554  11.416  18.614  0.00  0.00    +0.000 A 
BRANCH   4  11
ATOM     10  C   UNL     1      -3.780  10.495  15.076  0.00  0.00    +0.000 C 
ATOM     11  O   UNL     1      -4.242  11.130  16.264  0.00  0.00    +0.000 OA
ENDBRANCH   4  11
ENDBRANCH   1   7
BRANCH   1  12
ATOM     12  C   UNL     1       0.035  13.497  20.611  0.00  0.00    +0.000 C 
ATOM     13  C   UNL     1       1.542  13.848  20.700  0.00  0.00    +0.000 C 
ATOM     14  C   UNL     1       2.102  14.044  19.280  0.00  0.00    +0.000 C 
ATOM     15  C   UNL     1       1.684  15.415  18.786  0.00  0.00    +0.000 C 
ATOM     16  C   UNL     1       0.177  15.613  18.872  0.00  0.00    +0.000 C 
ATOM     17  C   UNL     1      -0.612  14.762  19.900  0.00  0.00    +0.000 C 
BRANCH  12  18
ATOM     18  C   UNL     1      -0.729  13.521  22.012  0.00  0.00    +0.000 C 
ATOM     19  O   UNL     1      -0.139  13.592  23.089  0.00  0.00    +0.000 OA
ATOM     20  N   UNL     1      -2.128  13.587  21.935  0.00  0.00    +0.000 N 
ATOM     21  H   UNL     1      -2.545  13.688  21.018  0.00  0.00    +0.000 HD
BRANCH  20  22
ATOM     22  C   UNL     1      -3.010  13.701  23.102  0.00  0.00    +0.000 C 
ATOM     23  C   UNL     1      -4.427  14.211  22.804  0.00  0.00    +0.000 C 
ATOM     24  C   UNL     1      -5.233  13.823  24.048  0.00  0.00    +0.000 C 
ATOM     25  C   UNL     1      -4.556  12.575  24.612  0.00  0.00    +0.000 C 
ATOM     26  C   UNL     1      -3.317  12.342  23.742  0.00  0.00    +0.000 C 
ENDBRANCH  20  22
ENDBRANCH  12  18
ENDBRANCH   1  12
BRANCH   2  27
ATOM     27  C   UNL     1       0.230   9.534  19.981  0.00  0.00    +0.000 C 
BRANCH  27  28
ATOM     28  N   UNL     1       1.260   8.966  19.107  0.00  0.00    +0.000 N 
ATOM     29  N   UNL     1       1.541   9.745  18.032  0.00  0.00    +0.000 NA
ATOM     30  N   UNL     1       2.503   9.173  17.321  0.00  0.00    +0.000 NA
ATOM     31  C   UNL     1       2.846   8.022  17.955  0.00  0.00    +0.000 A 
ATOM     32  C   UNL     1       3.823   7.068  17.591  0.00  0.00    +0.000 A 
ATOM     33  C   UNL     1       4.011   5.960  18.399  0.00  0.00    +0.000 A 
ATOM     34  C   UNL     1       3.244   5.804  19.559  0.00  0.00    +0.000 A 
ATOM     35  C   UNL     1       2.264   6.745  19.945  0.00  0.00    +0.000 A 
ATOM     36  C   UNL     1       2.075   7.855  19.109  0.00  0.00    +0.000 A 
ENDBRANCH  27  28
ENDBRANCH   2  27
TORSDOF 7
ENDMDL
MODEL 3
REMARK VINA RESULT:      -6.6      2.574      5.093
REMARK  Name = 
REMARK  8 active torsions:
REMARK  status: ('A' for Active; 'I' for Inactive)
REMARK    1  A    between atoms: C_1  and  O_2
REMARK    2  A    between atoms: O_2  and  C_3
REMARK    3  A    between atoms: C_6  and  N_7
REMARK    4  A    between atoms: N_7  and  C_20
REMARK    5  A    between atoms: C_8  and  C_10
REMARK    6  A    between atoms: C_10  and  N_11
REMARK    7  A    between atoms: C_20  and  C_21
REMARK    8  A    between atoms: N_23  and  C_24
REMARK                            x       y       z     vdW  Elec       q    Type
REMARK                         _______ _______ _______ _____ _____    ______ ____
ROOT
ATOM      1  N   UNL     1      -1.074  12.086  20.239  0.00  0.00    +0.000 N 
ATOM      2  C   UNL     1      -1.584  13.348  20.631  0.00  0.00    +0.000 C 
ATOM      3  O   UNL     1      -0.987  14.062  21.439  0.00  0.00    +0.000 OA
ENDROOT
BRANCH   1   7
ATOM      4  C   UNL     1      -2.781  10.423  16.656  0.00  0.00    +0.000 A 
ATOM      5  C   UNL     1      -2.824   9.710  17.863  0.00  0.00    +0.000 A 
ATOM      6  C   UNL     1      -2.218  10.229  19.021  0.00  0.00    +0.000 A 
ATOM      7  C   UNL     1      -1.586  11.485  19.009  0.00  0.00    +0.000 A 
ATOM      8  C   UNL     1      -1.511  12.163  17.788  0.00  0.00    +0.000 A 
ATOM      9  C   UNL     1      -2.097  11.631  16.622  0.00  0.00    +0.000 A 
BRANCH   4  11
ATOM     10  C   UNL     1      -2.963  10.166  14.288  0.00  0.00    +0.000 C 
ATOM     11  O   UNL     1      -3.403   9.809  15.595  0.00  0.00    +0.000 OA
ENDBRANCH   4  11
ENDBRANCH   1   7
BRANCH   1  12
ATOM     12  C   UNL     1       0.350  11.556  20.649  0.00  0.00    +0.000 C 
ATOM     13  C   UNL     1       0.244  10.930  22.063  0.00  0.00    +0.000 C 
ATOM     14  C   UNL     1      -0.550   9.614  21.977  0.00  0.00    +0.000 C 
ATOM     15  C   UNL     1       0.367   8.537  21.432  0.00  0.00    +0.000 C 
ATOM     16  C   UNL     1       0.999   8.947  20.109  0.00  0.00    +0.000 C 
ATOM     17  C   UNL     1       1.129  10.461  19.803  0.00  0.00    +0.000 C 
BRANCH  12  18
ATOM     18  C   UNL     1       1.364  12.785  20.549  0.00  0.00    +0.000 C 
ATOM     19  O   UNL     1       2.285  12.951  21.347  0.00  0.00    +0.000 OA
ATOM     20  N   UNL     1       1.217  13.596  19.416  0.00  0.00    +0.000 N 
ATOM     21  H   UNL     1       0.544  13.311  18.715  0.00  0.00    +0.000 HD
BRANCH  20  22
ATOM     22  C   UNL     1       2.099  14.725  19.094  0.00  0.00    +0.000 C 
ATOM     23  C   UNL     1       3.099  14.470  17.957  0.00  0.00    +0.000 C 
ATOM     24  C   UNL     1       3.557  15.872  17.542  0.00  0.00    +0.000 C 
ATOM     25  C   UNL     1       2.388  16.804  17.857  0.00  0.00    +0.000 C 
ATOM     26  C   UNL     1       1.332  15.932  18.544  0.00  0.00    +0.000 C 
ENDBRANCH  20  22
ENDBRANCH  12  18
ENDBRANCH   1  12
BRANCH   2  27
ATOM     27  C   UNL     1      -3.011  13.712  20.203  0.00  0.00    +0.000 C 
BRANCH  27  28
ATOM     28  N   UNL     1      -4.204  13.029  20.710  0.00  0.00    +0.000 N 
ATOM     29  N   UNL     1      -4.366  13.157  22.052  0.00  0.00    +0.000 NA
ATOM     30  N   UNL     1      -5.483  12.541  22.414  0.00  0.00    +0.000 NA
ATOM     31  C   UNL     1      -6.045  12.023  21.292  0.00  0.00    +0.000 A 
ATOM     32  C   UNL     1      -7.241  11.285  21.159  0.00  0.00    +0.000 A 
ATOM     33  C   UNL     1      -7.630  10.857  19.902  0.00  0.00    +0.000 A 
ATOM     34  C   UNL     1      -6.844  11.166  18.786  0.00  0.00    +0.000 A 
ATOM     35  C   UNL     1      -5.645  11.905  18.892  0.00  0.00    +0.000 A 
ATOM     36  C   UNL     1      -5.256  12.318  20.175  0.00  0.00    +0.000 A 
ENDBRANCH  27  28
ENDBRANCH   2  27
TORSDOF 7
ENDMDL
MODEL 4
REMARK VINA RESULT:      -6.6      3.359      5.380
REMARK  Name = 
REMARK  8 active torsions:
REMARK  status: ('A' for Active; 'I' for Inactive)
REMARK    1  A    between atoms: C_1  and  O_2
REMARK    2  A    between atoms: O_2  and  C_3
REMARK    3  A    between atoms: C_6  and  N_7
REMARK    4  A    between atoms: N_7  and  C_20
REMARK    5  A    between atoms: C_8  and  C_10
REMARK    6  A    between atoms: C_10  and  N_11
REMARK    7  A    between atoms: C_20  and  C_21
REMARK    8  A    between atoms: N_23  and  C_24
REMARK                            x       y       z     vdW  Elec       q    Type
REMARK                         _______ _______ _______ _____ _____    ______ ____
ROOT
ATOM      1  N   UNL     1       0.273  13.834  20.124  0.00  0.00    +0.000 N 
ATOM      2  C   UNL     1       1.026  12.758  19.591  0.00  0.00    +0.000 C 
ATOM      3  O   UNL     1       2.172  12.921  19.167  0.00  0.00    +0.000 OA
ENDROOT
BRANCH   1   7
ATOM      4  C   UNL     1      -3.104  12.694  22.534  0.00  0.00    +0.000 A 
ATOM      5  C   UNL     1      -3.291  13.196  21.238  0.00  0.00    +0.000 A 
ATOM      6  C   UNL     1      -2.192  13.620  20.471  0.00  0.00    +0.000 A 
ATOM      7  C   UNL     1      -0.879  13.520  20.966  0.00  0.00    +0.000 A 
ATOM      8  C   UNL     1      -0.713  13.061  22.277  0.00  0.00    +0.000 A 
ATOM      9  C   UNL     1      -1.817  12.660  23.055  0.00  0.00    +0.000 A 
BRANCH   4  11
ATOM     10  C   UNL     1      -4.263  12.422  24.606  0.00  0.00    +0.000 C 
ATOM     11  O   UNL     1      -4.255  12.319  23.185  0.00  0.00    +0.000 OA
ENDBRANCH   4  11
ENDBRANCH   1   7
BRANCH   1  12
ATOM     12  C   UNL     1       0.865  15.269  20.381  0.00  0.00    +0.000 C 
ATOM     13  C   UNL     1       0.967  16.001  19.019  0.00  0.00    +0.000 C 
ATOM     14  C   UNL     1      -0.449  16.348  18.522  0.00  0.00    +0.000 C 
ATOM     15  C   UNL     1      -0.937  17.565  19.282  0.00  0.00    +0.000 C 
ATOM     16  C   UNL     1      -0.860  17.361  20.788  0.00  0.00    +0.000 C 
ATOM     17  C   UNL     1       0.158  16.326  21.332  0.00  0.00    +0.000 C 
BRANCH  12  18
ATOM     18  C   UNL     1       2.262  15.082  21.131  0.00  0.00    +0.000 C 
ATOM     19  O   UNL     1       2.356  14.538  22.231  0.00  0.00    +0.000 OA
ATOM     20  N   UNL     1       3.395  15.461  20.399  0.00  0.00    +0.000 N 
ATOM     21  H   UNL     1       3.261  15.752  19.439  0.00  0.00    +0.000 HD
BRANCH  20  22
ATOM     22  C   UNL     1       4.774  15.293  20.874  0.00  0.00    +0.000 C 
ATOM     23  C   UNL     1       5.818  15.047  19.777  0.00  0.00    +0.000 C 
ATOM     24  C   UNL     1       7.156  15.345  20.461  0.00  0.00    +0.000 C 
ATOM     25  C   UNL     1       6.850  16.378  21.546  0.00  0.00    +0.000 C 
ATOM     26  C   UNL     1       5.330  16.564  21.527  0.00  0.00    +0.000 C 
ENDBRANCH  20  22
ENDBRANCH  12  18
ENDBRANCH   1  12
BRANCH   2  27
ATOM     27  C   UNL     1       0.304  11.428  19.342  0.00  0.00    +0.000 C 
BRANCH  27  28
ATOM     28  N   UNL     1       0.817  10.134  19.798  0.00  0.00    +0.000 N 
ATOM     29  N   UNL     1       0.541   9.876  21.102  0.00  0.00    +0.000 NA
ATOM     30  N   UNL     1       1.009   8.676  21.415  0.00  0.00    +0.000 NA
ATOM     31  C   UNL     1       1.582   8.159  20.298  0.00  0.00    +0.000 A 
ATOM     32  C   UNL     1       2.214   6.908  20.124  0.00  0.00    +0.000 A 
ATOM     33  C   UNL     1       2.726   6.582  18.880  0.00  0.00    +0.000 A 
ATOM     34  C   UNL     1       2.606   7.485  17.818  0.00  0.00    +0.000 A 
ATOM     35  C   UNL     1       1.976   8.740  17.966  0.00  0.00    +0.000 A 
ATOM     36  C   UNL     1       1.475   9.062  19.236  0.00  0.00    +0.000 A 
ENDBRANCH  27  28
ENDBRANCH   2  27
TORSDOF 7
ENDMDL
MODEL 5
REMARK VINA RESULT:      -6.6      3.119      6.374
REMARK  Name = 
REMARK  8 active torsions:
REMARK  status: ('A' for Active; 'I' for Inactive)
REMARK    1  A    between atoms: C_1  and  O_2
REMARK    2  A    between atoms: O_2  and  C_3
REMARK    3  A    between atoms: C_6  and  N_7
REMARK    4  A    between atoms: N_7  and  C_20
REMARK    5  A    between atoms: C_8  and  C_10
REMARK    6  A    between atoms: C_10  and  N_11
REMARK    7  A    between atoms: C_20  and  C_21
REMARK    8  A    between atoms: N_23  and  C_24
REMARK                            x       y       z     vdW  Elec       q    Type
REMARK                         _______ _______ _______ _____ _____    ______ ____
ROOT
ATOM      1  N   UNL     1      -0.136  12.063  20.122  0.00  0.00    +0.000 N 
ATOM      2  C   UNL     1       0.439  10.937  20.761  0.00  0.00    +0.000 C 
ATOM      3  O   UNL     1       1.213  11.061  21.712  0.00  0.00    +0.000 OA
ENDROOT
BRANCH   1   7
ATOM      4  C   UNL     1      -3.646  11.685  17.663  0.00  0.00    +0.000 A 
ATOM      5  C   UNL     1      -3.763  11.856  19.050  0.00  0.00    +0.000 A 
ATOM      6  C   UNL     1      -2.617  11.924  19.860  0.00  0.00    +0.000 A 
ATOM      7  C   UNL     1      -1.327  11.859  19.302  0.00  0.00    +0.000 A 
ATOM      8  C   UNL     1      -1.227  11.642  17.924  0.00  0.00    +0.000 A 
ATOM      9  C   UNL     1      -2.377  11.548  17.115  0.00  0.00    +0.000 A 
BRANCH   4  11
ATOM     10  C   UNL     1      -6.033  11.710  17.751  0.00  0.00    +0.000 C 
ATOM     11  O   UNL     1      -4.838  11.626  16.980  0.00  0.00    +0.000 OA
ENDBRANCH   4  11
ENDBRANCH   1   7
BRANCH   1  12
ATOM     12  C   UNL     1       0.014  13.538  20.653  0.00  0.00    +0.000 C 
ATOM     13  C   UNL     1       1.526  13.869  20.738  0.00  0.00    +0.000 C 
ATOM     14  C   UNL     1       2.095  14.006  19.314  0.00  0.00    +0.000 C 
ATOM     15  C   UNL     1       1.700  15.364  18.770  0.00  0.00    +0.000 C 
ATOM     16  C   UNL     1       0.196  15.587  18.840  0.00  0.00    +0.000 C 
ATOM     17  C   UNL     1      -0.610  14.785  19.894  0.00  0.00    +0.000 C 
BRANCH  12  18
ATOM     18  C   UNL     1      -0.756  13.623  22.049  0.00  0.00    +0.000 C 
ATOM     19  O   UNL     1      -0.283  13.183  23.095  0.00  0.00    +0.000 OA
ATOM     20  N   UNL     1      -1.955  14.349  22.031  0.00  0.00    +0.000 N 
ATOM     21  H   UNL     1      -2.208  14.822  21.173  0.00  0.00    +0.000 HD
BRANCH  20  22
ATOM     22  C   UNL     1      -2.771  14.615  23.222  0.00  0.00    +0.000 C 
ATOM     23  C   UNL     1      -2.373  15.863  24.022  0.00  0.00    +0.000 C 
ATOM     24  C   UNL     1      -3.595  16.149  24.900  0.00  0.00    +0.000 C 
ATOM     25  C   UNL     1      -4.800  15.616  24.127  0.00  0.00    +0.000 C 
ATOM     26  C   UNL     1      -4.228  14.942  22.875  0.00  0.00    +0.000 C 
ENDBRANCH  20  22
ENDBRANCH  12  18
ENDBRANCH   1  12
BRANCH   2  27
ATOM     27  C   UNL     1       0.257   9.565  20.101  0.00  0.00    +0.000 C 
BRANCH  27  28
ATOM     28  N   UNL     1       1.247   8.964  19.203  0.00  0.00    +0.000 N 
ATOM     29  N   UNL     1       1.501   9.717  18.103  0.00  0.00    +0.000 NA
ATOM     30  N   UNL     1       2.429   9.117  17.370  0.00  0.00    +0.000 NA
ATOM     31  C   UNL     1       2.777   7.973  18.014  0.00  0.00    +0.000 A 
ATOM     32  C   UNL     1       3.725   6.997  17.636  0.00  0.00    +0.000 A 
ATOM     33  C   UNL     1       3.925   5.902  18.458  0.00  0.00    +0.000 A 
ATOM     34  C   UNL     1       3.198   5.780  19.647  0.00  0.00    +0.000 A 
ATOM     35  C   UNL     1       2.247   6.744  20.049  0.00  0.00    +0.000 A 
ATOM     36  C   UNL     1       2.044   7.841  19.198  0.00  0.00    +0.000 A 
ENDBRANCH  27  28
ENDBRANCH   2  27
TORSDOF 7
ENDMDL
MODEL 6
REMARK VINA RESULT:      -6.5      3.278      5.463
REMARK  Name = 
REMARK  8 active torsions:
REMARK  status: ('A' for Active; 'I' for Inactive)
REMARK    1  A    between atoms: C_1  and  O_2
REMARK    2  A    between atoms: O_2  and  C_3
REMARK    3  A    between atoms: C_6  and  N_7
REMARK    4  A    between atoms: N_7  and  C_20
REMARK    5  A    between atoms: C_8  and  C_10
REMARK    6  A    between atoms: C_10  and  N_11
REMARK    7  A    between atoms: C_20  and  C_21
REMARK    8  A    between atoms: N_23  and  C_24
REMARK                            x       y       z     vdW  Elec       q    Type
REMARK                         _______ _______ _______ _____ _____    ______ ____
ROOT
ATOM      1  N   UNL     1       0.295  14.569  19.639  0.00  0.00    +0.000 N 
ATOM      2  C   UNL     1       0.791  13.414  18.985  0.00  0.00    +0.000 C 
ATOM      3  O   UNL     1       1.780  13.464  18.251  0.00  0.00    +0.000 OA
ENDROOT
BRANCH   1   7
ATOM      4  C   UNL     1      -2.280  14.245  23.071  0.00  0.00    +0.000 A 
ATOM      5  C   UNL     1      -0.930  13.876  23.156  0.00  0.00    +0.000 A 
ATOM      6  C   UNL     1      -0.102  13.930  22.021  0.00  0.00    +0.000 A 
ATOM      7  C   UNL     1      -0.593  14.385  20.785  0.00  0.00    +0.000 A 
ATOM      8  C   UNL     1      -1.952  14.705  20.705  0.00  0.00    +0.000 A 
ATOM      9  C   UNL     1      -2.788  14.628  21.836  0.00  0.00    +0.000 A 
BRANCH   4  11
ATOM     10  C   UNL     1      -3.687  15.304  24.686  0.00  0.00    +0.000 C 
ATOM     11  O   UNL     1      -2.987  14.144  24.246  0.00  0.00    +0.000 OA
ENDBRANCH   4  11
ENDBRANCH   1   7
BRANCH   1  12
ATOM     12  C   UNL     1       1.034  15.959  19.635  0.00  0.00    +0.000 C 
ATOM     13  C   UNL     1       0.801  16.625  18.255  0.00  0.00    +0.000 C 
ATOM     14  C   UNL     1      -0.669  17.070  18.148  0.00  0.00    +0.000 C 
ATOM     15  C   UNL     1      -0.840  18.353  18.937  0.00  0.00    +0.000 C 
ATOM     16  C   UNL     1      -0.359  18.202  20.373  0.00  0.00    +0.000 C 
ATOM     17  C   UNL     1       0.695  17.107  20.678  0.00  0.00    +0.000 C 
BRANCH  12  18
ATOM     18  C   UNL     1       2.567  15.684  19.982  0.00  0.00    +0.000 C 
ATOM     19  O   UNL     1       2.936  15.282  21.084  0.00  0.00    +0.000 OA
ATOM     20  N   UNL     1       3.460  15.809  18.908  0.00  0.00    +0.000 N 
ATOM     21  H   UNL     1       3.071  15.987  17.990  0.00  0.00    +0.000 HD
BRANCH  20  22
ATOM     22  C   UNL     1       4.896  15.520  18.996  0.00  0.00    +0.000 C 
ATOM     23  C   UNL     1       5.471  14.700  17.833  0.00  0.00    +0.000 C 
ATOM     24  C   UNL     1       6.984  14.918  17.934  0.00  0.00    +0.000 C 
ATOM     25  C   UNL     1       7.166  16.296  18.569  0.00  0.00    +0.000 C 
ATOM     26  C   UNL     1       5.756  16.786  18.914  0.00  0.00    +0.000 C 
ENDBRANCH  20  22
ENDBRANCH  12  18
ENDBRANCH   1  12
BRANCH   2  27
ATOM     27  C   UNL     1      -0.063  12.141  19.026  0.00  0.00    +0.000 C 
BRANCH  27  28
ATOM     28  N   UNL     1       0.423  10.861  19.549  0.00  0.00    +0.000 N 
ATOM     29  N   UNL     1       0.004  10.604  20.814  0.00  0.00    +0.000 NA
ATOM     30  N   UNL     1       0.460   9.417  21.189  0.00  0.00    +0.000 NA
ATOM     31  C   UNL     1       1.168   8.907  20.149  0.00  0.00    +0.000 A 
ATOM     32  C   UNL     1       1.843   7.669  20.059  0.00  0.00    +0.000 A 
ATOM     33  C   UNL     1       2.502   7.348  18.884  0.00  0.00    +0.000 A 
ATOM     34  C   UNL     1       2.485   8.243  17.809  0.00  0.00    +0.000 A 
ATOM     35  C   UNL     1       1.815   9.484  17.873  0.00  0.00    +0.000 A 
ATOM     36  C   UNL     1       1.164   9.802  19.074  0.00  0.00    +0.000 A 
ENDBRANCH  27  28
ENDBRANCH   2  27
TORSDOF 7
ENDMDL
MODEL 7
REMARK VINA RESULT:      -6.5      2.366      5.905
REMARK  Name = 
REMARK  8 active torsions:
REMARK  status: ('A' for Active; 'I' for Inactive)
REMARK    1  A    between atoms: C_1  and  O_2
REMARK    2  A    between atoms: O_2  and  C_3
REMARK    3  A    between atoms: C_6  and  N_7
REMARK    4  A    between atoms: N_7  and  C_20
REMARK    5  A    between atoms: C_8  and  C_10
REMARK    6  A    between atoms: C_10  and  N_11
REMARK    7  A    between atoms: C_20  and  C_21
REMARK    8  A    between atoms: N_23  and  C_24
REMARK                            x       y       z     vdW  Elec       q    Type
REMARK                         _______ _______ _______ _____ _____    ______ ____
ROOT
ATOM      1  N   UNL     1      -1.401  11.683  20.100  0.00  0.00    +0.000 N 
ATOM      2  C   UNL     1      -2.168  12.655  20.788  0.00  0.00    +0.000 C 
ATOM      3  O   UNL     1      -1.678  13.350  21.681  0.00  0.00    +0.000 OA
ENDROOT
BRANCH   1   7
ATOM      4  C   UNL     1      -3.056  10.346  16.361  0.00  0.00    +0.000 A 
ATOM      5  C   UNL     1      -3.078   9.512  17.488  0.00  0.00    +0.000 A 
ATOM      6  C   UNL     1      -2.489   9.927  18.694  0.00  0.00    +0.000 A 
ATOM      7  C   UNL     1      -1.895  11.196  18.814  0.00  0.00    +0.000 A 
ATOM      8  C   UNL     1      -1.840  11.997  17.669  0.00  0.00    +0.000 A 
ATOM      9  C   UNL     1      -2.409  11.571  16.452  0.00  0.00    +0.000 A 
BRANCH   4  11
ATOM     10  C   UNL     1      -2.984   9.998  13.998  0.00  0.00    +0.000 C 
ATOM     11  O   UNL     1      -3.660   9.826  15.240  0.00  0.00    +0.000 OA
ENDBRANCH   4  11
ENDBRANCH   1   7
BRANCH   1  12
ATOM     12  C   UNL     1       0.153  11.512  20.280  0.00  0.00    +0.000 C 
ATOM     13  C   UNL     1       0.400  10.603  21.511  0.00  0.00    +0.000 C 
ATOM     14  C   UNL     1      -0.020   9.162  21.169  0.00  0.00    +0.000 C 
ATOM     15  C   UNL     1       1.072   8.532  20.328  0.00  0.00    +0.000 C 
ATOM     16  C   UNL     1       1.396   9.372  19.100  0.00  0.00    +0.000 C 
ATOM     17  C   UNL     1       1.079  10.888  19.150  0.00  0.00    +0.000 C 
BRANCH  12  18
ATOM     18  C   UNL     1       0.783  12.974  20.406  0.00  0.00    +0.000 C 
ATOM     19  O   UNL     1       1.595  13.273  21.280  0.00  0.00    +0.000 OA
ATOM     20  N   UNL     1       0.449  13.864  19.376  0.00  0.00    +0.000 N 
ATOM     21  H   UNL     1      -0.095  13.506  18.601  0.00  0.00    +0.000 HD
BRANCH  20  22
ATOM     22  C   UNL     1       0.987  15.225  19.261  0.00  0.00    +0.000 C 
ATOM     23  C   UNL     1       2.262  15.355  18.417  0.00  0.00    +0.000 C 
ATOM     24  C   UNL     1       2.349  16.851  18.099  0.00  0.00    +0.000 C 
ATOM     25  C   UNL     1       0.908  17.361  18.091  0.00  0.00    +0.000 C 
ATOM     26  C   UNL     1       0.041  16.169  18.510  0.00  0.00    +0.000 C 
ENDBRANCH  20  22
ENDBRANCH  12  18
ENDBRANCH   1  12
BRANCH   2  27
ATOM     27  C   UNL     1      -3.684  12.672  20.556  0.00  0.00    +0.000 C 
BRANCH  27  28
ATOM     28  N   UNL     1      -4.648  13.141  21.554  0.00  0.00    +0.000 N 
ATOM     29  N   UNL     1      -5.438  12.153  22.044  0.00  0.00    +0.000 NA
ATOM     30  N   UNL     1      -6.250  12.661  22.962  0.00  0.00    +0.000 NA
ATOM     31  C   UNL     1      -5.968  13.986  23.065  0.00  0.00    +0.000 A 
ATOM     32  C   UNL     1      -6.558  14.954  23.907  0.00  0.00    +0.000 A 
ATOM     33  C   UNL     1      -6.103  16.260  23.849  0.00  0.00    +0.000 A 
ATOM     34  C   UNL     1      -5.067  16.599  22.971  0.00  0.00    +0.000 A 
ATOM     35  C   UNL     1      -4.459  15.649  22.123  0.00  0.00    +0.000 A 
ATOM     36  C   UNL     1      -4.941  14.333  22.181  0.00  0.00    +0.000 A 
ENDBRANCH  27  28
ENDBRANCH   2  27
TORSDOF 7
ENDMDL
MODEL 8
REMARK VINA RESULT:      -6.4      3.110      6.311
REMARK  Name = 
REMARK  8 active torsions:
REMARK  status: ('A' for Active; 'I' for Inactive)
REMARK    1  A    between atoms: C_1  and  O_2
REMARK    2  A    between atoms: O_2  and  C_3
REMARK    3  A    between atoms: C_6  and  N_7
REMARK    4  A    between atoms: N_7  and  C_20
REMARK    5  A    between atoms: C_8  and  C_10
REMARK    6  A    between atoms: C_10  and  N_11
REMARK    7  A    between atoms: C_20  and  C_21
REMARK    8  A    between atoms: N_23  and  C_24
REMARK                            x       y       z     vdW  Elec       q    Type
REMARK                         _______ _______ _______ _____ _____    ______ ____
ROOT
ATOM      1  N   UNL     1       0.076  12.222  20.100  0.00  0.00    +0.000 N 
ATOM      2  C   UNL     1       0.633  11.067  20.702  0.00  0.00    +0.000 C 
ATOM      3  O   UNL     1       1.486  11.150  21.588  0.00  0.00    +0.000 OA
ENDROOT
BRANCH   1   7
ATOM      4  C   UNL     1      -3.643  11.594  18.028  0.00  0.00    +0.000 A 
ATOM      5  C   UNL     1      -2.424  11.533  17.338  0.00  0.00    +0.000 A 
ATOM      6  C   UNL     1      -1.213  11.792  18.003  0.00  0.00    +0.000 A 
ATOM      7  C   UNL     1      -1.188  12.084  19.379  0.00  0.00    +0.000 A 
ATOM      8  C   UNL     1      -2.414  12.188  20.042  0.00  0.00    +0.000 A 
ATOM      9  C   UNL     1      -3.630  11.952  19.370  0.00  0.00    +0.000 A 
BRANCH   4  11
ATOM     10  C   UNL     1      -6.019  11.362  17.928  0.00  0.00    +0.000 C 
ATOM     11  O   UNL     1      -4.757  11.327  17.268  0.00  0.00    +0.000 OA
ENDBRANCH   4  11
ENDBRANCH   1   7
BRANCH   1  12
ATOM     12  C   UNL     1       0.354  13.688  20.603  0.00  0.00    +0.000 C 
ATOM     13  C   UNL     1       1.888  13.891  20.674  0.00  0.00    +0.000 C 
ATOM     14  C   UNL     1       2.459  13.953  19.245  0.00  0.00    +0.000 C 
ATOM     15  C   UNL     1       2.177  15.330  18.677  0.00  0.00    +0.000 C 
ATOM     16  C   UNL     1       0.697  15.681  18.751  0.00  0.00    +0.000 C 
ATOM     17  C   UNL     1      -0.168  14.969  19.823  0.00  0.00    +0.000 C 
BRANCH  12  18
ATOM     18  C   UNL     1      -0.398  13.863  22.000  0.00  0.00    +0.000 C 
ATOM     19  O   UNL     1      -0.157  13.156  22.976  0.00  0.00    +0.000 OA
ATOM     20  N   UNL     1      -1.263  14.963  22.084  0.00  0.00    +0.000 N 
ATOM     21  H   UNL     1      -1.295  15.600  21.298  0.00  0.00    +0.000 HD
BRANCH  20  22
ATOM     22  C   UNL     1      -1.984  15.349  23.303  0.00  0.00    +0.000 C 
ATOM     23  C   UNL     1      -2.895  14.264  23.895  0.00  0.00    +0.000 C 
ATOM     24  C   UNL     1      -3.159  14.738  25.327  0.00  0.00    +0.000 C 
ATOM     25  C   UNL     1      -1.931  15.553  25.731  0.00  0.00    +0.000 C 
ATOM     26  C   UNL     1      -1.043  15.616  24.484  0.00  0.00    +0.000 C 
ENDBRANCH  20  22
ENDBRANCH  12  18
ENDBRANCH   1  12
BRANCH   2  27
ATOM     27  C   UNL     1       0.318   9.705  20.072  0.00  0.00    +0.000 C 
BRANCH  27  28
ATOM     28  N   UNL     1       1.257   8.977  19.214  0.00  0.00    +0.000 N 
ATOM     29  N   UNL     1       1.561   9.639  18.068  0.00  0.00    +0.000 NA
ATOM     30  N   UNL     1       2.438   8.926  17.375  0.00  0.00    +0.000 NA
ATOM     31  C   UNL     1       2.705   7.803  18.090  0.00  0.00    +0.000 A 
ATOM     32  C   UNL     1       3.577   6.738  17.775  0.00  0.00    +0.000 A 
ATOM     33  C   UNL     1       3.700   5.685  18.665  0.00  0.00    +0.000 A 
ATOM     34  C   UNL     1       2.971   5.693  19.859  0.00  0.00    +0.000 A 
ATOM     35  C   UNL     1       2.096   6.747  20.199  0.00  0.00    +0.000 A 
ATOM     36  C   UNL     1       1.970   7.800  19.280  0.00  0.00    +0.000 A 
ENDBRANCH  27  28
ENDBRANCH   2  27
TORSDOF 7
ENDMDL
MODEL 9
REMARK VINA RESULT:      -6.4      7.458     11.476
REMARK  Name = 
REMARK  8 active torsions:
REMARK  status: ('A' for Active; 'I' for Inactive)
REMARK    1  A    between atoms: C_1  and  O_2
REMARK    2  A    between atoms: O_2  and  C_3
REMARK    3  A    between atoms: C_6  and  N_7
REMARK    4  A    between atoms: N_7  and  C_20
REMARK    5  A    between atoms: C_8  and  C_10
REMARK    6  A    between atoms: C_10  and  N_11
REMARK    7  A    between atoms: C_20  and  C_21
REMARK    8  A    between atoms: N_23  and  C_24
REMARK                            x       y       z     vdW  Elec       q    Type
REMARK                         _______ _______ _______ _____ _____    ______ ____
ROOT
ATOM      1  N   UNL     1       3.874   5.323  17.703  0.00  0.00    +0.000 N 
ATOM      2  C   UNL     1       2.750   6.139  17.980  0.00  0.00    +0.000 C 
ATOM      3  O   UNL     1       1.627   5.656  18.141  0.00  0.00    +0.000 OA
ENDROOT
BRANCH   1   7
ATOM      4  C   UNL     1       7.701   7.119  18.506  0.00  0.00    +0.000 A 
ATOM      5  C   UNL     1       6.933   7.538  17.410  0.00  0.00    +0.000 A 
ATOM      6  C   UNL     1       5.709   6.914  17.116  0.00  0.00    +0.000 A 
ATOM      7  C   UNL     1       5.206   5.882  17.928  0.00  0.00    +0.000 A 
ATOM      8  C   UNL     1       6.004   5.444  18.989  0.00  0.00    +0.000 A 
ATOM      9  C   UNL     1       7.244   6.053  19.269  0.00  0.00    +0.000 A 
BRANCH   4  11
ATOM     10  C   UNL     1       8.816   9.225  18.675  0.00  0.00    +0.000 C 
ATOM     11  O   UNL     1       8.880   7.802  18.687  0.00  0.00    +0.000 OA
ENDBRANCH   4  11
ENDBRANCH   1   7
BRANCH   1  12
ATOM     12  C   UNL     1       3.840   3.750  17.742  0.00  0.00    +0.000 C 
ATOM     13  C   UNL     1       4.173   3.294  19.185  0.00  0.00    +0.000 C 
ATOM     14  C   UNL     1       2.992   3.640  20.111  0.00  0.00    +0.000 C 
ATOM     15  C   UNL     1       1.903   2.607  19.902  0.00  0.00    +0.000 C 
ATOM     16  C   UNL     1       1.506   2.491  18.437  0.00  0.00    +0.000 C 
ATOM     17  C   UNL     1       2.542   2.915  17.365  0.00  0.00    +0.000 C 
BRANCH  12  18
ATOM     18  C   UNL     1       4.863   3.224  16.635  0.00  0.00    +0.000 C 
ATOM     19  O   UNL     1       5.234   2.052  16.578  0.00  0.00    +0.000 OA
ATOM     20  N   UNL     1       5.214   4.155  15.647  0.00  0.00    +0.000 N 
ATOM     21  H   UNL     1       4.748   5.054  15.660  0.00  0.00    +0.000 HD
BRANCH  20  22
ATOM     22  C   UNL     1       6.073   3.848  14.497  0.00  0.00    +0.000 C 
ATOM     23  C   UNL     1       5.338   3.660  13.163  0.00  0.00    +0.000 C 
ATOM     24  C   UNL     1       6.438   3.795  12.107  0.00  0.00    +0.000 C 
ATOM     25  C   UNL     1       7.493   4.718  12.718  0.00  0.00    +0.000 C 
ATOM     26  C   UNL     1       7.021   5.001  14.148  0.00  0.00    +0.000 C 
ENDBRANCH  20  22
ENDBRANCH  12  18
ENDBRANCH   1  12
BRANCH   2  27
ATOM     27  C   UNL     1       2.915   7.658  17.851  0.00  0.00    +0.000 C 
BRANCH  27  28
ATOM     28  N   UNL     1       2.006   8.624  18.475  0.00  0.00    +0.000 N 
ATOM     29  N   UNL     1       1.600   9.604  17.629  0.00  0.00    +0.000 NA
ATOM     30  N   UNL     1       0.758  10.406  18.265  0.00  0.00    +0.000 NA
ATOM     31  C   UNL     1       0.617   9.927  19.528  0.00  0.00    +0.000 A 
ATOM     32  C   UNL     1      -0.174  10.431  20.583  0.00  0.00    +0.000 A 
ATOM     33  C   UNL     1      -0.171   9.770  21.800  0.00  0.00    +0.000 A 
ATOM     34  C   UNL     1       0.603   8.617  21.964  0.00  0.00    +0.000 A 
ATOM     35  C   UNL     1       1.400   8.091  20.924  0.00  0.00    +0.000 A 
ATOM     36  C   UNL     1       1.398   8.780  19.702  0.00  0.00    +0.000 A 
ENDBRANCH  27  28
ENDBRANCH   2  27
TORSDOF 7
ENDMDL
