MODEL 1
REMARK VINA RESULT:      -7.0      0.000      0.000
REMARK  Name = 
REMARK  7 active torsions:
REMARK  status: ('A' for Active; 'I' for Inactive)
REMARK    1  A    between atoms: C_1  and  C_2
REMARK    2  A    between atoms: C_2  and  C_3
REMARK    3  A    between atoms: C_3  and  O_4
REMARK    4  A    between atoms: O_4  and  N_5
REMARK    5  A    between atoms: C_6  and  S_7
REMARK    6  A    between atoms: S_7  and  C_8
REMARK    7  A    between atoms: C_14  and  C_15
REMARK                            x       y       z     vdW  Elec       q    Type
REMARK                         _______ _______ _______ _____ _____    ______ ____
ROOT
ATOM      1  N   UNL     1       2.936   4.457  19.688  0.00  0.00    +0.000 N 
ATOM      2  C   UNL     1       3.099   5.477  18.747  0.00  0.00    +0.000 A 
ATOM      3  C   UNL     1       2.583   6.705  18.989  0.00  0.00    +0.000 A 
ATOM      4  C   UNL     1       2.751   7.977  18.208  0.00  0.00    +0.000 C 
ATOM      5  C   UNL     1       1.777   6.893  20.227  0.00  0.00    +0.000 A 
ATOM      6  O   UNL     1       1.331   7.989  20.546  0.00  0.00    +0.000 OA
ATOM      7  N   UNL     1       1.590   5.806  21.013  0.00  0.00    +0.000 N 
ATOM      8  C   UNL     1       2.340   4.670  20.920  0.00  0.00    +0.000 A 
ATOM      9  O   UNL     1       2.432   3.957  21.919  0.00  0.00    +0.000 OA
ATOM     10  H   UNL     1       1.170   5.974  21.913  0.00  0.00    +0.000 HD
ENDROOT
BRANCH   1  11
ATOM     11  O   UNL     1       3.785   3.313  19.568  0.00  0.00    +0.000 OA
BRANCH  11  12
ATOM     12  C   UNL     1       3.014   2.112  19.395  0.00  0.00    +0.000 C 
BRANCH  12  14
ATOM     13  C   UNL     1       0.616   2.343  18.668  0.00  0.00    +0.000 C 
ATOM     14  C   UNL     1       2.065   2.261  18.204  0.00  0.00    +0.000 C 
ENDBRANCH  12  14
ENDBRANCH  11  12
ENDBRANCH   1  11
BRANCH   2  15
ATOM     15  S   UNL     1       4.156   5.202  17.385  0.00  0.00    +0.000 S 
BRANCH  15  16
ATOM     16  C   UNL     1       5.757   5.846  17.856  0.00  0.00    +0.000 A 
ATOM     17  C   UNL     1       6.597   5.323  18.843  0.00  0.00    +0.000 A 
ATOM     18  C   UNL     1       7.822   5.937  19.139  0.00  0.00    +0.000 A 
ATOM     19  C   UNL     1       8.229   7.076  18.448  0.00  0.00    +0.000 A 
ATOM     20  C   UNL     1       7.425   7.589  17.437  0.00  0.00    +0.000 A 
ATOM     21  C   UNL     1       6.204   6.973  17.141  0.00  0.00    +0.000 A 
ENDBRANCH  15  16
ENDBRANCH   2  15
TORSDOF 5
ENDMDL
MODEL 2
REMARK VINA RESULT:      -6.9      2.124      4.945
REMARK  Name = 
REMARK  7 active torsions:
REMARK  status: ('A' for Active; 'I' for Inactive)
REMARK    1  A    between atoms: C_1  and  C_2
REMARK    2  A    between atoms: C_2  and  C_3
REMARK    3  A    between atoms: C_3  and  O_4
REMARK    4  A    between atoms: O_4  and  N_5
REMARK    5  A    between atoms: C_6  and  S_7
REMARK    6  A    between atoms: S_7  and  C_8
REMARK    7  A    between atoms: C_14  and  C_15
REMARK                            x       y       z     vdW  Elec       q    Type
REMARK                         _______ _______ _______ _____ _____    ______ ____
ROOT
ATOM      1  N   UNL     1       4.628   3.813  18.908  0.00  0.00    +0.000 N 
ATOM      2  C   UNL     1       3.639   4.427  18.135  0.00  0.00    +0.000 A 
ATOM      3  C   UNL     1       2.427   3.838  18.000  0.00  0.00    +0.000 A 
ATOM      4  C   UNL     1       1.180   4.368  17.353  0.00  0.00    +0.000 C 
ATOM      5  C   UNL     1       2.228   2.498  18.619  0.00  0.00    +0.000 A 
ATOM      6  O   UNL     1       1.142   1.931  18.595  0.00  0.00    +0.000 OA
ATOM      7  N   UNL     1       3.291   1.946  19.252  0.00  0.00    +0.000 N 
ATOM      8  C   UNL     1       4.395   2.654  19.630  0.00  0.00    +0.000 A 
ATOM      9  O   UNL     1       5.063   2.220  20.567  0.00  0.00    +0.000 OA
ATOM     10  H   UNL     1       3.108   1.112  19.786  0.00  0.00    +0.000 HD
ENDROOT
BRANCH   1  11
ATOM     11  O   UNL     1       5.736   4.618  19.316  0.00  0.00    +0.000 OA
BRANCH  11  12
ATOM     12  C   UNL     1       6.703   4.743  18.259  0.00  0.00    +0.000 C 
BRANCH  12  14
ATOM     13  C   UNL     1       7.588   6.957  17.455  0.00  0.00    +0.000 C 
ATOM     14  C   UNL     1       7.658   5.902  18.552  0.00  0.00    +0.000 C 
ENDBRANCH  12  14
ENDBRANCH  11  12
ENDBRANCH   1  11
BRANCH   2  15
ATOM     15  S   UNL     1       3.918   6.047  17.547  0.00  0.00    +0.000 S 
BRANCH  15  16
ATOM     16  C   UNL     1       2.828   7.114  18.483  0.00  0.00    +0.000 A 
ATOM     17  C   UNL     1       2.223   8.284  18.018  0.00  0.00    +0.000 A 
ATOM     18  C   UNL     1       1.407   9.052  18.862  0.00  0.00    +0.000 A 
ATOM     19  C   UNL     1       1.178   8.657  20.177  0.00  0.00    +0.000 A 
ATOM     20  C   UNL     1       1.742   7.476  20.647  0.00  0.00    +0.000 A 
ATOM     21  C   UNL     1       2.553   6.710  19.803  0.00  0.00    +0.000 A 
ENDBRANCH  15  16
ENDBRANCH   2  15
TORSDOF 5
ENDMDL
MODEL 3
REMARK VINA RESULT:      -6.8      2.254      4.801
REMARK  Name = 
REMARK  7 active torsions:
REMARK  status: ('A' for Active; 'I' for Inactive)
REMARK    1  A    between atoms: C_1  and  C_2
REMARK    2  A    between atoms: C_2  and  C_3
REMARK    3  A    between atoms: C_3  and  O_4
REMARK    4  A    between atoms: O_4  and  N_5
REMARK    5  A    between atoms: C_6  and  S_7
REMARK    6  A    between atoms: S_7  and  C_8
REMARK    7  A    between atoms: C_14  and  C_15
REMARK                            x       y       z     vdW  Elec       q    Type
REMARK                         _______ _______ _______ _____ _____    ______ ____
ROOT
ATOM      1  N   UNL     1       4.639   3.787  18.722  0.00  0.00    +0.000 N 
ATOM      2  C   UNL     1       3.605   4.440  18.046  0.00  0.00    +0.000 A 
ATOM      3  C   UNL     1       2.369   3.890  18.015  0.00  0.00    +0.000 A 
ATOM      4  C   UNL     1       1.086   4.465  17.487  0.00  0.00    +0.000 C 
ATOM      5  C   UNL     1       2.184   2.549  18.637  0.00  0.00    +0.000 A 
ATOM      6  O   UNL     1       1.083   2.016  18.705  0.00  0.00    +0.000 OA
ATOM      7  N   UNL     1       3.281   1.958  19.167  0.00  0.00    +0.000 N 
ATOM      8  C   UNL     1       4.436   2.628  19.452  0.00  0.00    +0.000 A 
ATOM      9  O   UNL     1       5.171   2.162  20.322  0.00  0.00    +0.000 OA
ATOM     10  H   UNL     1       3.120   1.124  19.709  0.00  0.00    +0.000 HD
ENDROOT
BRANCH   1  11
ATOM     11  O   UNL     1       5.804   4.554  19.036  0.00  0.00    +0.000 OA
BRANCH  11  12
ATOM     12  C   UNL     1       6.822   4.385  18.035  0.00  0.00    +0.000 C 
BRANCH  12  14
ATOM     13  C   UNL     1       7.959   6.425  18.972  0.00  0.00    +0.000 C 
ATOM     14  C   UNL     1       7.467   5.732  17.706  0.00  0.00    +0.000 C 
ENDBRANCH  12  14
ENDBRANCH  11  12
ENDBRANCH   1  11
BRANCH   2  15
ATOM     15  S   UNL     1       3.881   6.058  17.450  0.00  0.00    +0.000 S 
BRANCH  15  16
ATOM     16  C   UNL     1       2.853   7.138  18.439  0.00  0.00    +0.000 A 
ATOM     17  C   UNL     1       2.482   6.929  19.770  0.00  0.00    +0.000 A 
ATOM     18  C   UNL     1       1.645   7.841  20.431  0.00  0.00    +0.000 A 
ATOM     19  C   UNL     1       1.177   8.976  19.775  0.00  0.00    +0.000 A 
ATOM     20  C   UNL     1       1.565   9.220  18.462  0.00  0.00    +0.000 A 
ATOM     21  C   UNL     1       2.402   8.310  17.806  0.00  0.00    +0.000 A 
ENDBRANCH  15  16
ENDBRANCH   2  15
TORSDOF 5
ENDMDL
MODEL 4
REMARK VINA RESULT:      -6.8      0.365      1.136
REMARK  Name = 
REMARK  7 active torsions:
REMARK  status: ('A' for Active; 'I' for Inactive)
REMARK    1  A    between atoms: C_1  and  C_2
REMARK    2  A    between atoms: C_2  and  C_3
REMARK    3  A    between atoms: C_3  and  O_4
REMARK    4  A    between atoms: O_4  and  N_5
REMARK    5  A    between atoms: C_6  and  S_7
REMARK    6  A    between atoms: S_7  and  C_8
REMARK    7  A    between atoms: C_14  and  C_15
REMARK                            x       y       z     vdW  Elec       q    Type
REMARK                         _______ _______ _______ _____ _____    ______ ____
ROOT
ATOM      1  N   UNL     1       2.909   4.619  19.653  0.00  0.00    +0.000 N 
ATOM      2  C   UNL     1       3.106   5.604  18.682  0.00  0.00    +0.000 A 
ATOM      3  C   UNL     1       2.615   6.850  18.878  0.00  0.00    +0.000 A 
ATOM      4  C   UNL     1       2.822   8.092  18.060  0.00  0.00    +0.000 C 
ATOM      5  C   UNL     1       1.798   7.095  20.099  0.00  0.00    +0.000 A 
ATOM      6  O   UNL     1       1.374   8.211  20.378  0.00  0.00    +0.000 OA
ATOM      7  N   UNL     1       1.578   6.039  20.917  0.00  0.00    +0.000 N 
ATOM      8  C   UNL     1       2.303   4.884  20.870  0.00  0.00    +0.000 A 
ATOM      9  O   UNL     1       2.366   4.202  21.892  0.00  0.00    +0.000 OA
ATOM     10  H   UNL     1       1.150   6.245  21.806  0.00  0.00    +0.000 HD
ENDROOT
BRANCH   1  11
ATOM     11  O   UNL     1       3.733   3.453  19.581  0.00  0.00    +0.000 OA
BRANCH  11  12
ATOM     12  C   UNL     1       3.134   2.445  18.748  0.00  0.00    +0.000 C 
BRANCH  12  14
ATOM     13  C   UNL     1       0.620   2.347  18.693  0.00  0.00    +0.000 C 
ATOM     14  C   UNL     1       1.878   1.886  19.419  0.00  0.00    +0.000 C 
ENDBRANCH  12  14
ENDBRANCH  11  12
ENDBRANCH   1  11
BRANCH   2  15
ATOM     15  S   UNL     1       4.173   5.262  17.343  0.00  0.00    +0.000 S 
BRANCH  15  16
ATOM     16  C   UNL     1       5.750   5.999  17.759  0.00  0.00    +0.000 A 
ATOM     17  C   UNL     1       6.323   7.116  17.145  0.00  0.00    +0.000 A 
ATOM     18  C   UNL     1       7.584   7.584  17.545  0.00  0.00    +0.000 A 
ATOM     19  C   UNL     1       8.283   6.949  18.568  0.00  0.00    +0.000 A 
ATOM     20  C   UNL     1       7.713   5.859  19.215  0.00  0.00    +0.000 A 
ATOM     21  C   UNL     1       6.454   5.395  18.817  0.00  0.00    +0.000 A 
ENDBRANCH  15  16
ENDBRANCH   2  15
TORSDOF 5
ENDMDL
MODEL 5
REMARK VINA RESULT:      -6.8      1.556      3.791
REMARK  Name = 
REMARK  7 active torsions:
REMARK  status: ('A' for Active; 'I' for Inactive)
REMARK    1  A    between atoms: C_1  and  C_2
REMARK    2  A    between atoms: C_2  and  C_3
REMARK    3  A    between atoms: C_3  and  O_4
REMARK    4  A    between atoms: O_4  and  N_5
REMARK    5  A    between atoms: C_6  and  S_7
REMARK    6  A    between atoms: S_7  and  C_8
REMARK    7  A    between atoms: C_14  and  C_15
REMARK                            x       y       z     vdW  Elec       q    Type
REMARK                         _______ _______ _______ _____ _____    ______ ____
ROOT
ATOM      1  N   UNL     1       2.632   5.281  19.416  0.00  0.00    +0.000 N 
ATOM      2  C   UNL     1       3.564   4.276  19.143  0.00  0.00    +0.000 A 
ATOM      3  C   UNL     1       3.676   3.217  19.979  0.00  0.00    +0.000 A 
ATOM      4  C   UNL     1       4.487   1.963  19.819  0.00  0.00    +0.000 C 
ATOM      5  C   UNL     1       2.850   3.214  21.218  0.00  0.00    +0.000 A 
ATOM      6  O   UNL     1       2.849   2.262  21.990  0.00  0.00    +0.000 OA
ATOM      7  N   UNL     1       2.062   4.293  21.438  0.00  0.00    +0.000 N 
ATOM      8  C   UNL     1       1.738   5.201  20.471  0.00  0.00    +0.000 A 
ATOM      9  O   UNL     1       0.698   5.842  20.610  0.00  0.00    +0.000 OA
ATOM     10  H   UNL     1       1.406   4.219  22.198  0.00  0.00    +0.000 HD
ENDROOT
BRANCH   1  11
ATOM     11  O   UNL     1       2.296   6.171  18.349  0.00  0.00    +0.000 OA
BRANCH  11  12
ATOM     12  C   UNL     1       2.616   7.531  18.688  0.00  0.00    +0.000 C 
BRANCH  12  14
ATOM     13  C   UNL     1       1.851   9.885  18.235  0.00  0.00    +0.000 C 
ATOM     14  C   UNL     1       2.020   8.487  17.653  0.00  0.00    +0.000 C 
ENDBRANCH  12  14
ENDBRANCH  11  12
ENDBRANCH   1  11
BRANCH   2  15
ATOM     15  S   UNL     1       4.401   4.301  17.611  0.00  0.00    +0.000 S 
BRANCH  15  16
ATOM     16  C   UNL     1       5.739   5.476  17.791  0.00  0.00    +0.000 A 
ATOM     17  C   UNL     1       5.908   6.650  17.052  0.00  0.00    +0.000 A 
ATOM     18  C   UNL     1       7.019   7.479  17.269  0.00  0.00    +0.000 A 
ATOM     19  C   UNL     1       7.969   7.151  18.234  0.00  0.00    +0.000 A 
ATOM     20  C   UNL     1       7.798   6.006  19.004  0.00  0.00    +0.000 A 
ATOM     21  C   UNL     1       6.688   5.183  18.788  0.00  0.00    +0.000 A 
ENDBRANCH  15  16
ENDBRANCH   2  15
TORSDOF 5
ENDMDL
MODEL 6
REMARK VINA RESULT:      -6.7      1.573      3.636
REMARK  Name = 
REMARK  7 active torsions:
REMARK  status: ('A' for Active; 'I' for Inactive)
REMARK    1  A    between atoms: C_1  and  C_2
REMARK    2  A    between atoms: C_2  and  C_3
REMARK    3  A    between atoms: C_3  and  O_4
REMARK    4  A    between atoms: O_4  and  N_5
REMARK    5  A    between atoms: C_6  and  S_7
REMARK    6  A    between atoms: S_7  and  C_8
REMARK    7  A    between atoms: C_14  and  C_15
REMARK                            x       y       z     vdW  Elec       q    Type
REMARK                         _______ _______ _______ _____ _____    ______ ____
ROOT
ATOM      1  N   UNL     1       2.619   5.269  19.455  0.00  0.00    +0.000 N 
ATOM      2  C   UNL     1       3.558   4.276  19.164  0.00  0.00    +0.000 A 
ATOM      3  C   UNL     1       3.673   3.199  19.976  0.00  0.00    +0.000 A 
ATOM      4  C   UNL     1       4.492   1.954  19.792  0.00  0.00    +0.000 C 
ATOM      5  C   UNL     1       2.842   3.163  21.211  0.00  0.00    +0.000 A 
ATOM      6  O   UNL     1       2.843   2.194  21.961  0.00  0.00    +0.000 OA
ATOM      7  N   UNL     1       2.046   4.232  21.451  0.00  0.00    +0.000 N 
ATOM      8  C   UNL     1       1.721   5.159  20.504  0.00  0.00    +0.000 A 
ATOM      9  O   UNL     1       0.676   5.791  20.652  0.00  0.00    +0.000 OA
ATOM     10  H   UNL     1       1.386   4.137  22.207  0.00  0.00    +0.000 HD
ENDROOT
BRANCH   1  11
ATOM     11  O   UNL     1       2.282   6.181  18.407  0.00  0.00    +0.000 OA
BRANCH  11  12
ATOM     12  C   UNL     1       2.582   7.536  18.783  0.00  0.00    +0.000 C 
BRANCH  12  14
ATOM     13  C   UNL     1       1.653   9.793  18.168  0.00  0.00    +0.000 C 
ATOM     14  C   UNL     1       2.237   8.490  17.637  0.00  0.00    +0.000 C 
ENDBRANCH  12  14
ENDBRANCH  11  12
ENDBRANCH   1  11
BRANCH   2  15
ATOM     15  S   UNL     1       4.402   4.342  17.637  0.00  0.00    +0.000 S 
BRANCH  15  16
ATOM     16  C   UNL     1       5.818   5.405  17.892  0.00  0.00    +0.000 A 
ATOM     17  C   UNL     1       6.864   5.181  18.791  0.00  0.00    +0.000 A 
ATOM     18  C   UNL     1       7.909   6.108  18.919  0.00  0.00    +0.000 A 
ATOM     19  C   UNL     1       7.927   7.266  18.145  0.00  0.00    +0.000 A 
ATOM     20  C   UNL     1       6.914   7.489  17.219  0.00  0.00    +0.000 A 
ATOM     21  C   UNL     1       5.874   6.561  17.091  0.00  0.00    +0.000 A 
ENDBRANCH  15  16
ENDBRANCH   2  15
TORSDOF 5
ENDMDL
MODEL 7
REMARK VINA RESULT:      -6.7      1.812      3.997
REMARK  Name = 
REMARK  7 active torsions:
REMARK  status: ('A' for Active; 'I' for Inactive)
REMARK    1  A    between atoms: C_1  and  C_2
REMARK    2  A    between atoms: C_2  and  C_3
REMARK    3  A    between atoms: C_3  and  O_4
REMARK    4  A    between atoms: O_4  and  N_5
REMARK    5  A    between atoms: C_6  and  S_7
REMARK    6  A    between atoms: S_7  and  C_8
REMARK    7  A    between atoms: C_14  and  C_15
REMARK                            x       y       z     vdW  Elec       q    Type
REMARK                         _______ _______ _______ _____ _____    ______ ____
ROOT
ATOM      1  N   UNL     1       2.446   5.388  19.205  0.00  0.00    +0.000 N 
ATOM      2  C   UNL     1       2.793   4.098  18.797  0.00  0.00    +0.000 A 
ATOM      3  C   UNL     1       2.780   3.082  19.691  0.00  0.00    +0.000 A 
ATOM      4  C   UNL     1       2.969   1.610  19.459  0.00  0.00    +0.000 C 
ATOM      5  C   UNL     1       2.478   3.406  21.113  0.00  0.00    +0.000 A 
ATOM      6  O   UNL     1       2.385   2.532  21.968  0.00  0.00    +0.000 OA
ATOM      7  N   UNL     1       2.265   4.708  21.418  0.00  0.00    +0.000 N 
ATOM      8  C   UNL     1       1.994   5.667  20.485  0.00  0.00    +0.000 A 
ATOM      9  O   UNL     1       1.374   6.665  20.849  0.00  0.00    +0.000 OA
ATOM     10  H   UNL     1       1.922   4.899  22.346  0.00  0.00    +0.000 HD
ENDROOT
BRANCH   1  11
ATOM     11  O   UNL     1       2.125   6.335  18.184  0.00  0.00    +0.000 OA
BRANCH  11  12
ATOM     12  C   UNL     1       3.048   7.438  18.191  0.00  0.00    +0.000 C 
BRANCH  12  14
ATOM     13  C   UNL     1       1.411   9.294  18.644  0.00  0.00    +0.000 C 
ATOM     14  C   UNL     1       2.376   8.692  17.630  0.00  0.00    +0.000 C 
ENDBRANCH  12  14
ENDBRANCH  11  12
ENDBRANCH   1  11
BRANCH   2  15
ATOM     15  S   UNL     1       3.016   3.789  17.093  0.00  0.00    +0.000 S 
BRANCH  15  16
ATOM     16  C   UNL     1       4.728   4.168  16.735  0.00  0.00    +0.000 A 
ATOM     17  C   UNL     1       5.305   4.250  15.465  0.00  0.00    +0.000 A 
ATOM     18  C   UNL     1       6.671   4.529  15.316  0.00  0.00    +0.000 A 
ATOM     19  C   UNL     1       7.477   4.740  16.433  0.00  0.00    +0.000 A 
ATOM     20  C   UNL     1       6.913   4.698  17.703  0.00  0.00    +0.000 A 
ATOM     21  C   UNL     1       5.549   4.422  17.849  0.00  0.00    +0.000 A 
ENDBRANCH  15  16
ENDBRANCH   2  15
TORSDOF 5
ENDMDL
MODEL 8
REMARK VINA RESULT:      -6.6      1.811      3.879
REMARK  Name = 
REMARK  7 active torsions:
REMARK  status: ('A' for Active; 'I' for Inactive)
REMARK    1  A    between atoms: C_1  and  C_2
REMARK    2  A    between atoms: C_2  and  C_3
REMARK    3  A    between atoms: C_3  and  O_4
REMARK    4  A    between atoms: O_4  and  N_5
REMARK    5  A    between atoms: C_6  and  S_7
REMARK    6  A    between atoms: S_7  and  C_8
REMARK    7  A    between atoms: C_14  and  C_15
REMARK                            x       y       z     vdW  Elec       q    Type
REMARK                         _______ _______ _______ _____ _____    ______ ____
ROOT
ATOM      1  N   UNL     1       2.490   5.545  19.161  0.00  0.00    +0.000 N 
ATOM      2  C   UNL     1       2.801   4.233  18.795  0.00  0.00    +0.000 A 
ATOM      3  C   UNL     1       2.737   3.244  19.717  0.00  0.00    +0.000 A 
ATOM      4  C   UNL     1       2.880   1.761  19.531  0.00  0.00    +0.000 C 
ATOM      5  C   UNL     1       2.420   3.618  21.123  0.00  0.00    +0.000 A 
ATOM      6  O   UNL     1       2.282   2.774  22.000  0.00  0.00    +0.000 OA
ATOM      7  N   UNL     1       2.246   4.935  21.387  0.00  0.00    +0.000 N 
ATOM      8  C   UNL     1       2.024   5.876  20.423  0.00  0.00    +0.000 A 
ATOM      9  O   UNL     1       1.431   6.903  20.747  0.00  0.00    +0.000 OA
ATOM     10  H   UNL     1       1.893   5.164  22.303  0.00  0.00    +0.000 HD
ENDROOT
BRANCH   1  11
ATOM     11  O   UNL     1       2.219   6.473  18.108  0.00  0.00    +0.000 OA
BRANCH  11  12
ATOM     12  C   UNL     1       3.313   7.391  17.932  0.00  0.00    +0.000 C 
BRANCH  12  14
ATOM     13  C   UNL     1       1.266   8.854  17.892  0.00  0.00    +0.000 C 
ATOM     14  C   UNL     1       2.783   8.814  17.752  0.00  0.00    +0.000 C 
ENDBRANCH  12  14
ENDBRANCH  11  12
ENDBRANCH   1  11
BRANCH   2  15
ATOM     15  S   UNL     1       3.045   3.868  17.105  0.00  0.00    +0.000 S 
BRANCH  15  16
ATOM     16  C   UNL     1       4.769   4.200  16.765  0.00  0.00    +0.000 A 
ATOM     17  C   UNL     1       5.765   4.439  17.717  0.00  0.00    +0.000 A 
ATOM     18  C   UNL     1       7.082   4.715  17.320  0.00  0.00    +0.000 A 
ATOM     19  C   UNL     1       7.424   4.746  15.971  0.00  0.00    +0.000 A 
ATOM     20  C   UNL     1       6.455   4.474  15.011  0.00  0.00    +0.000 A 
ATOM     21  C   UNL     1       5.142   4.196  15.409  0.00  0.00    +0.000 A 
ENDBRANCH  15  16
ENDBRANCH   2  15
TORSDOF 5
ENDMDL
MODEL 9
REMARK VINA RESULT:      -6.6      1.339      3.703
REMARK  Name = 
REMARK  7 active torsions:
REMARK  status: ('A' for Active; 'I' for Inactive)
REMARK    1  A    between atoms: C_1  and  C_2
REMARK    2  A    between atoms: C_2  and  C_3
REMARK    3  A    between atoms: C_3  and  O_4
REMARK    4  A    between atoms: O_4  and  N_5
REMARK    5  A    between atoms: C_6  and  S_7
REMARK    6  A    between atoms: S_7  and  C_8
REMARK    7  A    between atoms: C_14  and  C_15
REMARK                            x       y       z     vdW  Elec       q    Type
REMARK                         _______ _______ _______ _____ _____    ______ ____
ROOT
ATOM      1  N   UNL     1       2.989   5.698  19.405  0.00  0.00    +0.000 N 
ATOM      2  C   UNL     1       3.365   4.578  18.659  0.00  0.00    +0.000 A 
ATOM      3  C   UNL     1       2.865   3.360  18.974  0.00  0.00    +0.000 A 
ATOM      4  C   UNL     1       3.005   2.057  18.240  0.00  0.00    +0.000 C 
ATOM      5  C   UNL     1       1.991   3.252  20.175  0.00  0.00    +0.000 A 
ATOM      6  O   UNL     1       1.449   2.198  20.486  0.00  0.00    +0.000 OA
ATOM      7  N   UNL     1       1.781   4.383  20.889  0.00  0.00    +0.000 N 
ATOM      8  C   UNL     1       2.041   5.636  20.413  0.00  0.00    +0.000 A 
ATOM      9  O   UNL     1       1.415   6.577  20.898  0.00  0.00    +0.000 OA
ATOM     10  H   UNL     1       1.079   4.332  21.610  0.00  0.00    +0.000 HD
ENDROOT
BRANCH   1  11
ATOM     11  O   UNL     1       3.242   6.982  18.831  0.00  0.00    +0.000 OA
BRANCH  11  12
ATOM     12  C   UNL     1       2.133   7.419  18.027  0.00  0.00    +0.000 C 
BRANCH  12  14
ATOM     13  C   UNL     1       0.849   9.583  18.068  0.00  0.00    +0.000 C 
ATOM     14  C   UNL     1       2.202   8.931  17.810  0.00  0.00    +0.000 C 
ENDBRANCH  12  14
ENDBRANCH  11  12
ENDBRANCH   1  11
BRANCH   2  15
ATOM     15  S   UNL     1       4.296   4.814  17.200  0.00  0.00    +0.000 S 
BRANCH  15  16
ATOM     16  C   UNL     1       5.769   5.706  17.686  0.00  0.00    +0.000 A 
ATOM     17  C   UNL     1       6.251   6.880  17.100  0.00  0.00    +0.000 A 
ATOM     18  C   UNL     1       7.438   7.471  17.555  0.00  0.00    +0.000 A 
ATOM     19  C   UNL     1       8.155   6.904  18.606  0.00  0.00    +0.000 A 
ATOM     20  C   UNL     1       7.671   5.757  19.225  0.00  0.00    +0.000 A 
ATOM     21  C   UNL     1       6.485   5.170  18.772  0.00  0.00    +0.000 A 
ENDBRANCH  15  16
ENDBRANCH   2  15
TORSDOF 5
ENDMDL
