MODEL 1
REMARK VINA RESULT:      -6.4      0.000      0.000
REMARK  Name = 
REMARK  15 active torsions:
REMARK  status: ('A' for Active; 'I' for Inactive)
REMARK    1  A    between atoms: C_1  and  C_2
REMARK    2  A    between atoms: C_2  and  C_3
REMARK    3  A    between atoms: C_3  and  C_4
REMARK    4  A    between atoms: C_4  and  C_5
REMARK    5  A    between atoms: C_5  and  C_6
REMARK    6  A    between atoms: C_6  and  C_7
REMARK    7  A    between atoms: C_7  and  C_8
REMARK    8  A    between atoms: C_8  and  N_9
REMARK    9  A    between atoms: N_13  and  C_14
REMARK   10  A    between atoms: C_14  and  C_15
REMARK   11  A    between atoms: C_15  and  C_16
REMARK   12  A    between atoms: C_16  and  C_17
REMARK   13  A    between atoms: C_17  and  C_18
REMARK   14  A    between atoms: C_18  and  C_19
REMARK   15  A    between atoms: C_19  and  C_20
REMARK                            x       y       z     vdW  Elec       q    Type
REMARK                         _______ _______ _______ _____ _____    ______ ____
ROOT
ATOM      1  N   UNL     1       6.217   4.904  16.537  0.00  0.00    +0.000 NA
ATOM      2  C   UNL     1       5.321   5.313  17.371  0.00  0.00    +0.000 A 
ATOM      3  C   UNL     1       5.476   4.950  18.807  0.00  0.00    +0.000 A 
ATOM      4  C   UNL     1       4.481   5.240  19.650  0.00  0.00    +0.000 A 
ATOM      5  N   UNL     1       3.307   5.893  19.290  0.00  0.00    +0.000 N 
ATOM      6  C   UNL     1       3.204   6.357  17.987  0.00  0.00    +0.000 A 
ATOM      7  C   UNL     1       4.111   6.122  17.029  0.00  0.00    +0.000 A 
ENDROOT
BRANCH   1   8
ATOM      8  C   UNL     1       5.983   5.227  15.133  0.00  0.00    +0.000 C 
BRANCH   8   9
ATOM      9  C   UNL     1       5.375   4.025  14.439  0.00  0.00    +0.000 C 
BRANCH   9  10
ATOM     10  C   UNL     1       6.388   3.433  13.466  0.00  0.00    +0.000 C 
BRANCH  10  11
ATOM     11  C   UNL     1       5.996   3.758  12.034  0.00  0.00    +0.000 C 
BRANCH  11  12
ATOM     12  C   UNL     1       4.852   2.864  11.568  0.00  0.00    +0.000 C 
BRANCH  12  13
ATOM     13  C   UNL     1       3.641   3.712  11.197  0.00  0.00    +0.000 C 
BRANCH  13  15
ATOM     14  C   UNL     1       2.492   4.666   9.187  0.00  0.00    +0.000 C 
ATOM     15  C   UNL     1       3.210   3.456   9.757  0.00  0.00    +0.000 C 
ENDBRANCH  13  15
ENDBRANCH  12  13
ENDBRANCH  11  12
ENDBRANCH  10  11
ENDBRANCH   9  10
ENDBRANCH   8   9
ENDBRANCH   1   8
BRANCH   5  16
ATOM     16  C   UNL     1       2.203   6.022  20.252  0.00  0.00    +0.000 C 
BRANCH  16  17
ATOM     17  C   UNL     1       1.976   4.742  21.056  0.00  0.00    +0.000 C 
BRANCH  17  18
ATOM     18  C   UNL     1       0.905   3.831  20.462  0.00  0.00    +0.000 C 
BRANCH  18  19
ATOM     19  C   UNL     1       1.575   2.631  19.801  0.00  0.00    +0.000 C 
BRANCH  19  20
ATOM     20  C   UNL     1       1.333   2.631  18.298  0.00  0.00    +0.000 C 
BRANCH  20  21
ATOM     21  C   UNL     1       2.652   2.613  17.534  0.00  0.00    +0.000 C 
ATOM     22  C   UNL     1       3.683   1.784  18.277  0.00  0.00    +0.000 C 
ENDBRANCH  20  21
ENDBRANCH  19  20
ENDBRANCH  18  19
ENDBRANCH  17  18
ENDBRANCH  16  17
ENDBRANCH   5  16
TORSDOF 13
ENDMDL
MODEL 2
REMARK VINA RESULT:      -6.0      5.415      7.673
REMARK  Name = 
REMARK  15 active torsions:
REMARK  status: ('A' for Active; 'I' for Inactive)
REMARK    1  A    between atoms: C_1  and  C_2
REMARK    2  A    between atoms: C_2  and  C_3
REMARK    3  A    between atoms: C_3  and  C_4
REMARK    4  A    between atoms: C_4  and  C_5
REMARK    5  A    between atoms: C_5  and  C_6
REMARK    6  A    between atoms: C_6  and  C_7
REMARK    7  A    between atoms: C_7  and  C_8
REMARK    8  A    between atoms: C_8  and  N_9
REMARK    9  A    between atoms: N_13  and  C_14
REMARK   10  A    between atoms: C_14  and  C_15
REMARK   11  A    between atoms: C_15  and  C_16
REMARK   12  A    between atoms: C_16  and  C_17
REMARK   13  A    between atoms: C_17  and  C_18
REMARK   14  A    between atoms: C_18  and  C_19
REMARK   15  A    between atoms: C_19  and  C_20
REMARK                            x       y       z     vdW  Elec       q    Type
REMARK                         _______ _______ _______ _____ _____    ______ ____
ROOT
ATOM      1  N   UNL     1       8.387   7.718  18.417  0.00  0.00    +0.000 NA
ATOM      2  C   UNL     1       7.420   6.917  18.121  0.00  0.00    +0.000 A 
ATOM      3  C   UNL     1       7.525   5.495  18.552  0.00  0.00    +0.000 A 
ATOM      4  C   UNL     1       6.604   4.628  18.122  0.00  0.00    +0.000 A 
ATOM      5  N   UNL     1       5.521   4.962  17.317  0.00  0.00    +0.000 N 
ATOM      6  C   UNL     1       5.333   6.303  17.016  0.00  0.00    +0.000 A 
ATOM      7  C   UNL     1       6.185   7.279  17.361  0.00  0.00    +0.000 A 
ENDROOT
BRANCH   1   8
ATOM      8  C   UNL     1       8.269   9.082  17.913  0.00  0.00    +0.000 C 
BRANCH   8   9
ATOM      9  C   UNL     1       8.972  10.029  18.864  0.00  0.00    +0.000 C 
BRANCH   9  10
ATOM     10  C   UNL     1       9.692  11.110  18.065  0.00  0.00    +0.000 C 
BRANCH  10  11
ATOM     11  C   UNL     1      10.983  11.508  18.760  0.00  0.00    +0.000 C 
BRANCH  11  12
ATOM     12  C   UNL     1      11.844  12.377  17.850  0.00  0.00    +0.000 C 
BRANCH  12  13
ATOM     13  C   UNL     1      10.960  13.243  16.961  0.00  0.00    +0.000 C 
BRANCH  13  15
ATOM     14  C   UNL     1       9.520  14.939  18.111  0.00  0.00    +0.000 C 
ATOM     15  C   UNL     1      10.879  14.671  17.489  0.00  0.00    +0.000 C 
ENDBRANCH  13  15
ENDBRANCH  12  13
ENDBRANCH  11  12
ENDBRANCH  10  11
ENDBRANCH   9  10
ENDBRANCH   8   9
ENDBRANCH   1   8
BRANCH   5  16
ATOM     16  C   UNL     1       4.654   3.912  16.763  0.00  0.00    +0.000 C 
BRANCH  16  17
ATOM     17  C   UNL     1       3.917   3.130  17.850  0.00  0.00    +0.000 C 
BRANCH  17  18
ATOM     18  C   UNL     1       2.512   2.694  17.442  0.00  0.00    +0.000 C 
BRANCH  18  19
ATOM     19  C   UNL     1       1.488   3.609  18.106  0.00  0.00    +0.000 C 
BRANCH  19  20
ATOM     20  C   UNL     1       0.828   2.919  19.290  0.00  0.00    +0.000 C 
BRANCH  20  21
ATOM     21  C   UNL     1       1.106   3.675  20.585  0.00  0.00    +0.000 C 
ATOM     22  C   UNL     1       1.794   2.769  21.589  0.00  0.00    +0.000 C 
ENDBRANCH  20  21
ENDBRANCH  19  20
ENDBRANCH  18  19
ENDBRANCH  17  18
ENDBRANCH  16  17
ENDBRANCH   5  16
TORSDOF 13
ENDMDL
MODEL 3
REMARK VINA RESULT:      -6.0      1.289      1.975
REMARK  Name = 
REMARK  15 active torsions:
REMARK  status: ('A' for Active; 'I' for Inactive)
REMARK    1  A    between atoms: C_1  and  C_2
REMARK    2  A    between atoms: C_2  and  C_3
REMARK    3  A    between atoms: C_3  and  C_4
REMARK    4  A    between atoms: C_4  and  C_5
REMARK    5  A    between atoms: C_5  and  C_6
REMARK    6  A    between atoms: C_6  and  C_7
REMARK    7  A    between atoms: C_7  and  C_8
REMARK    8  A    between atoms: C_8  and  N_9
REMARK    9  A    between atoms: N_13  and  C_14
REMARK   10  A    between atoms: C_14  and  C_15
REMARK   11  A    between atoms: C_15  and  C_16
REMARK   12  A    between atoms: C_16  and  C_17
REMARK   13  A    between atoms: C_17  and  C_18
REMARK   14  A    between atoms: C_18  and  C_19
REMARK   15  A    between atoms: C_19  and  C_20
REMARK                            x       y       z     vdW  Elec       q    Type
REMARK                         _______ _______ _______ _____ _____    ______ ____
ROOT
ATOM      1  N   UNL     1       7.134   4.791  15.107  0.00  0.00    +0.000 NA
ATOM      2  C   UNL     1       6.354   5.068  16.097  0.00  0.00    +0.000 A 
ATOM      3  C   UNL     1       6.949   5.700  17.308  0.00  0.00    +0.000 A 
ATOM      4  C   UNL     1       6.182   5.852  18.391  0.00  0.00    +0.000 A 
ATOM      5  N   UNL     1       4.841   5.489  18.466  0.00  0.00    +0.000 N 
ATOM      6  C   UNL     1       4.237   5.022  17.307  0.00  0.00    +0.000 A 
ATOM      7  C   UNL     1       4.885   4.800  16.156  0.00  0.00    +0.000 A 
ENDROOT
BRANCH   1   8
ATOM      8  C   UNL     1       6.517   4.111  13.974  0.00  0.00    +0.000 C 
BRANCH   8   9
ATOM      9  C   UNL     1       7.323   4.393  12.723  0.00  0.00    +0.000 C 
BRANCH   9  10
ATOM     10  C   UNL     1       6.723   3.629  11.548  0.00  0.00    +0.000 C 
BRANCH  10  11
ATOM     11  C   UNL     1       5.496   2.852  11.995  0.00  0.00    +0.000 C 
BRANCH  11  12
ATOM     12  C   UNL     1       4.547   2.615  10.827  0.00  0.00    +0.000 C 
BRANCH  12  13
ATOM     13  C   UNL     1       3.559   3.770  10.710  0.00  0.00    +0.000 C 
BRANCH  13  15
ATOM     14  C   UNL     1       2.051   5.048   9.173  0.00  0.00    +0.000 C 
ATOM     15  C   UNL     1       3.128   3.981   9.264  0.00  0.00    +0.000 C 
ENDBRANCH  13  15
ENDBRANCH  12  13
ENDBRANCH  11  12
ENDBRANCH  10  11
ENDBRANCH   9  10
ENDBRANCH   8   9
ENDBRANCH   1   8
BRANCH   5  16
ATOM     16  C   UNL     1       4.126   5.545  19.748  0.00  0.00    +0.000 C 
BRANCH  16  17
ATOM     17  C   UNL     1       2.688   6.041  19.594  0.00  0.00    +0.000 C 
BRANCH  17  18
ATOM     18  C   UNL     1       1.719   5.424  20.599  0.00  0.00    +0.000 C 
BRANCH  18  19
ATOM     19  C   UNL     1       2.424   4.302  21.354  0.00  0.00    +0.000 C 
BRANCH  19  20
ATOM     20  C   UNL     1       1.924   2.939  20.895  0.00  0.00    +0.000 C 
BRANCH  20  21
ATOM     21  C   UNL     1       0.657   3.077  20.060  0.00  0.00    +0.000 C 
ATOM     22  C   UNL     1       0.805   2.331  18.747  0.00  0.00    +0.000 C 
ENDBRANCH  20  21
ENDBRANCH  19  20
ENDBRANCH  18  19
ENDBRANCH  17  18
ENDBRANCH  16  17
ENDBRANCH   5  16
TORSDOF 13
ENDMDL
MODEL 4
REMARK VINA RESULT:      -5.9      1.577      6.678
REMARK  Name = 
REMARK  15 active torsions:
REMARK  status: ('A' for Active; 'I' for Inactive)
REMARK    1  A    between atoms: C_1  and  C_2
REMARK    2  A    between atoms: C_2  and  C_3
REMARK    3  A    between atoms: C_3  and  C_4
REMARK    4  A    between atoms: C_4  and  C_5
REMARK    5  A    between atoms: C_5  and  C_6
REMARK    6  A    between atoms: C_6  and  C_7
REMARK    7  A    between atoms: C_7  and  C_8
REMARK    8  A    between atoms: C_8  and  N_9
REMARK    9  A    between atoms: N_13  and  C_14
REMARK   10  A    between atoms: C_14  and  C_15
REMARK   11  A    between atoms: C_15  and  C_16
REMARK   12  A    between atoms: C_16  and  C_17
REMARK   13  A    between atoms: C_17  and  C_18
REMARK   14  A    between atoms: C_18  and  C_19
REMARK   15  A    between atoms: C_19  and  C_20
REMARK                            x       y       z     vdW  Elec       q    Type
REMARK                         _______ _______ _______ _____ _____    ______ ____
ROOT
ATOM      1  N   UNL     1       2.104   5.872  19.597  0.00  0.00    +0.000 NA
ATOM      2  C   UNL     1       3.270   6.008  19.059  0.00  0.00    +0.000 A 
ATOM      3  C   UNL     1       3.372   6.760  17.777  0.00  0.00    +0.000 A 
ATOM      4  C   UNL     1       4.545   6.777  17.139  0.00  0.00    +0.000 A 
ATOM      5  N   UNL     1       5.704   6.163  17.601  0.00  0.00    +0.000 N 
ATOM      6  C   UNL     1       5.661   5.573  18.856  0.00  0.00    +0.000 A 
ATOM      7  C   UNL     1       4.552   5.462  19.599  0.00  0.00    +0.000 A 
ENDROOT
BRANCH   1   8
ATOM      8  C   UNL     1       2.048   5.070  20.813  0.00  0.00    +0.000 C 
BRANCH   8   9
ATOM      9  C   UNL     1       1.137   3.881  20.585  0.00  0.00    +0.000 C 
BRANCH   9  10
ATOM     10  C   UNL     1       0.891   3.708  19.090  0.00  0.00    +0.000 C 
BRANCH  10  11
ATOM     11  C   UNL     1       1.195   2.280  18.667  0.00  0.00    +0.000 C 
BRANCH  11  12
ATOM     12  C   UNL     1       2.451   2.225  17.805  0.00  0.00    +0.000 C 
BRANCH  12  13
ATOM     13  C   UNL     1       3.504   1.343  18.468  0.00  0.00    +0.000 C 
BRANCH  13  15
ATOM     14  C   UNL     1       4.322   1.954  20.754  0.00  0.00    +0.000 C 
ATOM     15  C   UNL     1       4.500   2.179  19.263  0.00  0.00    +0.000 C 
ENDBRANCH  13  15
ENDBRANCH  12  13
ENDBRANCH  11  12
ENDBRANCH  10  11
ENDBRANCH   9  10
ENDBRANCH   8   9
ENDBRANCH   1   8
BRANCH   5  16
ATOM     16  C   UNL     1       6.902   6.099  16.752  0.00  0.00    +0.000 C 
BRANCH  16  17
ATOM     17  C   UNL     1       7.329   4.662  16.451  0.00  0.00    +0.000 C 
BRANCH  17  18
ATOM     18  C   UNL     1       6.304   3.880  15.633  0.00  0.00    +0.000 C 
BRANCH  18  19
ATOM     19  C   UNL     1       6.321   4.383  14.193  0.00  0.00    +0.000 C 
BRANCH  19  20
ATOM     20  C   UNL     1       5.151   3.812  13.404  0.00  0.00    +0.000 C 
BRANCH  20  21
ATOM     21  C   UNL     1       5.629   3.189  12.097  0.00  0.00    +0.000 C 
ATOM     22  C   UNL     1       7.042   3.641  11.781  0.00  0.00    +0.000 C 
ENDBRANCH  20  21
ENDBRANCH  19  20
ENDBRANCH  18  19
ENDBRANCH  17  18
ENDBRANCH  16  17
ENDBRANCH   5  16
TORSDOF 13
ENDMDL
MODEL 5
REMARK VINA RESULT:      -5.9      1.315      2.469
REMARK  Name = 
REMARK  15 active torsions:
REMARK  status: ('A' for Active; 'I' for Inactive)
REMARK    1  A    between atoms: C_1  and  C_2
REMARK    2  A    between atoms: C_2  and  C_3
REMARK    3  A    between atoms: C_3  and  C_4
REMARK    4  A    between atoms: C_4  and  C_5
REMARK    5  A    between atoms: C_5  and  C_6
REMARK    6  A    between atoms: C_6  and  C_7
REMARK    7  A    between atoms: C_7  and  C_8
REMARK    8  A    between atoms: C_8  and  N_9
REMARK    9  A    between atoms: N_13  and  C_14
REMARK   10  A    between atoms: C_14  and  C_15
REMARK   11  A    between atoms: C_15  and  C_16
REMARK   12  A    between atoms: C_16  and  C_17
REMARK   13  A    between atoms: C_17  and  C_18
REMARK   14  A    between atoms: C_18  and  C_19
REMARK   15  A    between atoms: C_19  and  C_20
REMARK                            x       y       z     vdW  Elec       q    Type
REMARK                         _______ _______ _______ _____ _____    ______ ____
ROOT
ATOM      1  N   UNL     1       6.135   5.680  16.044  0.00  0.00    +0.000 NA
ATOM      2  C   UNL     1       5.555   4.978  16.959  0.00  0.00    +0.000 A 
ATOM      3  C   UNL     1       5.876   5.272  18.383  0.00  0.00    +0.000 A 
ATOM      4  C   UNL     1       5.399   4.456  19.326  0.00  0.00    +0.000 A 
ATOM      5  N   UNL     1       4.587   3.353  19.080  0.00  0.00    +0.000 N 
ATOM      6  C   UNL     1       4.170   3.143  17.773  0.00  0.00    +0.000 A 
ATOM      7  C   UNL     1       4.583   3.867  16.724  0.00  0.00    +0.000 A 
ENDROOT
BRANCH   1   8
ATOM      8  C   UNL     1       5.840   5.308  14.665  0.00  0.00    +0.000 C 
BRANCH   8   9
ATOM      9  C   UNL     1       7.111   4.823  13.996  0.00  0.00    +0.000 C 
BRANCH   9  10
ATOM     10  C   UNL     1       6.756   4.048  12.732  0.00  0.00    +0.000 C 
BRANCH  10  11
ATOM     11  C   UNL     1       5.306   3.594  12.780  0.00  0.00    +0.000 C 
BRANCH  11  12
ATOM     12  C   UNL     1       4.858   3.065  11.424  0.00  0.00    +0.000 C 
BRANCH  12  13
ATOM     13  C   UNL     1       3.381   3.370  11.203  0.00  0.00    +0.000 C 
BRANCH  13  15
ATOM     14  C   UNL     1       2.472   4.703   9.288  0.00  0.00    +0.000 C 
ATOM     15  C   UNL     1       3.031   3.359   9.719  0.00  0.00    +0.000 C 
ENDBRANCH  13  15
ENDBRANCH  12  13
ENDBRANCH  11  12
ENDBRANCH  10  11
ENDBRANCH   9  10
ENDBRANCH   8   9
ENDBRANCH   1   8
BRANCH   5  16
ATOM     16  C   UNL     1       4.246   2.423  20.165  0.00  0.00    +0.000 C 
BRANCH  16  17
ATOM     17  C   UNL     1       2.816   2.613  20.670  0.00  0.00    +0.000 C 
BRANCH  17  18
ATOM     18  C   UNL     1       2.438   4.075  20.893  0.00  0.00    +0.000 C 
BRANCH  18  19
ATOM     19  C   UNL     1       1.310   4.454  19.939  0.00  0.00    +0.000 C 
BRANCH  19  20
ATOM     20  C   UNL     1       1.770   5.510  18.944  0.00  0.00    +0.000 C 
BRANCH  20  21
ATOM     21  C   UNL     1       2.620   6.572  19.630  0.00  0.00    +0.000 C 
ATOM     22  C   UNL     1       1.739   7.665  20.206  0.00  0.00    +0.000 C 
ENDBRANCH  20  21
ENDBRANCH  19  20
ENDBRANCH  18  19
ENDBRANCH  17  18
ENDBRANCH  16  17
ENDBRANCH   5  16
TORSDOF 13
ENDMDL
MODEL 6
REMARK VINA RESULT:      -5.8      1.514      6.714
REMARK  Name = 
REMARK  15 active torsions:
REMARK  status: ('A' for Active; 'I' for Inactive)
REMARK    1  A    between atoms: C_1  and  C_2
REMARK    2  A    between atoms: C_2  and  C_3
REMARK    3  A    between atoms: C_3  and  C_4
REMARK    4  A    between atoms: C_4  and  C_5
REMARK    5  A    between atoms: C_5  and  C_6
REMARK    6  A    between atoms: C_6  and  C_7
REMARK    7  A    between atoms: C_7  and  C_8
REMARK    8  A    between atoms: C_8  and  N_9
REMARK    9  A    between atoms: N_13  and  C_14
REMARK   10  A    between atoms: C_14  and  C_15
REMARK   11  A    between atoms: C_15  and  C_16
REMARK   12  A    between atoms: C_16  and  C_17
REMARK   13  A    between atoms: C_17  and  C_18
REMARK   14  A    between atoms: C_18  and  C_19
REMARK   15  A    between atoms: C_19  and  C_20
REMARK                            x       y       z     vdW  Elec       q    Type
REMARK                         _______ _______ _______ _____ _____    ______ ____
ROOT
ATOM      1  N   UNL     1       3.072   6.086  19.123  0.00  0.00    +0.000 NA
ATOM      2  C   UNL     1       4.192   5.917  18.505  0.00  0.00    +0.000 A 
ATOM      3  C   UNL     1       4.388   6.607  17.200  0.00  0.00    +0.000 A 
ATOM      4  C   UNL     1       5.479   6.320  16.483  0.00  0.00    +0.000 A 
ATOM      5  N   UNL     1       6.476   5.437  16.883  0.00  0.00    +0.000 N 
ATOM      6  C   UNL     1       6.376   4.888  18.153  0.00  0.00    +0.000 A 
ATOM      7  C   UNL     1       5.331   5.069  18.972  0.00  0.00    +0.000 A 
ENDROOT
BRANCH   1   8
ATOM      8  C   UNL     1       2.903   5.335  20.362  0.00  0.00    +0.000 C 
BRANCH   8   9
ATOM      9  C   UNL     1       1.436   5.327  20.744  0.00  0.00    +0.000 C 
BRANCH   9  10
ATOM     10  C   UNL     1       0.820   3.984  20.368  0.00  0.00    +0.000 C 
BRANCH  10  11
ATOM     11  C   UNL     1       1.886   2.901  20.348  0.00  0.00    +0.000 C 
BRANCH  11  12
ATOM     12  C   UNL     1       1.800   2.077  19.069  0.00  0.00    +0.000 C 
BRANCH  12  13
ATOM     13  C   UNL     1       3.192   1.635  18.633  0.00  0.00    +0.000 C 
BRANCH  13  15
ATOM     14  C   UNL     1       2.561   3.297  16.870  0.00  0.00    +0.000 C 
ATOM     15  C   UNL     1       3.687   2.460  17.451  0.00  0.00    +0.000 C 
ENDBRANCH  13  15
ENDBRANCH  12  13
ENDBRANCH  11  12
ENDBRANCH  10  11
ENDBRANCH   9  10
ENDBRANCH   8   9
ENDBRANCH   1   8
BRANCH   5  16
ATOM     16  C   UNL     1       7.555   5.064  15.957  0.00  0.00    +0.000 C 
BRANCH  16  17
ATOM     17  C   UNL     1       7.056   4.878  14.524  0.00  0.00    +0.000 C 
BRANCH  17  18
ATOM     18  C   UNL     1       6.211   3.622  14.330  0.00  0.00    +0.000 C 
BRANCH  18  19
ATOM     19  C   UNL     1       5.199   3.863  13.214  0.00  0.00    +0.000 C 
BRANCH  19  20
ATOM     20  C   UNL     1       5.785   3.496  11.858  0.00  0.00    +0.000 C 
BRANCH  20  21
ATOM     21  C   UNL     1       5.705   1.993  11.619  0.00  0.00    +0.000 C 
ATOM     22  C   UNL     1       7.008   1.480  11.035  0.00  0.00    +0.000 C 
ENDBRANCH  20  21
ENDBRANCH  19  20
ENDBRANCH  18  19
ENDBRANCH  17  18
ENDBRANCH  16  17
ENDBRANCH   5  16
TORSDOF 13
ENDMDL
MODEL 7
REMARK VINA RESULT:      -5.7      3.705      7.980
REMARK  Name = 
REMARK  15 active torsions:
REMARK  status: ('A' for Active; 'I' for Inactive)
REMARK    1  A    between atoms: C_1  and  C_2
REMARK    2  A    between atoms: C_2  and  C_3
REMARK    3  A    between atoms: C_3  and  C_4
REMARK    4  A    between atoms: C_4  and  C_5
REMARK    5  A    between atoms: C_5  and  C_6
REMARK    6  A    between atoms: C_6  and  C_7
REMARK    7  A    between atoms: C_7  and  C_8
REMARK    8  A    between atoms: C_8  and  N_9
REMARK    9  A    between atoms: N_13  and  C_14
REMARK   10  A    between atoms: C_14  and  C_15
REMARK   11  A    between atoms: C_15  and  C_16
REMARK   12  A    between atoms: C_16  and  C_17
REMARK   13  A    between atoms: C_17  and  C_18
REMARK   14  A    between atoms: C_18  and  C_19
REMARK   15  A    between atoms: C_19  and  C_20
REMARK                            x       y       z     vdW  Elec       q    Type
REMARK                         _______ _______ _______ _____ _____    ______ ____
ROOT
ATOM      1  N   UNL     1       3.929   2.925  18.495  0.00  0.00    +0.000 NA
ATOM      2  C   UNL     1       4.724   3.922  18.299  0.00  0.00    +0.000 A 
ATOM      3  C   UNL     1       5.107   4.255  16.899  0.00  0.00    +0.000 A 
ATOM      4  C   UNL     1       6.043   5.186  16.697  0.00  0.00    +0.000 A 
ATOM      5  N   UNL     1       6.675   5.902  17.708  0.00  0.00    +0.000 N 
ATOM      6  C   UNL     1       6.236   5.699  19.009  0.00  0.00    +0.000 A 
ATOM      7  C   UNL     1       5.322   4.786  19.362  0.00  0.00    +0.000 A 
ENDROOT
BRANCH   1   8
ATOM      8  C   UNL     1       3.640   2.596  19.886  0.00  0.00    +0.000 C 
BRANCH   8   9
ATOM      9  C   UNL     1       2.149   2.383  20.050  0.00  0.00    +0.000 C 
BRANCH   9  10
ATOM     10  C   UNL     1       1.654   3.161  21.264  0.00  0.00    +0.000 C 
BRANCH  10  11
ATOM     11  C   UNL     1       2.213   4.574  21.249  0.00  0.00    +0.000 C 
BRANCH  11  12
ATOM     12  C   UNL     1       1.448   5.450  20.264  0.00  0.00    +0.000 C 
BRANCH  12  13
ATOM     13  C   UNL     1       2.295   6.652  19.862  0.00  0.00    +0.000 C 
BRANCH  13  15
ATOM     14  C   UNL     1       2.652   8.193  17.921  0.00  0.00    +0.000 C 
ATOM     15  C   UNL     1       2.424   6.754  18.347  0.00  0.00    +0.000 C 
ENDBRANCH  13  15
ENDBRANCH  12  13
ENDBRANCH  11  12
ENDBRANCH  10  11
ENDBRANCH   9  10
ENDBRANCH   8   9
ENDBRANCH   1   8
BRANCH   5  16
ATOM     16  C   UNL     1       7.806   6.788  17.397  0.00  0.00    +0.000 C 
BRANCH  16  17
ATOM     17  C   UNL     1       7.484   8.259  17.657  0.00  0.00    +0.000 C 
BRANCH  17  18
ATOM     18  C   UNL     1       8.537   8.975  18.500  0.00  0.00    +0.000 C 
BRANCH  18  19
ATOM     19  C   UNL     1       8.957  10.260  17.795  0.00  0.00    +0.000 C 
BRANCH  19  20
ATOM     20  C   UNL     1       9.099  11.405  18.788  0.00  0.00    +0.000 C 
BRANCH  20  21
ATOM     21  C   UNL     1       9.694  10.914  20.103  0.00  0.00    +0.000 C 
ATOM     22  C   UNL     1      10.618  11.963  20.691  0.00  0.00    +0.000 C 
ENDBRANCH  20  21
ENDBRANCH  19  20
ENDBRANCH  18  19
ENDBRANCH  17  18
ENDBRANCH  16  17
ENDBRANCH   5  16
TORSDOF 13
ENDMDL
MODEL 8
REMARK VINA RESULT:      -5.7      4.733      7.555
REMARK  Name = 
REMARK  15 active torsions:
REMARK  status: ('A' for Active; 'I' for Inactive)
REMARK    1  A    between atoms: C_1  and  C_2
REMARK    2  A    between atoms: C_2  and  C_3
REMARK    3  A    between atoms: C_3  and  C_4
REMARK    4  A    between atoms: C_4  and  C_5
REMARK    5  A    between atoms: C_5  and  C_6
REMARK    6  A    between atoms: C_6  and  C_7
REMARK    7  A    between atoms: C_7  and  C_8
REMARK    8  A    between atoms: C_8  and  N_9
REMARK    9  A    between atoms: N_13  and  C_14
REMARK   10  A    between atoms: C_14  and  C_15
REMARK   11  A    between atoms: C_15  and  C_16
REMARK   12  A    between atoms: C_16  and  C_17
REMARK   13  A    between atoms: C_17  and  C_18
REMARK   14  A    between atoms: C_18  and  C_19
REMARK   15  A    between atoms: C_19  and  C_20
REMARK                            x       y       z     vdW  Elec       q    Type
REMARK                         _______ _______ _______ _____ _____    ______ ____
ROOT
ATOM      1  N   UNL     1       7.756   6.832  16.773  0.00  0.00    +0.000 NA
ATOM      2  C   UNL     1       6.849   5.914  16.785  0.00  0.00    +0.000 A 
ATOM      3  C   UNL     1       6.557   5.195  15.514  0.00  0.00    +0.000 A 
ATOM      4  C   UNL     1       5.522   4.352  15.480  0.00  0.00    +0.000 A 
ATOM      5  N   UNL     1       4.701   4.066  16.567  0.00  0.00    +0.000 N 
ATOM      6  C   UNL     1       5.040   4.624  17.791  0.00  0.00    +0.000 A 
ATOM      7  C   UNL     1       6.037   5.501  17.970  0.00  0.00    +0.000 A 
ENDROOT
BRANCH   1   8
ATOM      8  C   UNL     1       7.956   7.554  18.025  0.00  0.00    +0.000 C 
BRANCH   8   9
ATOM      9  C   UNL     1       7.898   9.044  17.756  0.00  0.00    +0.000 C 
BRANCH   9  10
ATOM     10  C   UNL     1       8.861   9.767  18.692  0.00  0.00    +0.000 C 
BRANCH  10  11
ATOM     11  C   UNL     1       9.546  10.911  17.963  0.00  0.00    +0.000 C 
BRANCH  11  12
ATOM     12  C   UNL     1       9.968  12.002  18.940  0.00  0.00    +0.000 C 
BRANCH  12  13
ATOM     13  C   UNL     1      10.980  11.452  19.937  0.00  0.00    +0.000 C 
BRANCH  13  15
ATOM     14  C   UNL     1      12.297  13.155  18.659  0.00  0.00    +0.000 C 
ATOM     15  C   UNL     1      12.325  12.157  19.802  0.00  0.00    +0.000 C 
ENDBRANCH  13  15
ENDBRANCH  12  13
ENDBRANCH  11  12
ENDBRANCH  10  11
ENDBRANCH   9  10
ENDBRANCH   8   9
ENDBRANCH   1   8
BRANCH   5  16
ATOM     16  C   UNL     1       3.491   3.251  16.391  0.00  0.00    +0.000 C 
BRANCH  16  17
ATOM     17  C   UNL     1       2.444   3.520  17.472  0.00  0.00    +0.000 C 
BRANCH  17  18
ATOM     18  C   UNL     1       2.089   2.287  18.298  0.00  0.00    +0.000 C 
BRANCH  18  19
ATOM     19  C   UNL     1       0.777   2.535  19.035  0.00  0.00    +0.000 C 
BRANCH  19  20
ATOM     20  C   UNL     1       1.033   3.003  20.460  0.00  0.00    +0.000 C 
BRANCH  20  21
ATOM     21  C   UNL     1       1.112   4.524  20.528  0.00  0.00    +0.000 C 
ATOM     22  C   UNL     1       2.527   4.966  20.851  0.00  0.00    +0.000 C 
ENDBRANCH  20  21
ENDBRANCH  19  20
ENDBRANCH  18  19
ENDBRANCH  17  18
ENDBRANCH  16  17
ENDBRANCH   5  16
TORSDOF 13
ENDMDL
MODEL 9
REMARK VINA RESULT:      -5.7      4.426      7.072
REMARK  Name = 
REMARK  15 active torsions:
REMARK  status: ('A' for Active; 'I' for Inactive)
REMARK    1  A    between atoms: C_1  and  C_2
REMARK    2  A    between atoms: C_2  and  C_3
REMARK    3  A    between atoms: C_3  and  C_4
REMARK    4  A    between atoms: C_4  and  C_5
REMARK    5  A    between atoms: C_5  and  C_6
REMARK    6  A    between atoms: C_6  and  C_7
REMARK    7  A    between atoms: C_7  and  C_8
REMARK    8  A    between atoms: C_8  and  N_9
REMARK    9  A    between atoms: N_13  and  C_14
REMARK   10  A    between atoms: C_14  and  C_15
REMARK   11  A    between atoms: C_15  and  C_16
REMARK   12  A    between atoms: C_16  and  C_17
REMARK   13  A    between atoms: C_17  and  C_18
REMARK   14  A    between atoms: C_18  and  C_19
REMARK   15  A    between atoms: C_19  and  C_20
REMARK                            x       y       z     vdW  Elec       q    Type
REMARK                         _______ _______ _______ _____ _____    ______ ____
ROOT
ATOM      1  N   UNL     1       6.544   6.867  16.638  0.00  0.00    +0.000 NA
ATOM      2  C   UNL     1       6.032   5.772  17.092  0.00  0.00    +0.000 A 
ATOM      3  C   UNL     1       5.832   4.642  16.144  0.00  0.00    +0.000 A 
ATOM      4  C   UNL     1       5.168   3.563  16.567  0.00  0.00    +0.000 A 
ATOM      5  N   UNL     1       4.668   3.399  17.855  0.00  0.00    +0.000 N 
ATOM      6  C   UNL     1       4.961   4.384  18.788  0.00  0.00    +0.000 A 
ATOM      7  C   UNL     1       5.599   5.527  18.501  0.00  0.00    +0.000 A 
ENDROOT
BRANCH   1   8
ATOM      8  C   UNL     1       6.655   7.967  17.590  0.00  0.00    +0.000 C 
BRANCH   8   9
ATOM      9  C   UNL     1       8.118   8.219  17.892  0.00  0.00    +0.000 C 
BRANCH   9  10
ATOM     10  C   UNL     1       8.346   9.714  18.091  0.00  0.00    +0.000 C 
BRANCH  10  11
ATOM     11  C   UNL     1       9.462   9.948  19.096  0.00  0.00    +0.000 C 
BRANCH  11  12
ATOM     12  C   UNL     1       9.393  11.361  19.664  0.00  0.00    +0.000 C 
BRANCH  12  13
ATOM     13  C   UNL     1      10.541  12.203  19.119  0.00  0.00    +0.000 C 
BRANCH  13  15
ATOM     14  C   UNL     1      11.308  13.074  16.900  0.00  0.00    +0.000 C 
ATOM     15  C   UNL     1      10.130  12.937  17.848  0.00  0.00    +0.000 C 
ENDBRANCH  13  15
ENDBRANCH  12  13
ENDBRANCH  11  12
ENDBRANCH  10  11
ENDBRANCH   9  10
ENDBRANCH   8   9
ENDBRANCH   1   8
BRANCH   5  16
ATOM     16  C   UNL     1       3.812   2.249  18.180  0.00  0.00    +0.000 C 
BRANCH  16  17
ATOM     17  C   UNL     1       2.449   2.323  17.492  0.00  0.00    +0.000 C 
BRANCH  17  18
ATOM     18  C   UNL     1       1.295   2.595  18.452  0.00  0.00    +0.000 C 
BRANCH  18  19
ATOM     19  C   UNL     1       1.211   4.093  18.727  0.00  0.00    +0.000 C 
BRANCH  19  20
ATOM     20  C   UNL     1       1.431   4.389  20.204  0.00  0.00    +0.000 C 
BRANCH  20  21
ATOM     21  C   UNL     1       1.165   3.151  21.053  0.00  0.00    +0.000 C 
ATOM     22  C   UNL     1       2.440   2.694  21.736  0.00  0.00    +0.000 C 
ENDBRANCH  20  21
ENDBRANCH  19  20
ENDBRANCH  18  19
ENDBRANCH  17  18
ENDBRANCH  16  17
ENDBRANCH   5  16
TORSDOF 13
ENDMDL
