MODEL 1
REMARK VINA RESULT:      -8.9      0.000      0.000
REMARK  Name = 
REMARK  9 active torsions:
REMARK  status: ('A' for Active; 'I' for Inactive)
REMARK    1  A    between atoms: C_1  and  O_2
REMARK    2  A    between atoms: O_2  and  C_3
REMARK    3  A    between atoms: C_9  and  O_10
REMARK    4  A    between atoms: O_10  and  C_11
REMARK    5  A    between atoms: C_14  and  N_15
REMARK    6  A    between atoms: N_18  and  C_19
REMARK    7  A    between atoms: C_24  and  C_25
REMARK    8  A    between atoms: C_30  and  O_31
REMARK    9  A    between atoms: O_31  and  C_32
REMARK                            x       y       z     vdW  Elec       q    Type
REMARK                         _______ _______ _______ _____ _____    ______ ____
ROOT
ATOM      1  C   UNL     1       2.516   7.451  19.409  0.00  0.00    +0.000 A 
ATOM      2  C   UNL     1       2.505   7.950  18.112  0.00  0.00    +0.000 A 
ATOM      3  C   UNL     1       1.698   9.043  17.782  0.00  0.00    +0.000 A 
ATOM      4  C   UNL     1       0.875   9.645  18.737  0.00  0.00    +0.000 A 
ATOM      5  C   UNL     1       0.924   9.170  20.053  0.00  0.00    +0.000 A 
ATOM      6  C   UNL     1       1.722   8.062  20.383  0.00  0.00    +0.000 A 
ENDROOT
BRANCH   4   7
ATOM      7  N   UNL     1      -0.021  10.700  18.429  0.00  0.00    +0.000 N 
ATOM      8  C   UNL     1      -1.402  10.623  18.529  0.00  0.00    +0.000 C 
ATOM      9  O   UNL     1      -2.019   9.649  18.940  0.00  0.00    +0.000 OA
ATOM     10  N   UNL     1      -2.028  11.781  18.081  0.00  0.00    +0.000 N 
ATOM     11  H   UNL     1       0.369  11.628  18.369  0.00  0.00    +0.000 HD
ATOM     12  H   UNL     1      -1.536  12.271  17.351  0.00  0.00    +0.000 HD
BRANCH  10  13
ATOM     13  C   UNL     1      -3.447  11.867  18.064  0.00  0.00    +0.000 A 
ATOM     14  C   UNL     1      -4.141  12.287  19.210  0.00  0.00    +0.000 A 
ATOM     15  C   UNL     1      -5.535  12.308  19.239  0.00  0.00    +0.000 A 
ATOM     16  C   UNL     1      -6.253  11.919  18.115  0.00  0.00    +0.000 A 
ATOM     17  C   UNL     1      -5.575  11.526  16.959  0.00  0.00    +0.000 A 
ATOM     18  C   UNL     1      -4.169  11.495  16.916  0.00  0.00    +0.000 A 
ATOM     19  C   UNL     1      -3.495  11.005  15.667  0.00  0.00    +0.000 C 
ENDBRANCH  10  13
ENDBRANCH   4   7
BRANCH   1  20
ATOM     20  O   UNL     1       3.277   6.318  19.610  0.00  0.00    +0.000 OA
BRANCH  20  27
ATOM     21  C   UNL     1       6.085   4.790  15.663  0.00  0.00    +0.000 A 
ATOM     22  C   UNL     1       5.013   3.898  15.847  0.00  0.00    +0.000 A 
ATOM     23  C   UNL     1       4.067   4.053  16.848  0.00  0.00    +0.000 A 
ATOM     24  N   UNL     1       3.039   3.189  16.881  0.00  0.00    +0.000 NA
ATOM     25  C   UNL     1       2.108   3.340  17.844  0.00  0.00    +0.000 A 
ATOM     26  C   UNL     1       2.145   4.336  18.793  0.00  0.00    +0.000 A 
ATOM     27  C   UNL     1       3.183   5.263  18.724  0.00  0.00    +0.000 A 
ATOM     28  C   UNL     1       4.209   5.111  17.759  0.00  0.00    +0.000 A 
ATOM     29  C   UNL     1       5.344   5.949  17.644  0.00  0.00    +0.000 A 
ATOM     30  C   UNL     1       6.277   5.809  16.600  0.00  0.00    +0.000 A 
BRANCH  21  32
ATOM     31  C   UNL     1       6.452   3.895  13.492  0.00  0.00    +0.000 C 
ATOM     32  O   UNL     1       6.940   4.658  14.600  0.00  0.00    +0.000 OA
ENDBRANCH  21  32
BRANCH  30  33
ATOM     33  O   UNL     1       7.260   6.757  16.667  0.00  0.00    +0.000 OA
ATOM     34  C   UNL     1       7.710   7.247  17.920  0.00  0.00    +0.000 C 
ENDBRANCH  30  33
ENDBRANCH  20  27
ENDBRANCH   1  20
TORSDOF 6
ENDMDL
MODEL 2
REMARK VINA RESULT:      -8.8      0.329      1.265
REMARK  Name = 
REMARK  9 active torsions:
REMARK  status: ('A' for Active; 'I' for Inactive)
REMARK    1  A    between atoms: C_1  and  O_2
REMARK    2  A    between atoms: O_2  and  C_3
REMARK    3  A    between atoms: C_9  and  O_10
REMARK    4  A    between atoms: O_10  and  C_11
REMARK    5  A    between atoms: C_14  and  N_15
REMARK    6  A    between atoms: N_18  and  C_19
REMARK    7  A    between atoms: C_24  and  C_25
REMARK    8  A    between atoms: C_30  and  O_31
REMARK    9  A    between atoms: O_31  and  C_32
REMARK                            x       y       z     vdW  Elec       q    Type
REMARK                         _______ _______ _______ _____ _____    ______ ____
ROOT
ATOM      1  C   UNL     1       2.514   7.562  19.340  0.00  0.00    +0.000 A 
ATOM      2  C   UNL     1       2.468   8.086  18.054  0.00  0.00    +0.000 A 
ATOM      3  C   UNL     1       1.639   9.174  17.763  0.00  0.00    +0.000 A 
ATOM      4  C   UNL     1       0.828   9.744  18.748  0.00  0.00    +0.000 A 
ATOM      5  C   UNL     1       0.912   9.244  20.053  0.00  0.00    +0.000 A 
ATOM      6  C   UNL     1       1.733   8.142  20.343  0.00  0.00    +0.000 A 
ENDROOT
BRANCH   4   7
ATOM      7  N   UNL     1      -0.091  10.792  18.481  0.00  0.00    +0.000 N 
ATOM      8  C   UNL     1      -1.469  10.682  18.576  0.00  0.00    +0.000 C 
ATOM      9  O   UNL     1      -2.066   9.681  18.950  0.00  0.00    +0.000 OA
ATOM     10  N   UNL     1      -2.119  11.845  18.174  0.00  0.00    +0.000 N 
ATOM     11  H   UNL     1       0.281  11.730  18.456  0.00  0.00    +0.000 HD
ATOM     12  H   UNL     1      -1.637  12.373  17.464  0.00  0.00    +0.000 HD
BRANCH  10  13
ATOM     13  C   UNL     1      -3.539  11.902  18.160  0.00  0.00    +0.000 A 
ATOM     14  C   UNL     1      -4.247  11.549  17.000  0.00  0.00    +0.000 A 
ATOM     15  C   UNL     1      -5.635  11.668  16.941  0.00  0.00    +0.000 A 
ATOM     16  C   UNL     1      -6.334  12.132  18.048  0.00  0.00    +0.000 A 
ATOM     17  C   UNL     1      -5.646  12.460  19.217  0.00  0.00    +0.000 A 
ATOM     18  C   UNL     1      -4.245  12.350  19.291  0.00  0.00    +0.000 A 
ATOM     19  C   UNL     1      -3.552  12.775  20.554  0.00  0.00    +0.000 C 
ENDBRANCH  10  13
ENDBRANCH   4   7
BRANCH   1  20
ATOM     20  O   UNL     1       3.295   6.437  19.501  0.00  0.00    +0.000 OA
BRANCH  20  27
ATOM     21  C   UNL     1       6.067   4.587  15.668  0.00  0.00    +0.000 A 
ATOM     22  C   UNL     1       4.927   3.784  15.850  0.00  0.00    +0.000 A 
ATOM     23  C   UNL     1       3.974   4.039  16.823  0.00  0.00    +0.000 A 
ATOM     24  N   UNL     1       2.882   3.256  16.854  0.00  0.00    +0.000 NA
ATOM     25  C   UNL     1       1.944   3.505  17.789  0.00  0.00    +0.000 A 
ATOM     26  C   UNL     1       2.035   4.522  18.712  0.00  0.00    +0.000 A 
ATOM     27  C   UNL     1       3.142   5.366  18.643  0.00  0.00    +0.000 A 
ATOM     28  C   UNL     1       4.174   5.109  17.707  0.00  0.00    +0.000 A 
ATOM     29  C   UNL     1       5.372   5.856  17.598  0.00  0.00    +0.000 A 
ATOM     30  C   UNL     1       6.315   5.616  16.582  0.00  0.00    +0.000 A 
BRANCH  21  32
ATOM     31  C   UNL     1       6.354   3.837  13.431  0.00  0.00    +0.000 C 
ATOM     32  O   UNL     1       6.934   4.360  14.631  0.00  0.00    +0.000 OA
ENDBRANCH  21  32
BRANCH  30  33
ATOM     33  O   UNL     1       7.366   6.489  16.646  0.00  0.00    +0.000 OA
ATOM     34  C   UNL     1       7.632   7.213  17.837  0.00  0.00    +0.000 C 
ENDBRANCH  30  33
ENDBRANCH  20  27
ENDBRANCH   1  20
TORSDOF 6
ENDMDL
MODEL 3
REMARK VINA RESULT:      -8.8      2.842      3.629
REMARK  Name = 
REMARK  9 active torsions:
REMARK  status: ('A' for Active; 'I' for Inactive)
REMARK    1  A    between atoms: C_1  and  O_2
REMARK    2  A    between atoms: O_2  and  C_3
REMARK    3  A    between atoms: C_9  and  O_10
REMARK    4  A    between atoms: O_10  and  C_11
REMARK    5  A    between atoms: C_14  and  N_15
REMARK    6  A    between atoms: N_18  and  C_19
REMARK    7  A    between atoms: C_24  and  C_25
REMARK    8  A    between atoms: C_30  and  O_31
REMARK    9  A    between atoms: O_31  and  C_32
REMARK                            x       y       z     vdW  Elec       q    Type
REMARK                         _______ _______ _______ _____ _____    ______ ____
ROOT
ATOM      1  C   UNL     1       2.212   7.526  19.821  0.00  0.00    +0.000 A 
ATOM      2  C   UNL     1       1.477   7.552  21.000  0.00  0.00    +0.000 A 
ATOM      3  C   UNL     1       0.525   8.553  21.218  0.00  0.00    +0.000 A 
ATOM      4  C   UNL     1       0.305   9.555  20.269  0.00  0.00    +0.000 A 
ATOM      5  C   UNL     1       1.013   9.499  19.063  0.00  0.00    +0.000 A 
ATOM      6  C   UNL     1       1.980   8.503  18.849  0.00  0.00    +0.000 A 
ENDROOT
BRANCH   4   7
ATOM      7  N   UNL     1      -0.588  10.637  20.482  0.00  0.00    +0.000 N 
ATOM      8  C   UNL     1      -0.806  11.258  21.702  0.00  0.00    +0.000 C 
ATOM      9  O   UNL     1      -0.219  10.982  22.740  0.00  0.00    +0.000 OA
ATOM     10  N   UNL     1      -1.796  12.232  21.628  0.00  0.00    +0.000 N 
ATOM     11  H   UNL     1      -0.899  11.140  19.665  0.00  0.00    +0.000 HD
ATOM     12  H   UNL     1      -2.514  12.051  20.944  0.00  0.00    +0.000 HD
BRANCH  10  13
ATOM     13  C   UNL     1      -2.189  12.943  22.795  0.00  0.00    +0.000 A 
ATOM     14  C   UNL     1      -3.326  12.543  23.514  0.00  0.00    +0.000 A 
ATOM     15  C   UNL     1      -3.771  13.271  24.617  0.00  0.00    +0.000 A 
ATOM     16  C   UNL     1      -3.074  14.402  25.023  0.00  0.00    +0.000 A 
ATOM     17  C   UNL     1      -1.925  14.795  24.334  0.00  0.00    +0.000 A 
ATOM     18  C   UNL     1      -1.467  14.075  23.216  0.00  0.00    +0.000 A 
ATOM     19  C   UNL     1      -0.260  14.578  22.476  0.00  0.00    +0.000 C 
ENDBRANCH  10  13
ENDBRANCH   4   7
BRANCH   1  20
ATOM     20  O   UNL     1       3.185   6.551  19.742  0.00  0.00    +0.000 OA
BRANCH  20  27
ATOM     21  C   UNL     1       5.945   4.828  15.842  0.00  0.00    +0.000 A 
ATOM     22  C   UNL     1       4.814   4.010  16.012  0.00  0.00    +0.000 A 
ATOM     23  C   UNL     1       3.866   4.230  16.997  0.00  0.00    +0.000 A 
ATOM     24  N   UNL     1       2.782   3.437  17.016  0.00  0.00    +0.000 NA
ATOM     25  C   UNL     1       1.849   3.652  17.964  0.00  0.00    +0.000 A 
ATOM     26  C   UNL     1       1.937   4.647  18.912  0.00  0.00    +0.000 A 
ATOM     27  C   UNL     1       3.035   5.502  18.857  0.00  0.00    +0.000 A 
ATOM     28  C   UNL     1       4.063   5.280  17.908  0.00  0.00    +0.000 A 
ATOM     29  C   UNL     1       5.253   6.040  17.809  0.00  0.00    +0.000 A 
ATOM     30  C   UNL     1       6.191   5.835  16.780  0.00  0.00    +0.000 A 
BRANCH  21  32
ATOM     31  C   UNL     1       6.270   3.950  13.658  0.00  0.00    +0.000 C 
ATOM     32  O   UNL     1       6.806   4.636  14.793  0.00  0.00    +0.000 OA
ENDBRANCH  21  32
BRANCH  30  33
ATOM     33  O   UNL     1       7.233   6.716  16.860  0.00  0.00    +0.000 OA
ATOM     34  C   UNL     1       7.805   7.048  18.115  0.00  0.00    +0.000 C 
ENDBRANCH  30  33
ENDBRANCH  20  27
ENDBRANCH   1  20
TORSDOF 6
ENDMDL
MODEL 4
REMARK VINA RESULT:      -8.8      0.562      1.015
REMARK  Name = 
REMARK  9 active torsions:
REMARK  status: ('A' for Active; 'I' for Inactive)
REMARK    1  A    between atoms: C_1  and  O_2
REMARK    2  A    between atoms: O_2  and  C_3
REMARK    3  A    between atoms: C_9  and  O_10
REMARK    4  A    between atoms: O_10  and  C_11
REMARK    5  A    between atoms: C_14  and  N_15
REMARK    6  A    between atoms: N_18  and  C_19
REMARK    7  A    between atoms: C_24  and  C_25
REMARK    8  A    between atoms: C_30  and  O_31
REMARK    9  A    between atoms: O_31  and  C_32
REMARK                            x       y       z     vdW  Elec       q    Type
REMARK                         _______ _______ _______ _____ _____    ______ ____
ROOT
ATOM      1  C   UNL     1       2.607   7.240  19.344  0.00  0.00    +0.000 A 
ATOM      2  C   UNL     1       1.909   7.753  20.431  0.00  0.00    +0.000 A 
ATOM      3  C   UNL     1       1.011   8.811  20.258  0.00  0.00    +0.000 A 
ATOM      4  C   UNL     1       0.808   9.385  19.000  0.00  0.00    +0.000 A 
ATOM      5  C   UNL     1       1.477   8.835  17.901  0.00  0.00    +0.000 A 
ATOM      6  C   UNL     1       2.391   7.783  18.075  0.00  0.00    +0.000 A 
ENDROOT
BRANCH   4   7
ATOM      7  N   UNL     1      -0.028  10.512  18.792  0.00  0.00    +0.000 N 
ATOM      8  C   UNL     1      -1.410  10.466  18.687  0.00  0.00    +0.000 C 
ATOM      9  O   UNL     1      -2.086   9.454  18.809  0.00  0.00    +0.000 OA
ATOM     10  N   UNL     1      -1.957  11.712  18.400  0.00  0.00    +0.000 N 
ATOM     11  H   UNL     1       0.375  11.419  18.971  0.00  0.00    +0.000 HD
ATOM     12  H   UNL     1      -1.364  12.319  17.856  0.00  0.00    +0.000 HD
BRANCH  10  13
ATOM     13  C   UNL     1      -3.359  11.851  18.210  0.00  0.00    +0.000 A 
ATOM     14  C   UNL     1      -4.184  12.215  19.286  0.00  0.00    +0.000 A 
ATOM     15  C   UNL     1      -5.568  12.285  19.139  0.00  0.00    +0.000 A 
ATOM     16  C   UNL     1      -6.146  12.002  17.908  0.00  0.00    +0.000 A 
ATOM     17  C   UNL     1      -5.335  11.666  16.821  0.00  0.00    +0.000 A 
ATOM     18  C   UNL     1      -3.937  11.586  16.955  0.00  0.00    +0.000 A 
ATOM     19  C   UNL     1      -3.121  11.161  15.769  0.00  0.00    +0.000 C 
ENDBRANCH  10  13
ENDBRANCH   4   7
BRANCH   1  20
ATOM     20  O   UNL     1       3.532   6.259  19.634  0.00  0.00    +0.000 OA
BRANCH  20  27
ATOM     21  C   UNL     1       6.734   5.193  15.838  0.00  0.00    +0.000 A 
ATOM     22  C   UNL     1       5.848   4.115  16.019  0.00  0.00    +0.000 A 
ATOM     23  C   UNL     1       4.852   4.112  16.982  0.00  0.00    +0.000 A 
ATOM     24  N   UNL     1       4.009   3.066  17.012  0.00  0.00    +0.000 NA
ATOM     25  C   UNL     1       3.030   3.061  17.938  0.00  0.00    +0.000 A 
ATOM     26  C   UNL     1       2.837   4.073  18.852  0.00  0.00    +0.000 A 
ATOM     27  C   UNL     1       3.679   5.181  18.784  0.00  0.00    +0.000 A 
ATOM     28  C   UNL     1       4.751   5.203  17.858  0.00  0.00    +0.000 A 
ATOM     29  C   UNL     1       5.707   6.242  17.751  0.00  0.00    +0.000 A 
ATOM     30  C   UNL     1       6.689   6.256  16.744  0.00  0.00    +0.000 A 
BRANCH  21  32
ATOM     31  C   UNL     1       7.166   4.704  13.553  0.00  0.00    +0.000 C 
ATOM     32  O   UNL     1       7.640   5.199  14.809  0.00  0.00    +0.000 OA
ENDBRANCH  21  32
BRANCH  30  33
ATOM     33  O   UNL     1       7.468   7.379  16.809  0.00  0.00    +0.000 OA
ATOM     34  C   UNL     1       7.995   7.823  18.049  0.00  0.00    +0.000 C 
ENDBRANCH  30  33
ENDBRANCH  20  27
ENDBRANCH   1  20
TORSDOF 6
ENDMDL
MODEL 5
REMARK VINA RESULT:      -8.6      0.793      1.723
REMARK  Name = 
REMARK  9 active torsions:
REMARK  status: ('A' for Active; 'I' for Inactive)
REMARK    1  A    between atoms: C_1  and  O_2
REMARK    2  A    between atoms: O_2  and  C_3
REMARK    3  A    between atoms: C_9  and  O_10
REMARK    4  A    between atoms: O_10  and  C_11
REMARK    5  A    between atoms: C_14  and  N_15
REMARK    6  A    between atoms: N_18  and  C_19
REMARK    7  A    between atoms: C_24  and  C_25
REMARK    8  A    between atoms: C_30  and  O_31
REMARK    9  A    between atoms: O_31  and  C_32
REMARK                            x       y       z     vdW  Elec       q    Type
REMARK                         _______ _______ _______ _____ _____    ______ ____
ROOT
ATOM      1  C   UNL     1       2.133   7.964  19.120  0.00  0.00    +0.000 A 
ATOM      2  C   UNL     1       1.439   8.294  20.277  0.00  0.00    +0.000 A 
ATOM      3  C   UNL     1       0.450   9.282  20.251  0.00  0.00    +0.000 A 
ATOM      4  C   UNL     1       0.150   9.970  19.072  0.00  0.00    +0.000 A 
ATOM      5  C   UNL     1       0.818   9.602  17.898  0.00  0.00    +0.000 A 
ATOM      6  C   UNL     1       1.823   8.620  17.926  0.00  0.00    +0.000 A 
ENDROOT
BRANCH   4   7
ATOM      7  N   UNL     1      -0.784  11.035  19.015  0.00  0.00    +0.000 N 
ATOM      8  C   UNL     1      -2.151  10.884  18.840  0.00  0.00    +0.000 C 
ATOM      9  O   UNL     1      -2.730   9.809  18.760  0.00  0.00    +0.000 OA
ATOM     10  N   UNL     1      -2.807  12.106  18.740  0.00  0.00    +0.000 N 
ATOM     11  H   UNL     1      -0.476  11.932  19.362  0.00  0.00    +0.000 HD
ATOM     12  H   UNL     1      -2.259  12.847  18.333  0.00  0.00    +0.000 HD
BRANCH  10  13
ATOM     13  C   UNL     1      -4.210  12.149  18.511  0.00  0.00    +0.000 A 
ATOM     14  C   UNL     1      -4.720  11.926  17.222  0.00  0.00    +0.000 A 
ATOM     15  C   UNL     1      -6.085  12.035  16.961  0.00  0.00    +0.000 A 
ATOM     16  C   UNL     1      -6.960  12.358  17.990  0.00  0.00    +0.000 A 
ATOM     17  C   UNL     1      -6.469  12.555  19.283  0.00  0.00    +0.000 A 
ATOM     18  C   UNL     1      -5.095  12.453  19.561  0.00  0.00    +0.000 A 
ATOM     19  C   UNL     1      -4.617  12.735  20.957  0.00  0.00    +0.000 C 
ENDBRANCH  10  13
ENDBRANCH   4   7
BRANCH   1  20
ATOM     20  O   UNL     1       3.147   7.041  19.271  0.00  0.00    +0.000 OA
BRANCH  20  27
ATOM     21  C   UNL     1       6.357   5.258  15.761  0.00  0.00    +0.000 A 
ATOM     22  C   UNL     1       5.296   4.350  15.929  0.00  0.00    +0.000 A 
ATOM     23  C   UNL     1       4.256   4.563  16.819  0.00  0.00    +0.000 A 
ATOM     24  N   UNL     1       3.252   3.670  16.838  0.00  0.00    +0.000 NA
ATOM     25  C   UNL     1       2.230   3.876  17.692  0.00  0.00    +0.000 A 
ATOM     26  C   UNL     1       2.151   4.955  18.543  0.00  0.00    +0.000 A 
ATOM     27  C   UNL     1       3.166   5.907  18.483  0.00  0.00    +0.000 A 
ATOM     28  C   UNL     1       4.283   5.704  17.635  0.00  0.00    +0.000 A 
ATOM     29  C   UNL     1       5.401   6.566  17.547  0.00  0.00    +0.000 A 
ATOM     30  C   UNL     1       6.433   6.364  16.612  0.00  0.00    +0.000 A 
BRANCH  21  32
ATOM     31  C   UNL     1       6.929   4.237  13.693  0.00  0.00    +0.000 C 
ATOM     32  O   UNL     1       7.313   5.059  14.799  0.00  0.00    +0.000 OA
ENDBRANCH  21  32
BRANCH  30  33
ATOM     33  O   UNL     1       7.380   7.349  16.679  0.00  0.00    +0.000 OA
ATOM     34  C   UNL     1       7.867   7.799  17.934  0.00  0.00    +0.000 C 
ENDBRANCH  30  33
ENDBRANCH  20  27
ENDBRANCH   1  20
TORSDOF 6
ENDMDL
MODEL 6
REMARK VINA RESULT:      -8.6      3.249      4.086
REMARK  Name = 
REMARK  9 active torsions:
REMARK  status: ('A' for Active; 'I' for Inactive)
REMARK    1  A    between atoms: C_1  and  O_2
REMARK    2  A    between atoms: O_2  and  C_3
REMARK    3  A    between atoms: C_9  and  O_10
REMARK    4  A    between atoms: O_10  and  C_11
REMARK    5  A    between atoms: C_14  and  N_15
REMARK    6  A    between atoms: N_18  and  C_19
REMARK    7  A    between atoms: C_24  and  C_25
REMARK    8  A    between atoms: C_30  and  O_31
REMARK    9  A    between atoms: O_31  and  C_32
REMARK                            x       y       z     vdW  Elec       q    Type
REMARK                         _______ _______ _______ _____ _____    ______ ____
ROOT
ATOM      1  C   UNL     1       2.116   7.588  19.423  0.00  0.00    +0.000 A 
ATOM      2  C   UNL     1       1.452   8.292  20.420  0.00  0.00    +0.000 A 
ATOM      3  C   UNL     1       0.912   9.554  20.155  0.00  0.00    +0.000 A 
ATOM      4  C   UNL     1       1.043  10.142  18.894  0.00  0.00    +0.000 A 
ATOM      5  C   UNL     1       1.671   9.411  17.879  0.00  0.00    +0.000 A 
ATOM      6  C   UNL     1       2.227   8.149  18.148  0.00  0.00    +0.000 A 
ENDROOT
BRANCH   4   7
ATOM      7  N   UNL     1       0.587  11.453  18.602  0.00  0.00    +0.000 N 
ATOM      8  C   UNL     1       1.177  12.620  19.063  0.00  0.00    +0.000 C 
ATOM      9  O   UNL     1       2.195  12.666  19.741  0.00  0.00    +0.000 OA
ATOM     10  N   UNL     1       0.466  13.754  18.687  0.00  0.00    +0.000 N 
ATOM     11  H   UNL     1      -0.050  11.553  17.826  0.00  0.00    +0.000 HD
ATOM     12  H   UNL     1      -0.528  13.617  18.594  0.00  0.00    +0.000 HD
BRANCH  10  13
ATOM     13  C   UNL     1       0.897  15.041  19.110  0.00  0.00    +0.000 A 
ATOM     14  C   UNL     1       1.962  15.679  18.454  0.00  0.00    +0.000 A 
ATOM     15  C   UNL     1       2.447  16.908  18.898  0.00  0.00    +0.000 A 
ATOM     16  C   UNL     1       1.864  17.521  20.000  0.00  0.00    +0.000 A 
ATOM     17  C   UNL     1       0.786  16.912  20.645  0.00  0.00    +0.000 A 
ATOM     18  C   UNL     1       0.288  15.670  20.211  0.00  0.00    +0.000 A 
ATOM     19  C   UNL     1      -0.834  15.032  20.980  0.00  0.00    +0.000 C 
ENDBRANCH  10  13
ENDBRANCH   4   7
BRANCH   1  20
ATOM     20  O   UNL     1       2.687   6.393  19.811  0.00  0.00    +0.000 OA
BRANCH  20  27
ATOM     21  C   UNL     1       6.329   4.676  16.715  0.00  0.00    +0.000 A 
ATOM     22  C   UNL     1       5.191   3.858  16.597  0.00  0.00    +0.000 A 
ATOM     23  C   UNL     1       4.028   4.077  17.316  0.00  0.00    +0.000 A 
ATOM     24  N   UNL     1       2.973   3.284  17.064  0.00  0.00    +0.000 NA
ATOM     25  C   UNL     1       1.834   3.498  17.750  0.00  0.00    +0.000 A 
ATOM     26  C   UNL     1       1.684   4.491  18.693  0.00  0.00    +0.000 A 
ATOM     27  C   UNL     1       2.761   5.346  18.914  0.00  0.00    +0.000 A 
ATOM     28  C   UNL     1       3.993   5.125  18.250  0.00  0.00    +0.000 A 
ATOM     29  C   UNL     1       5.170   5.884  18.451  0.00  0.00    +0.000 A 
ATOM     30  C   UNL     1       6.334   5.681  17.687  0.00  0.00    +0.000 A 
BRANCH  21  32
ATOM     31  C   UNL     1       7.251   4.808  14.529  0.00  0.00    +0.000 C 
ATOM     32  O   UNL     1       7.424   4.486  15.913  0.00  0.00    +0.000 OA
ENDBRANCH  21  32
BRANCH  30  33
ATOM     33  O   UNL     1       7.324   6.562  18.025  0.00  0.00    +0.000 OA
ATOM     34  C   UNL     1       7.431   7.816  17.371  0.00  0.00    +0.000 C 
ENDBRANCH  30  33
ENDBRANCH  20  27
ENDBRANCH   1  20
TORSDOF 6
ENDMDL
MODEL 7
REMARK VINA RESULT:      -8.5      2.566      3.219
REMARK  Name = 
REMARK  9 active torsions:
REMARK  status: ('A' for Active; 'I' for Inactive)
REMARK    1  A    between atoms: C_1  and  O_2
REMARK    2  A    between atoms: O_2  and  C_3
REMARK    3  A    between atoms: C_9  and  O_10
REMARK    4  A    between atoms: O_10  and  C_11
REMARK    5  A    between atoms: C_14  and  N_15
REMARK    6  A    between atoms: N_18  and  C_19
REMARK    7  A    between atoms: C_24  and  C_25
REMARK    8  A    between atoms: C_30  and  O_31
REMARK    9  A    between atoms: O_31  and  C_32
REMARK                            x       y       z     vdW  Elec       q    Type
REMARK                         _______ _______ _______ _____ _____    ______ ____
ROOT
ATOM      1  C   UNL     1       2.224   7.413  19.822  0.00  0.00    +0.000 A 
ATOM      2  C   UNL     1       2.330   8.010  18.571  0.00  0.00    +0.000 A 
ATOM      3  C   UNL     1       1.608   9.171  18.279  0.00  0.00    +0.000 A 
ATOM      4  C   UNL     1       0.754   9.746  19.224  0.00  0.00    +0.000 A 
ATOM      5  C   UNL     1       0.685   9.169  20.497  0.00  0.00    +0.000 A 
ATOM      6  C   UNL     1       1.398   7.994  20.788  0.00  0.00    +0.000 A 
ENDROOT
BRANCH   4   7
ATOM      7  N   UNL     1      -0.061  10.873  18.944  0.00  0.00    +0.000 N 
ATOM      8  C   UNL     1       0.191  12.163  19.385  0.00  0.00    +0.000 C 
ATOM      9  O   UNL     1       1.175  12.500  20.030  0.00  0.00    +0.000 OA
ATOM     10  N   UNL     1      -0.821  13.048  19.029  0.00  0.00    +0.000 N 
ATOM     11  H   UNL     1      -0.723  10.782  18.188  0.00  0.00    +0.000 HD
ATOM     12  H   UNL     1      -1.739  12.636  18.967  0.00  0.00    +0.000 HD
BRANCH  10  13
ATOM     13  C   UNL     1      -0.757  14.408  19.436  0.00  0.00    +0.000 A 
ATOM     14  C   UNL     1      -0.030  15.338  18.676  0.00  0.00    +0.000 A 
ATOM     15  C   UNL     1       0.106  16.660  19.096  0.00  0.00    +0.000 A 
ATOM     16  C   UNL     1      -0.495  17.073  20.278  0.00  0.00    +0.000 A 
ATOM     17  C   UNL     1      -1.245  16.166  21.030  0.00  0.00    +0.000 A 
ATOM     18  C   UNL     1      -1.387  14.827  20.622  0.00  0.00    +0.000 A 
ATOM     19  C   UNL     1      -2.154  13.881  21.501  0.00  0.00    +0.000 C 
ENDBRANCH  10  13
ENDBRANCH   4   7
BRANCH   1  20
ATOM     20  O   UNL     1       2.906   6.225  19.979  0.00  0.00    +0.000 OA
BRANCH  20  27
ATOM     21  C   UNL     1       6.350   4.751  16.549  0.00  0.00    +0.000 A 
ATOM     22  C   UNL     1       5.173   3.998  16.384  0.00  0.00    +0.000 A 
ATOM     23  C   UNL     1       4.049   4.174  17.173  0.00  0.00    +0.000 A 
ATOM     24  N   UNL     1       2.952   3.459  16.874  0.00  0.00    +0.000 NA
ATOM     25  C   UNL     1       1.850   3.633  17.630  0.00  0.00    +0.000 A 
ATOM     26  C   UNL     1       1.780   4.511  18.688  0.00  0.00    +0.000 A 
ATOM     27  C   UNL     1       2.901   5.290  18.963  0.00  0.00    +0.000 A 
ATOM     28  C   UNL     1       4.095   5.103  18.224  0.00  0.00    +0.000 A 
ATOM     29  C   UNL     1       5.312   5.787  18.463  0.00  0.00    +0.000 A 
ATOM     30  C   UNL     1       6.435   5.631  17.631  0.00  0.00    +0.000 A 
BRANCH  21  32
ATOM     31  C   UNL     1       7.101   4.785  14.295  0.00  0.00    +0.000 C 
ATOM     32  O   UNL     1       7.404   4.616  15.683  0.00  0.00    +0.000 OA
ENDBRANCH  21  32
BRANCH  30  33
ATOM     33  O   UNL     1       7.476   6.426  18.028  0.00  0.00    +0.000 OA
ATOM     34  C   UNL     1       7.613   7.744  17.521  0.00  0.00    +0.000 C 
ENDBRANCH  30  33
ENDBRANCH  20  27
ENDBRANCH   1  20
TORSDOF 6
ENDMDL
MODEL 8
REMARK VINA RESULT:      -8.5      2.810      3.667
REMARK  Name = 
REMARK  9 active torsions:
REMARK  status: ('A' for Active; 'I' for Inactive)
REMARK    1  A    between atoms: C_1  and  O_2
REMARK    2  A    between atoms: O_2  and  C_3
REMARK    3  A    between atoms: C_9  and  O_10
REMARK    4  A    between atoms: O_10  and  C_11
REMARK    5  A    between atoms: C_14  and  N_15
REMARK    6  A    between atoms: N_18  and  C_19
REMARK    7  A    between atoms: C_24  and  C_25
REMARK    8  A    between atoms: C_30  and  O_31
REMARK    9  A    between atoms: O_31  and  C_32
REMARK                            x       y       z     vdW  Elec       q    Type
REMARK                         _______ _______ _______ _____ _____    ______ ____
ROOT
ATOM      1  C   UNL     1       2.180   7.547  19.668  0.00  0.00    +0.000 A 
ATOM      2  C   UNL     1       1.468   7.682  20.854  0.00  0.00    +0.000 A 
ATOM      3  C   UNL     1       0.563   8.734  21.019  0.00  0.00    +0.000 A 
ATOM      4  C   UNL     1       0.366   9.680  20.009  0.00  0.00    +0.000 A 
ATOM      5  C   UNL     1       1.049   9.515  18.799  0.00  0.00    +0.000 A 
ATOM      6  C   UNL     1       1.971   8.467  18.637  0.00  0.00    +0.000 A 
ENDROOT
BRANCH   4   7
ATOM      7  N   UNL     1      -0.478  10.810  20.163  0.00  0.00    +0.000 N 
ATOM      8  C   UNL     1      -0.374  11.745  21.182  0.00  0.00    +0.000 C 
ATOM      9  O   UNL     1       0.490  11.739  22.049  0.00  0.00    +0.000 OA
ATOM     10  N   UNL     1      -1.386  12.697  21.128  0.00  0.00    +0.000 N 
ATOM     11  H   UNL     1      -1.025  11.085  19.361  0.00  0.00    +0.000 HD
ATOM     12  H   UNL     1      -2.258  12.365  20.746  0.00  0.00    +0.000 HD
BRANCH  10  13
ATOM     13  C   UNL     1      -1.469  13.711  22.121  0.00  0.00    +0.000 A 
ATOM     14  C   UNL     1      -0.681  14.868  22.014  0.00  0.00    +0.000 A 
ATOM     15  C   UNL     1      -0.693  15.839  23.014  0.00  0.00    +0.000 A 
ATOM     16  C   UNL     1      -1.502  15.671  24.130  0.00  0.00    +0.000 A 
ATOM     17  C   UNL     1      -2.312  14.538  24.236  0.00  0.00    +0.000 A 
ATOM     18  C   UNL     1      -2.308  13.546  23.238  0.00  0.00    +0.000 A 
ATOM     19  C   UNL     1      -3.153  12.320  23.434  0.00  0.00    +0.000 C 
ENDBRANCH  10  13
ENDBRANCH   4   7
BRANCH   1  20
ATOM     20  O   UNL     1       3.111   6.530  19.639  0.00  0.00    +0.000 OA
BRANCH  20  27
ATOM     21  C   UNL     1       5.922   4.372  16.000  0.00  0.00    +0.000 A 
ATOM     22  C   UNL     1       4.717   3.661  16.144  0.00  0.00    +0.000 A 
ATOM     23  C   UNL     1       3.739   4.013  17.059  0.00  0.00    +0.000 A 
ATOM     24  N   UNL     1       2.592   3.313  17.054  0.00  0.00    +0.000 NA
ATOM     25  C   UNL     1       1.630   3.657  17.933  0.00  0.00    +0.000 A 
ATOM     26  C   UNL     1       1.752   4.691  18.833  0.00  0.00    +0.000 A 
ATOM     27  C   UNL     1       2.920   5.449  18.801  0.00  0.00    +0.000 A 
ATOM     28  C   UNL     1       3.976   5.091  17.926  0.00  0.00    +0.000 A 
ATOM     29  C   UNL     1       5.230   5.743  17.859  0.00  0.00    +0.000 A 
ATOM     30  C   UNL     1       6.201   5.406  16.900  0.00  0.00    +0.000 A 
BRANCH  21  32
ATOM     31  C   UNL     1       6.306   4.034  13.680  0.00  0.00    +0.000 C 
ATOM     32  O   UNL     1       6.820   4.053  15.015  0.00  0.00    +0.000 OA
ENDBRANCH  21  32
BRANCH  30  33
ATOM     33  O   UNL     1       7.310   6.201  16.996  0.00  0.00    +0.000 OA
ATOM     34  C   UNL     1       7.697   6.754  18.244  0.00  0.00    +0.000 C 
ENDBRANCH  30  33
ENDBRANCH  20  27
ENDBRANCH   1  20
TORSDOF 6
ENDMDL
MODEL 9
REMARK VINA RESULT:      -8.5      2.696      3.448
REMARK  Name = 
REMARK  9 active torsions:
REMARK  status: ('A' for Active; 'I' for Inactive)
REMARK    1  A    between atoms: C_1  and  O_2
REMARK    2  A    between atoms: O_2  and  C_3
REMARK    3  A    between atoms: C_9  and  O_10
REMARK    4  A    between atoms: O_10  and  C_11
REMARK    5  A    between atoms: C_14  and  N_15
REMARK    6  A    between atoms: N_18  and  C_19
REMARK    7  A    between atoms: C_24  and  C_25
REMARK    8  A    between atoms: C_30  and  O_31
REMARK    9  A    between atoms: O_31  and  C_32
REMARK                            x       y       z     vdW  Elec       q    Type
REMARK                         _______ _______ _______ _____ _____    ______ ____
ROOT
ATOM      1  C   UNL     1       2.270   7.824  19.115  0.00  0.00    +0.000 A 
ATOM      2  C   UNL     1       1.476   8.316  20.144  0.00  0.00    +0.000 A 
ATOM      3  C   UNL     1       0.686   9.452  19.946  0.00  0.00    +0.000 A 
ATOM      4  C   UNL     1       0.690  10.128  18.722  0.00  0.00    +0.000 A 
ATOM      5  C   UNL     1       1.455   9.603  17.674  0.00  0.00    +0.000 A 
ATOM      6  C   UNL     1       2.261   8.470  17.876  0.00  0.00    +0.000 A 
ENDROOT
BRANCH   4   7
ATOM      7  N   UNL     1      -0.029  11.331  18.502  0.00  0.00    +0.000 N 
ATOM      8  C   UNL     1       0.268  12.551  19.089  0.00  0.00    +0.000 C 
ATOM      9  O   UNL     1       1.216  12.755  19.835  0.00  0.00    +0.000 OA
ATOM     10  N   UNL     1      -0.657  13.535  18.754  0.00  0.00    +0.000 N 
ATOM     11  H   UNL     1      -0.634  11.360  17.695  0.00  0.00    +0.000 HD
ATOM     12  H   UNL     1      -1.590  13.196  18.585  0.00  0.00    +0.000 HD
BRANCH  10  13
ATOM     13  C   UNL     1      -0.541  14.842  19.302  0.00  0.00    +0.000 A 
ATOM     14  C   UNL     1       0.351  15.766  18.736  0.00  0.00    +0.000 A 
ATOM     15  C   UNL     1       0.534  17.027  19.302  0.00  0.00    +0.000 A 
ATOM     16  C   UNL     1      -0.184  17.384  20.437  0.00  0.00    +0.000 A 
ATOM     17  C   UNL     1      -1.095  16.484  20.994  0.00  0.00    +0.000 A 
ATOM     18  C   UNL     1      -1.287  15.206  20.438  0.00  0.00    +0.000 A 
ATOM     19  C   UNL     1      -2.234  14.258  21.115  0.00  0.00    +0.000 C 
ENDBRANCH  10  13
ENDBRANCH   4   7
BRANCH   1  20
ATOM     20  O   UNL     1       3.077   6.753  19.439  0.00  0.00    +0.000 OA
BRANCH  20  27
ATOM     21  C   UNL     1       6.040   4.571  15.939  0.00  0.00    +0.000 A 
ATOM     22  C   UNL     1       4.922   3.752  16.181  0.00  0.00    +0.000 A 
ATOM     23  C   UNL     1       3.928   4.083  17.087  0.00  0.00    +0.000 A 
ATOM     24  N   UNL     1       2.864   3.268  17.179  0.00  0.00    +0.000 NA
ATOM     25  C   UNL     1       1.887   3.590  18.049  0.00  0.00    +0.000 A 
ATOM     26  C   UNL     1       1.911   4.713  18.846  0.00  0.00    +0.000 A 
ATOM     27  C   UNL     1       2.990   5.583  18.710  0.00  0.00    +0.000 A 
ATOM     28  C   UNL     1       4.062   5.258  17.843  0.00  0.00    +0.000 A 
ATOM     29  C   UNL     1       5.236   6.031  17.681  0.00  0.00    +0.000 A 
ATOM     30  C   UNL     1       6.221   5.709  16.730  0.00  0.00    +0.000 A 
BRANCH  21  32
ATOM     31  C   UNL     1       6.416   4.049  13.651  0.00  0.00    +0.000 C 
ATOM     32  O   UNL     1       6.949   4.256  14.962  0.00  0.00    +0.000 OA
ENDBRANCH  21  32
BRANCH  30  33
ATOM     33  O   UNL     1       7.238   6.623  16.721  0.00  0.00    +0.000 OA
ATOM     34  C   UNL     1       7.169   7.790  17.525  0.00  0.00    +0.000 C 
ENDBRANCH  30  33
ENDBRANCH  20  27
ENDBRANCH   1  20
TORSDOF 6
ENDMDL
