MODEL 1
REMARK VINA RESULT:      -6.3      0.000      0.000
REMARK  Name = 
REMARK  11 active torsions:
REMARK  status: ('A' for Active; 'I' for Inactive)
REMARK    1  A    between atoms: C_1  and  C_2
REMARK    2  A    between atoms: N_4  and  C_5
REMARK    3  A    between atoms: C_5  and  C_6
REMARK    4  A    between atoms: C_6  and  C_7
REMARK    5  A    between atoms: C_9  and  C_10
REMARK    6  A    between atoms: C_11  and  C_12
REMARK    7  A    between atoms: C_12  and  C_13
REMARK    8  A    between atoms: C_13  and  C_14
REMARK    9  A    between atoms: N_16  and  C_17
REMARK   10  A    between atoms: N_16  and  C_18
REMARK   11  A    between atoms: C_18  and  C_19
REMARK                            x       y       z     vdW  Elec       q    Type
REMARK                         _______ _______ _______ _____ _____    ______ ____
ROOT
ATOM      1  C   UNL     1       3.475   6.865  17.887  0.00  0.00    +0.000 C 
ENDROOT
BRANCH   1   8
ATOM      2  C   UNL     1       6.242   5.487  19.110  0.00  0.00    +0.000 C 
ATOM      3  C   UNL     1       4.929   4.856  18.816  0.00  0.00    +0.000 A 
ATOM      4  N   UNL     1       4.754   3.553  19.039  0.00  0.00    +0.000 NA
ATOM      5  N   UNL     1       3.483   3.311  18.671  0.00  0.00    +0.000 N 
ATOM      6  C   UNL     1       2.837   4.420  18.204  0.00  0.00    +0.000 A 
ATOM      7  C   UNL     1       1.442   4.488  17.685  0.00  0.00    +0.000 C 
ATOM      8  C   UNL     1       3.750   5.455  18.291  0.00  0.00    +0.000 A 
BRANCH   5   9
ATOM      9  C   UNL     1       2.994   1.950  18.794  0.00  0.00    +0.000 C 
BRANCH   9  10
ATOM     10  C   UNL     1       1.807   1.818  19.741  0.00  0.00    +0.000 C 
BRANCH  10  11
ATOM     11  C   UNL     1       2.081   2.436  21.042  0.00  0.00    +0.000 C 
ATOM     12  N   UNL     1       2.333   2.918  22.070  0.00  0.00    +0.000 NA
ENDBRANCH  10  11
ENDBRANCH   9  10
ENDBRANCH   5   9
ENDBRANCH   1   8
BRANCH   1  13
ATOM     13  C   UNL     1       2.639   7.673  18.865  0.00  0.00    +0.000 C 
BRANCH  13  14
ATOM     14  C   UNL     1       1.955   8.913  18.300  0.00  0.00    +0.000 C 
ATOM     15  O   UNL     1       2.075   9.248  17.120  0.00  0.00    +0.000 OA
ATOM     16  N   UNL     1       1.176   9.642  19.195  0.00  0.00    +0.000 N 
ATOM     17  C   UNL     1       0.875   9.208  20.550  0.00  0.00    +0.000 C 
BRANCH  16  18
ATOM     18  C   UNL     1       0.470  10.826  18.705  0.00  0.00    +0.000 C 
BRANCH  18  19
ATOM     19  C   UNL     1       1.222  12.105  18.987  0.00  0.00    +0.000 A 
ATOM     20  C   UNL     1       2.382  12.547  18.258  0.00  0.00    +0.000 A 
ATOM     21  C   UNL     1       2.816  13.798  18.653  0.00  0.00    +0.000 A 
ATOM     22  S   UNL     1       1.845  14.447  19.896  0.00  0.00    +0.000 S 
ATOM     23  C   UNL     1       0.837  13.067  19.907  0.00  0.00    +0.000 A 
ENDBRANCH  18  19
ENDBRANCH  16  18
ENDBRANCH  13  14
ENDBRANCH   1  13
TORSDOF 8
ENDMDL
MODEL 2
REMARK VINA RESULT:      -6.2      2.809      4.412
REMARK  Name = 
REMARK  11 active torsions:
REMARK  status: ('A' for Active; 'I' for Inactive)
REMARK    1  A    between atoms: C_1  and  C_2
REMARK    2  A    between atoms: N_4  and  C_5
REMARK    3  A    between atoms: C_5  and  C_6
REMARK    4  A    between atoms: C_6  and  C_7
REMARK    5  A    between atoms: C_9  and  C_10
REMARK    6  A    between atoms: C_11  and  C_12
REMARK    7  A    between atoms: C_12  and  C_13
REMARK    8  A    between atoms: C_13  and  C_14
REMARK    9  A    between atoms: N_16  and  C_17
REMARK   10  A    between atoms: N_16  and  C_18
REMARK   11  A    between atoms: C_18  and  C_19
REMARK                            x       y       z     vdW  Elec       q    Type
REMARK                         _______ _______ _______ _____ _____    ______ ____
ROOT
ATOM      1  C   UNL     1       2.792   6.400  19.362  0.00  0.00    +0.000 C 
ENDROOT
BRANCH   1   8
ATOM      2  C   UNL     1       1.331   3.539  18.510  0.00  0.00    +0.000 C 
ATOM      3  C   UNL     1       2.630   4.103  18.057  0.00  0.00    +0.000 A 
ATOM      4  N   UNL     1       3.383   3.423  17.191  0.00  0.00    +0.000 NA
ATOM      5  N   UNL     1       4.466   4.196  17.000  0.00  0.00    +0.000 N 
ATOM      6  C   UNL     1       4.440   5.351  17.729  0.00  0.00    +0.000 A 
ATOM      7  C   UNL     1       5.494   6.402  17.776  0.00  0.00    +0.000 C 
ATOM      8  C   UNL     1       3.247   5.329  18.429  0.00  0.00    +0.000 A 
BRANCH   5   9
ATOM      9  C   UNL     1       5.491   3.708  16.096  0.00  0.00    +0.000 C 
BRANCH   9  10
ATOM     10  C   UNL     1       5.472   4.393  14.734  0.00  0.00    +0.000 C 
BRANCH  10  11
ATOM     11  C   UNL     1       6.769   4.997  14.413  0.00  0.00    +0.000 C 
ATOM     12  N   UNL     1       7.813   5.451  14.178  0.00  0.00    +0.000 NA
ENDBRANCH  10  11
ENDBRANCH   9  10
ENDBRANCH   5   9
ENDBRANCH   1   8
BRANCH   1  13
ATOM     13  C   UNL     1       2.447   7.729  18.711  0.00  0.00    +0.000 C 
BRANCH  13  14
ATOM     14  C   UNL     1       1.477   8.622  19.478  0.00  0.00    +0.000 C 
ATOM     15  O   UNL     1       0.886   8.233  20.487  0.00  0.00    +0.000 OA
ATOM     16  N   UNL     1       1.305   9.909  18.976  0.00  0.00    +0.000 N 
ATOM     17  C   UNL     1       2.091  10.469  17.887  0.00  0.00    +0.000 C 
BRANCH  16  18
ATOM     18  C   UNL     1       0.409  10.824  19.685  0.00  0.00    +0.000 C 
BRANCH  18  19
ATOM     19  C   UNL     1      -0.936  10.951  19.013  0.00  0.00    +0.000 A 
ATOM     20  C   UNL     1      -1.406  10.093  17.956  0.00  0.00    +0.000 A 
ATOM     21  C   UNL     1      -2.709  10.362  17.588  0.00  0.00    +0.000 A 
ATOM     22  S   UNL     1      -3.377  11.643  18.497  0.00  0.00    +0.000 S 
ATOM     23  C   UNL     1      -1.933  11.837  19.391  0.00  0.00    +0.000 A 
ENDBRANCH  18  19
ENDBRANCH  16  18
ENDBRANCH  13  14
ENDBRANCH   1  13
TORSDOF 8
ENDMDL
MODEL 3
REMARK VINA RESULT:      -6.1      3.473      6.422
REMARK  Name = 
REMARK  11 active torsions:
REMARK  status: ('A' for Active; 'I' for Inactive)
REMARK    1  A    between atoms: C_1  and  C_2
REMARK    2  A    between atoms: N_4  and  C_5
REMARK    3  A    between atoms: C_5  and  C_6
REMARK    4  A    between atoms: C_6  and  C_7
REMARK    5  A    between atoms: C_9  and  C_10
REMARK    6  A    between atoms: C_11  and  C_12
REMARK    7  A    between atoms: C_12  and  C_13
REMARK    8  A    between atoms: C_13  and  C_14
REMARK    9  A    between atoms: N_16  and  C_17
REMARK   10  A    between atoms: N_16  and  C_18
REMARK   11  A    between atoms: C_18  and  C_19
REMARK                            x       y       z     vdW  Elec       q    Type
REMARK                         _______ _______ _______ _____ _____    ______ ____
ROOT
ATOM      1  C   UNL     1       2.331   4.379  17.402  0.00  0.00    +0.000 C 
ENDROOT
BRANCH   1   8
ATOM      2  C   UNL     1       0.896   3.045  20.087  0.00  0.00    +0.000 C 
ATOM      3  C   UNL     1       1.397   4.429  19.879  0.00  0.00    +0.000 A 
ATOM      4  N   UNL     1       1.286   5.329  20.857  0.00  0.00    +0.000 NA
ATOM      5  N   UNL     1       1.822   6.453  20.349  0.00  0.00    +0.000 N 
ATOM      6  C   UNL     1       2.264   6.306  19.065  0.00  0.00    +0.000 A 
ATOM      7  C   UNL     1       2.871   7.359  18.204  0.00  0.00    +0.000 C 
ATOM      8  C   UNL     1       2.009   4.990  18.724  0.00  0.00    +0.000 A 
BRANCH   5   9
ATOM      9  C   UNL     1       1.838   7.633  21.194  0.00  0.00    +0.000 C 
BRANCH   9  10
ATOM     10  C   UNL     1       0.587   8.492  21.053  0.00  0.00    +0.000 C 
BRANCH  10  11
ATOM     11  C   UNL     1       0.336   9.286  22.260  0.00  0.00    +0.000 C 
ATOM     12  N   UNL     1       0.137   9.944  23.198  0.00  0.00    +0.000 NA
ENDBRANCH  10  11
ENDBRANCH   9  10
ENDBRANCH   5   9
ENDBRANCH   1   8
BRANCH   1  13
ATOM     13  C   UNL     1       3.433   3.333  17.417  0.00  0.00    +0.000 C 
BRANCH  13  14
ATOM     14  C   UNL     1       4.787   3.775  16.872  0.00  0.00    +0.000 C 
ATOM     15  O   UNL     1       5.019   3.836  15.663  0.00  0.00    +0.000 OA
ATOM     16  N   UNL     1       5.747   4.114  17.822  0.00  0.00    +0.000 N 
ATOM     17  C   UNL     1       5.480   4.210  19.249  0.00  0.00    +0.000 C 
BRANCH  16  18
ATOM     18  C   UNL     1       7.057   4.573  17.360  0.00  0.00    +0.000 C 
BRANCH  18  19
ATOM     19  C   UNL     1       7.306   6.027  17.680  0.00  0.00    +0.000 A 
ATOM     20  C   UNL     1       8.213   6.496  18.696  0.00  0.00    +0.000 A 
ATOM     21  C   UNL     1       8.328   7.873  18.715  0.00  0.00    +0.000 A 
ATOM     22  S   UNL     1       7.352   8.611  17.527  0.00  0.00    +0.000 S 
ATOM     23  C   UNL     1       6.779   7.098  16.976  0.00  0.00    +0.000 A 
ENDBRANCH  18  19
ENDBRANCH  16  18
ENDBRANCH  13  14
ENDBRANCH   1  13
TORSDOF 8
ENDMDL
MODEL 4
REMARK VINA RESULT:      -6.0      2.750      3.551
REMARK  Name = 
REMARK  11 active torsions:
REMARK  status: ('A' for Active; 'I' for Inactive)
REMARK    1  A    between atoms: C_1  and  C_2
REMARK    2  A    between atoms: N_4  and  C_5
REMARK    3  A    between atoms: C_5  and  C_6
REMARK    4  A    between atoms: C_6  and  C_7
REMARK    5  A    between atoms: C_9  and  C_10
REMARK    6  A    between atoms: C_11  and  C_12
REMARK    7  A    between atoms: C_12  and  C_13
REMARK    8  A    between atoms: C_13  and  C_14
REMARK    9  A    between atoms: N_16  and  C_17
REMARK   10  A    between atoms: N_16  and  C_18
REMARK   11  A    between atoms: C_18  and  C_19
REMARK                            x       y       z     vdW  Elec       q    Type
REMARK                         _______ _______ _______ _____ _____    ______ ____
ROOT
ATOM      1  C   UNL     1       2.095   7.013  20.873  0.00  0.00    +0.000 C 
ENDROOT
BRANCH   1   8
ATOM      2  C   UNL     1       3.204   7.515  17.781  0.00  0.00    +0.000 C 
ATOM      3  C   UNL     1       2.730   6.258  18.416  0.00  0.00    +0.000 A 
ATOM      4  N   UNL     1       2.706   5.126  17.712  0.00  0.00    +0.000 NA
ATOM      5  N   UNL     1       2.230   4.202  18.566  0.00  0.00    +0.000 N 
ATOM      6  C   UNL     1       1.934   4.710  19.799  0.00  0.00    +0.000 A 
ATOM      7  C   UNL     1       1.358   3.968  20.955  0.00  0.00    +0.000 C 
ATOM      8  C   UNL     1       2.255   6.054  19.742  0.00  0.00    +0.000 A 
BRANCH   5   9
ATOM      9  C   UNL     1       2.080   2.845  18.074  0.00  0.00    +0.000 C 
BRANCH   9  10
ATOM     10  C   UNL     1       3.401   2.093  17.964  0.00  0.00    +0.000 C 
BRANCH  10  11
ATOM     11  C   UNL     1       4.140   2.108  19.231  0.00  0.00    +0.000 C 
ATOM     12  N   UNL     1       4.712   2.091  20.243  0.00  0.00    +0.000 NA
ENDBRANCH  10  11
ENDBRANCH   9  10
ENDBRANCH   5   9
ENDBRANCH   1   8
BRANCH   1  13
ATOM     13  C   UNL     1       0.826   7.846  20.848  0.00  0.00    +0.000 C 
BRANCH  13  14
ATOM     14  C   UNL     1       0.925   9.242  21.454  0.00  0.00    +0.000 C 
ATOM     15  O   UNL     1       1.525   9.458  22.509  0.00  0.00    +0.000 OA
ATOM     16  N   UNL     1       0.306  10.264  20.739  0.00  0.00    +0.000 N 
ATOM     17  C   UNL     1      -0.277  10.093  19.417  0.00  0.00    +0.000 C 
BRANCH  16  18
ATOM     18  C   UNL     1       0.391  11.631  21.254  0.00  0.00    +0.000 C 
BRANCH  18  19
ATOM     19  C   UNL     1      -0.917  12.114  21.830  0.00  0.00    +0.000 A 
ATOM     20  C   UNL     1      -1.820  13.016  21.162  0.00  0.00    +0.000 A 
ATOM     21  C   UNL     1      -2.992  13.217  21.865  0.00  0.00    +0.000 A 
ATOM     22  S   UNL     1      -3.018  12.336  23.326  0.00  0.00    +0.000 S 
ATOM     23  C   UNL     1      -1.472  11.676  23.022  0.00  0.00    +0.000 A 
ENDBRANCH  18  19
ENDBRANCH  16  18
ENDBRANCH  13  14
ENDBRANCH   1  13
TORSDOF 8
ENDMDL
MODEL 5
REMARK VINA RESULT:      -5.9      3.467      7.959
REMARK  Name = 
REMARK  11 active torsions:
REMARK  status: ('A' for Active; 'I' for Inactive)
REMARK    1  A    between atoms: C_1  and  C_2
REMARK    2  A    between atoms: N_4  and  C_5
REMARK    3  A    between atoms: C_5  and  C_6
REMARK    4  A    between atoms: C_6  and  C_7
REMARK    5  A    between atoms: C_9  and  C_10
REMARK    6  A    between atoms: C_11  and  C_12
REMARK    7  A    between atoms: C_12  and  C_13
REMARK    8  A    between atoms: C_13  and  C_14
REMARK    9  A    between atoms: N_16  and  C_17
REMARK   10  A    between atoms: N_16  and  C_18
REMARK   11  A    between atoms: C_18  and  C_19
REMARK                            x       y       z     vdW  Elec       q    Type
REMARK                         _______ _______ _______ _____ _____    ______ ____
ROOT
ATOM      1  C   UNL     1       1.765   7.815  21.007  0.00  0.00    +0.000 C 
ENDROOT
BRANCH   1   8
ATOM      2  C   UNL     1      -0.291   9.457  23.037  0.00  0.00    +0.000 C 
ATOM      3  C   UNL     1       0.043   9.731  21.615  0.00  0.00    +0.000 A 
ATOM      4  N   UNL     1      -0.527  10.760  20.986  0.00  0.00    +0.000 NA
ATOM      5  N   UNL     1      -0.020  10.721  19.740  0.00  0.00    +0.000 N 
ATOM      6  C   UNL     1       0.851   9.688  19.545  0.00  0.00    +0.000 A 
ATOM      7  C   UNL     1       1.555   9.341  18.279  0.00  0.00    +0.000 C 
ATOM      8  C   UNL     1       0.924   9.020  20.754  0.00  0.00    +0.000 A 
BRANCH   5   9
ATOM      9  C   UNL     1      -0.468  11.732  18.800  0.00  0.00    +0.000 C 
BRANCH   9  10
ATOM     10  C   UNL     1      -1.937  11.593  18.419  0.00  0.00    +0.000 C 
BRANCH  10  11
ATOM     11  C   UNL     1      -2.130  10.600  17.358  0.00  0.00    +0.000 C 
ATOM     12  N   UNL     1      -2.311   9.801  16.532  0.00  0.00    +0.000 NA
ENDBRANCH  10  11
ENDBRANCH   9  10
ENDBRANCH   5   9
ENDBRANCH   1   8
BRANCH   1  13
ATOM     13  C   UNL     1       1.169   6.494  20.550  0.00  0.00    +0.000 C 
BRANCH  13  14
ATOM     14  C   UNL     1       2.127   5.310  20.484  0.00  0.00    +0.000 C 
ATOM     15  O   UNL     1       2.321   4.568  21.449  0.00  0.00    +0.000 OA
ATOM     16  N   UNL     1       2.766   5.109  19.263  0.00  0.00    +0.000 N 
ATOM     17  C   UNL     1       2.459   5.854  18.052  0.00  0.00    +0.000 C 
BRANCH  16  18
ATOM     18  C   UNL     1       3.676   3.971  19.128  0.00  0.00    +0.000 C 
BRANCH  18  19
ATOM     19  C   UNL     1       4.796   4.239  18.152  0.00  0.00    +0.000 A 
ATOM     20  C   UNL     1       6.061   4.830  18.503  0.00  0.00    +0.000 A 
ATOM     21  C   UNL     1       6.944   4.872  17.442  0.00  0.00    +0.000 A 
ATOM     22  S   UNL     1       6.267   4.210  16.022  0.00  0.00    +0.000 S 
ATOM     23  C   UNL     1       4.797   3.857  16.820  0.00  0.00    +0.000 A 
ENDBRANCH  18  19
ENDBRANCH  16  18
ENDBRANCH  13  14
ENDBRANCH   1  13
TORSDOF 8
ENDMDL
MODEL 6
REMARK VINA RESULT:      -5.9      2.355      3.135
REMARK  Name = 
REMARK  11 active torsions:
REMARK  status: ('A' for Active; 'I' for Inactive)
REMARK    1  A    between atoms: C_1  and  C_2
REMARK    2  A    between atoms: N_4  and  C_5
REMARK    3  A    between atoms: C_5  and  C_6
REMARK    4  A    between atoms: C_6  and  C_7
REMARK    5  A    between atoms: C_9  and  C_10
REMARK    6  A    between atoms: C_11  and  C_12
REMARK    7  A    between atoms: C_12  and  C_13
REMARK    8  A    between atoms: C_13  and  C_14
REMARK    9  A    between atoms: N_16  and  C_17
REMARK   10  A    between atoms: N_16  and  C_18
REMARK   11  A    between atoms: C_18  and  C_19
REMARK                            x       y       z     vdW  Elec       q    Type
REMARK                         _______ _______ _______ _____ _____    ______ ____
ROOT
ATOM      1  C   UNL     1       2.216   7.155  18.078  0.00  0.00    +0.000 C 
ENDROOT
BRANCH   1   8
ATOM      2  C   UNL     1       5.294   6.598  16.955  0.00  0.00    +0.000 C 
ATOM      3  C   UNL     1       4.492   5.810  17.927  0.00  0.00    +0.000 A 
ATOM      4  N   UNL     1       5.003   4.703  18.467  0.00  0.00    +0.000 NA
ATOM      5  N   UNL     1       4.036   4.243  19.281  0.00  0.00    +0.000 N 
ATOM      6  C   UNL     1       2.910   5.015  19.271  0.00  0.00    +0.000 A 
ATOM      7  C   UNL     1       1.650   4.766  20.025  0.00  0.00    +0.000 C 
ATOM      8  C   UNL     1       3.173   6.058  18.400  0.00  0.00    +0.000 A 
BRANCH   5   9
ATOM      9  C   UNL     1       4.301   3.020  20.016  0.00  0.00    +0.000 C 
BRANCH   9  10
ATOM     10  C   UNL     1       4.150   1.762  19.169  0.00  0.00    +0.000 C 
BRANCH  10  11
ATOM     11  C   UNL     1       3.047   1.884  18.210  0.00  0.00    +0.000 C 
ATOM     12  N   UNL     1       2.159   2.006  17.470  0.00  0.00    +0.000 NA
ENDBRANCH  10  11
ENDBRANCH   9  10
ENDBRANCH   5   9
ENDBRANCH   1   8
BRANCH   1  13
ATOM     13  C   UNL     1       2.169   8.296  19.080  0.00  0.00    +0.000 C 
BRANCH  13  14
ATOM     14  C   UNL     1       1.544   9.597  18.590  0.00  0.00    +0.000 C 
ATOM     15  O   UNL     1       1.882  10.128  17.529  0.00  0.00    +0.000 OA
ATOM     16  N   UNL     1       0.561  10.149  19.407  0.00  0.00    +0.000 N 
ATOM     17  C   UNL     1       0.017   9.488  20.583  0.00  0.00    +0.000 C 
BRANCH  16  18
ATOM     18  C   UNL     1      -0.096  11.383  18.975  0.00  0.00    +0.000 C 
BRANCH  18  19
ATOM     19  C   UNL     1      -1.486  11.140  18.438  0.00  0.00    +0.000 A 
ATOM     20  C   UNL     1      -2.665  11.838  18.879  0.00  0.00    +0.000 A 
ATOM     21  C   UNL     1      -3.791  11.496  18.154  0.00  0.00    +0.000 A 
ATOM     22  S   UNL     1      -3.446  10.338  16.950  0.00  0.00    +0.000 S 
ATOM     23  C   UNL     1      -1.793  10.295  17.383  0.00  0.00    +0.000 A 
ENDBRANCH  18  19
ENDBRANCH  16  18
ENDBRANCH  13  14
ENDBRANCH   1  13
TORSDOF 8
ENDMDL
MODEL 7
REMARK VINA RESULT:      -5.9      2.567      3.172
REMARK  Name = 
REMARK  11 active torsions:
REMARK  status: ('A' for Active; 'I' for Inactive)
REMARK    1  A    between atoms: C_1  and  C_2
REMARK    2  A    between atoms: N_4  and  C_5
REMARK    3  A    between atoms: C_5  and  C_6
REMARK    4  A    between atoms: C_6  and  C_7
REMARK    5  A    between atoms: C_9  and  C_10
REMARK    6  A    between atoms: C_11  and  C_12
REMARK    7  A    between atoms: C_12  and  C_13
REMARK    8  A    between atoms: C_13  and  C_14
REMARK    9  A    between atoms: N_16  and  C_17
REMARK   10  A    between atoms: N_16  and  C_18
REMARK   11  A    between atoms: C_18  and  C_19
REMARK                            x       y       z     vdW  Elec       q    Type
REMARK                         _______ _______ _______ _____ _____    ______ ____
ROOT
ATOM      1  C   UNL     1       2.093   6.929  20.829  0.00  0.00    +0.000 C 
ENDROOT
BRANCH   1   8
ATOM      2  C   UNL     1       3.279   7.385  17.758  0.00  0.00    +0.000 C 
ATOM      3  C   UNL     1       2.757   6.144  18.389  0.00  0.00    +0.000 A 
ATOM      4  N   UNL     1       2.717   5.010  17.690  0.00  0.00    +0.000 NA
ATOM      5  N   UNL     1       2.200   4.104  18.538  0.00  0.00    +0.000 N 
ATOM      6  C   UNL     1       1.892   4.625  19.762  0.00  0.00    +0.000 A 
ATOM      7  C   UNL     1       1.273   3.905  20.910  0.00  0.00    +0.000 C 
ATOM      8  C   UNL     1       2.251   5.961  19.706  0.00  0.00    +0.000 A 
BRANCH   5   9
ATOM      9  C   UNL     1       2.023   2.748  18.050  0.00  0.00    +0.000 C 
BRANCH   9  10
ATOM     10  C   UNL     1       3.327   1.966  17.956  0.00  0.00    +0.000 C 
BRANCH  10  11
ATOM     11  C   UNL     1       4.086   2.025  19.210  0.00  0.00    +0.000 C 
ATOM     12  N   UNL     1       4.715   2.061  20.187  0.00  0.00    +0.000 NA
ENDBRANCH  10  11
ENDBRANCH   9  10
ENDBRANCH   5   9
ENDBRANCH   1   8
BRANCH   1  13
ATOM     13  C   UNL     1       0.761   7.657  20.882  0.00  0.00    +0.000 C 
BRANCH  13  14
ATOM     14  C   UNL     1       0.793   9.144  20.546  0.00  0.00    +0.000 C 
ATOM     15  O   UNL     1       1.207   9.562  19.462  0.00  0.00    +0.000 OA
ATOM     16  N   UNL     1       0.319  10.004  21.532  0.00  0.00    +0.000 N 
ATOM     17  C   UNL     1      -0.322   9.558  22.759  0.00  0.00    +0.000 C 
BRANCH  16  18
ATOM     18  C   UNL     1       0.298  11.441  21.257  0.00  0.00    +0.000 C 
BRANCH  18  19
ATOM     19  C   UNL     1      -1.060  11.923  20.806  0.00  0.00    +0.000 A 
ATOM     20  C   UNL     1      -1.630  11.660  19.510  0.00  0.00    +0.000 A 
ATOM     21  C   UNL     1      -2.924  12.128  19.390  0.00  0.00    +0.000 A 
ATOM     22  S   UNL     1      -3.463  12.886  20.821  0.00  0.00    +0.000 S 
ATOM     23  C   UNL     1      -1.976  12.585  21.608  0.00  0.00    +0.000 A 
ENDBRANCH  18  19
ENDBRANCH  16  18
ENDBRANCH  13  14
ENDBRANCH   1  13
TORSDOF 8
ENDMDL
MODEL 8
REMARK VINA RESULT:      -5.9      3.582      8.428
REMARK  Name = 
REMARK  11 active torsions:
REMARK  status: ('A' for Active; 'I' for Inactive)
REMARK    1  A    between atoms: C_1  and  C_2
REMARK    2  A    between atoms: N_4  and  C_5
REMARK    3  A    between atoms: C_5  and  C_6
REMARK    4  A    between atoms: C_6  and  C_7
REMARK    5  A    between atoms: C_9  and  C_10
REMARK    6  A    between atoms: C_11  and  C_12
REMARK    7  A    between atoms: C_12  and  C_13
REMARK    8  A    between atoms: C_13  and  C_14
REMARK    9  A    between atoms: N_16  and  C_17
REMARK   10  A    between atoms: N_16  and  C_18
REMARK   11  A    between atoms: C_18  and  C_19
REMARK                            x       y       z     vdW  Elec       q    Type
REMARK                         _______ _______ _______ _____ _____    ______ ____
ROOT
ATOM      1  C   UNL     1       0.626   9.726  17.904  0.00  0.00    +0.000 C 
ENDROOT
BRANCH   1   8
ATOM      2  C   UNL     1      -2.683   9.775  17.598  0.00  0.00    +0.000 C 
ATOM      3  C   UNL     1      -1.809  10.588  18.484  0.00  0.00    +0.000 A 
ATOM      4  N   UNL     1      -2.349  11.496  19.297  0.00  0.00    +0.000 NA
ATOM      5  N   UNL     1      -1.303  12.044  19.940  0.00  0.00    +0.000 N 
ATOM      6  C   UNL     1      -0.101  11.523  19.555  0.00  0.00    +0.000 A 
ATOM      7  C   UNL     1       1.246  11.932  20.041  0.00  0.00    +0.000 C 
ATOM      8  C   UNL     1      -0.392  10.560  18.606  0.00  0.00    +0.000 A 
BRANCH   5   9
ATOM      9  C   UNL     1      -1.580  13.092  20.906  0.00  0.00    +0.000 C 
BRANCH   9  10
ATOM     10  C   UNL     1      -2.142  12.567  22.222  0.00  0.00    +0.000 C 
BRANCH  10  11
ATOM     11  C   UNL     1      -1.286  11.525  22.799  0.00  0.00    +0.000 C 
ATOM     12  N   UNL     1      -0.600  10.720  23.282  0.00  0.00    +0.000 NA
ENDBRANCH  10  11
ENDBRANCH   9  10
ENDBRANCH   5   9
ENDBRANCH   1   8
BRANCH   1  13
ATOM     13  C   UNL     1       1.456   8.820  18.798  0.00  0.00    +0.000 C 
BRANCH  13  14
ATOM     14  C   UNL     1       2.491   7.947  18.096  0.00  0.00    +0.000 C 
ATOM     15  O   UNL     1       3.047   8.298  17.053  0.00  0.00    +0.000 OA
ATOM     16  N   UNL     1       2.777   6.729  18.707  0.00  0.00    +0.000 N 
ATOM     17  C   UNL     1       2.270   6.335  20.012  0.00  0.00    +0.000 C 
BRANCH  16  18
ATOM     18  C   UNL     1       3.783   5.859  18.096  0.00  0.00    +0.000 C 
BRANCH  18  19
ATOM     19  C   UNL     1       3.428   4.396  18.209  0.00  0.00    +0.000 A 
ATOM     20  C   UNL     1       2.322   3.771  17.531  0.00  0.00    +0.000 A 
ATOM     21  C   UNL     1       2.280   2.404  17.727  0.00  0.00    +0.000 A 
ATOM     22  S   UNL     1       3.555   1.862  18.724  0.00  0.00    +0.000 S 
ATOM     23  C   UNL     1       4.173   3.447  18.890  0.00  0.00    +0.000 A 
ENDBRANCH  18  19
ENDBRANCH  16  18
ENDBRANCH  13  14
ENDBRANCH   1  13
TORSDOF 8
ENDMDL
MODEL 9
REMARK VINA RESULT:      -5.9      2.164      3.216
REMARK  Name = 
REMARK  11 active torsions:
REMARK  status: ('A' for Active; 'I' for Inactive)
REMARK    1  A    between atoms: C_1  and  C_2
REMARK    2  A    between atoms: N_4  and  C_5
REMARK    3  A    between atoms: C_5  and  C_6
REMARK    4  A    between atoms: C_6  and  C_7
REMARK    5  A    between atoms: C_9  and  C_10
REMARK    6  A    between atoms: C_11  and  C_12
REMARK    7  A    between atoms: C_12  and  C_13
REMARK    8  A    between atoms: C_13  and  C_14
REMARK    9  A    between atoms: N_16  and  C_17
REMARK   10  A    between atoms: N_16  and  C_18
REMARK   11  A    between atoms: C_18  and  C_19
REMARK                            x       y       z     vdW  Elec       q    Type
REMARK                         _______ _______ _______ _____ _____    ______ ____
ROOT
ATOM      1  C   UNL     1       2.742   7.981  18.244  0.00  0.00    +0.000 C 
ENDROOT
BRANCH   1   8
ATOM      2  C   UNL     1       1.376   8.199  21.266  0.00  0.00    +0.000 C 
ATOM      3  C   UNL     1       1.673   6.990  20.454  0.00  0.00    +0.000 A 
ATOM      4  N   UNL     1       1.389   5.780  20.937  0.00  0.00    +0.000 NA
ATOM      5  N   UNL     1       1.779   4.927  19.972  0.00  0.00    +0.000 N 
ATOM      6  C   UNL     1       2.319   5.554  18.886  0.00  0.00    +0.000 A 
ATOM      7  C   UNL     1       2.879   4.904  17.668  0.00  0.00    +0.000 C 
ATOM      8  C   UNL     1       2.260   6.908  19.161  0.00  0.00    +0.000 A 
BRANCH   5   9
ATOM      9  C   UNL     1       1.601   3.507  20.216  0.00  0.00    +0.000 C 
BRANCH   9  10
ATOM     10  C   UNL     1       2.570   2.947  21.250  0.00  0.00    +0.000 C 
BRANCH  10  11
ATOM     11  C   UNL     1       3.824   2.504  20.632  0.00  0.00    +0.000 C 
ATOM     12  N   UNL     1       4.800   2.136  20.117  0.00  0.00    +0.000 NA
ENDBRANCH  10  11
ENDBRANCH   9  10
ENDBRANCH   5   9
ENDBRANCH   1   8
BRANCH   1  13
ATOM     13  C   UNL     1       1.657   8.834  17.609  0.00  0.00    +0.000 C 
BRANCH  13  14
ATOM     14  C   UNL     1       1.534  10.263  18.129  0.00  0.00    +0.000 C 
ATOM     15  O   UNL     1       2.512  11.005  18.244  0.00  0.00    +0.000 OA
ATOM     16  N   UNL     1       0.249  10.685  18.458  0.00  0.00    +0.000 N 
ATOM     17  C   UNL     1      -0.953   9.909  18.196  0.00  0.00    +0.000 C 
BRANCH  16  18
ATOM     18  C   UNL     1       0.063  12.056  18.935  0.00  0.00    +0.000 C 
BRANCH  18  19
ATOM     19  C   UNL     1      -0.614  12.111  20.283  0.00  0.00    +0.000 A 
ATOM     20  C   UNL     1      -1.934  12.642  20.512  0.00  0.00    +0.000 A 
ATOM     21  C   UNL     1      -2.355  12.482  21.818  0.00  0.00    +0.000 A 
ATOM     22  S   UNL     1      -1.177  11.702  22.776  0.00  0.00    +0.000 S 
ATOM     23  C   UNL     1      -0.106  11.568  21.452  0.00  0.00    +0.000 A 
ENDBRANCH  18  19
ENDBRANCH  16  18
ENDBRANCH  13  14
ENDBRANCH   1  13
TORSDOF 8
ENDMDL
