MODEL 1
REMARK VINA RESULT:      -6.5      0.000      0.000
REMARK  Name = 
REMARK  5 active torsions:
REMARK  status: ('A' for Active; 'I' for Inactive)
REMARK    1  A    between atoms: C_1  and  C_2
REMARK    2  A    between atoms: N_4  and  C_5
REMARK    3  A    between atoms: C_8  and  N_9
REMARK    4  A    between atoms: C_10  and  C_12
REMARK    5  A    between atoms: C_15  and  C_16
REMARK                            x       y       z     vdW  Elec       q    Type
REMARK                         _______ _______ _______ _____ _____    ______ ____
ROOT
ATOM      1  N   UNL     1       3.001   7.065  18.732  0.00  0.00    +0.000 N 
ATOM      2  C   UNL     1       2.145   7.186  19.815  0.00  0.00    +0.000 C 
ATOM      3  O   UNL     1       2.065   6.303  20.663  0.00  0.00    +0.000 OA
ATOM      4  H   UNL     1       3.090   7.859  18.112  0.00  0.00    +0.000 HD
ENDROOT
BRANCH   1  10
ATOM      5  C   UNL     1       2.085   4.102  17.905  0.00  0.00    +0.000 C 
ATOM      6  C   UNL     1       3.248   4.960  17.423  0.00  0.00    +0.000 C 
ATOM      7  C   UNL     1       4.454   4.113  17.010  0.00  0.00    +0.000 C 
ATOM      8  N   UNL     1       5.642   4.971  17.248  0.00  0.00    +0.000 N 
ATOM      9  C   UNL     1       5.218   6.197  17.974  0.00  0.00    +0.000 C 
ATOM     10  C   UNL     1       3.815   5.880  18.510  0.00  0.00    +0.000 C 
BRANCH   8  11
ATOM     11  C   UNL     1       6.909   4.566  17.109  0.00  0.00    +0.000 C 
ATOM     12  N   UNL     1       8.012   4.231  16.993  0.00  0.00    +0.000 NA
ENDBRANCH   8  11
ENDBRANCH   1  10
BRANCH   2  13
ATOM     13  C   UNL     1       1.387   8.419  19.881  0.00  0.00    +0.000 A 
ATOM     14  C   UNL     1       1.234   9.398  18.914  0.00  0.00    +0.000 A 
ATOM     15  N   UNL     1       0.440  10.475  19.271  0.00  0.00    +0.000 NA
ATOM     16  C   UNL     1      -0.042  10.307  20.488  0.00  0.00    +0.000 A 
ATOM     17  S   UNL     1       0.510   8.877  21.276  0.00  0.00    +0.000 S 
BRANCH  16  18
ATOM     18  C   UNL     1      -0.957  11.231  21.183  0.00  0.00    +0.000 A 
ATOM     19  C   UNL     1      -1.106  11.214  22.581  0.00  0.00    +0.000 A 
ATOM     20  C   UNL     1      -1.992  12.078  23.225  0.00  0.00    +0.000 A 
ATOM     21  C   UNL     1      -2.749  12.977  22.480  0.00  0.00    +0.000 A 
ATOM     22  C   UNL     1      -2.613  13.016  21.093  0.00  0.00    +0.000 A 
ATOM     23  C   UNL     1      -1.726  12.146  20.449  0.00  0.00    +0.000 A 
ENDBRANCH  16  18
ENDBRANCH   2  13
TORSDOF 4
ENDMDL
MODEL 2
REMARK VINA RESULT:      -6.4      1.182      1.590
REMARK  Name = 
REMARK  5 active torsions:
REMARK  status: ('A' for Active; 'I' for Inactive)
REMARK    1  A    between atoms: C_1  and  C_2
REMARK    2  A    between atoms: N_4  and  C_5
REMARK    3  A    between atoms: C_8  and  N_9
REMARK    4  A    between atoms: C_10  and  C_12
REMARK    5  A    between atoms: C_15  and  C_16
REMARK                            x       y       z     vdW  Elec       q    Type
REMARK                         _______ _______ _______ _____ _____    ______ ____
ROOT
ATOM      1  N   UNL     1       2.877   6.480  19.078  0.00  0.00    +0.000 N 
ATOM      2  C   UNL     1       2.763   7.595  18.263  0.00  0.00    +0.000 C 
ATOM      3  O   UNL     1       3.418   7.696  17.230  0.00  0.00    +0.000 OA
ATOM      4  H   UNL     1       2.250   6.411  19.870  0.00  0.00    +0.000 HD
ENDROOT
BRANCH   1  10
ATOM      5  C   UNL     1       2.318   3.691  17.592  0.00  0.00    +0.000 C 
ATOM      6  C   UNL     1       3.479   4.672  17.475  0.00  0.00    +0.000 C 
ATOM      7  C   UNL     1       4.793   3.968  17.128  0.00  0.00    +0.000 C 
ATOM      8  N   UNL     1       5.863   4.814  17.713  0.00  0.00    +0.000 N 
ATOM      9  C   UNL     1       5.243   5.863  18.564  0.00  0.00    +0.000 C 
ATOM     10  C   UNL     1       3.799   5.393  18.789  0.00  0.00    +0.000 C 
BRANCH   8  11
ATOM     11  C   UNL     1       7.162   4.495  17.720  0.00  0.00    +0.000 C 
ATOM     12  N   UNL     1       8.284   4.206  17.716  0.00  0.00    +0.000 NA
ENDBRANCH   8  11
ENDBRANCH   1  10
BRANCH   2  13
ATOM     13  C   UNL     1       1.815   8.600  18.701  0.00  0.00    +0.000 A 
ATOM     14  C   UNL     1       1.146   9.550  17.948  0.00  0.00    +0.000 A 
ATOM     15  N   UNL     1       0.295  10.384  18.653  0.00  0.00    +0.000 NA
ATOM     16  C   UNL     1       0.282  10.053  19.930  0.00  0.00    +0.000 A 
ATOM     17  S   UNL     1       1.360   8.772  20.339  0.00  0.00    +0.000 S 
BRANCH  16  18
ATOM     18  C   UNL     1      -0.537  10.695  20.974  0.00  0.00    +0.000 A 
ATOM     19  C   UNL     1      -1.327  11.827  20.706  0.00  0.00    +0.000 A 
ATOM     20  C   UNL     1      -2.080  12.439  21.708  0.00  0.00    +0.000 A 
ATOM     21  C   UNL     1      -2.057  11.929  23.002  0.00  0.00    +0.000 A 
ATOM     22  C   UNL     1      -1.286  10.803  23.290  0.00  0.00    +0.000 A 
ATOM     23  C   UNL     1      -0.529  10.193  22.284  0.00  0.00    +0.000 A 
ENDBRANCH  16  18
ENDBRANCH   2  13
TORSDOF 4
ENDMDL
MODEL 3
REMARK VINA RESULT:      -6.4      0.150      1.038
REMARK  Name = 
REMARK  5 active torsions:
REMARK  status: ('A' for Active; 'I' for Inactive)
REMARK    1  A    between atoms: C_1  and  C_2
REMARK    2  A    between atoms: N_4  and  C_5
REMARK    3  A    between atoms: C_8  and  N_9
REMARK    4  A    between atoms: C_10  and  C_12
REMARK    5  A    between atoms: C_15  and  C_16
REMARK                            x       y       z     vdW  Elec       q    Type
REMARK                         _______ _______ _______ _____ _____    ______ ____
ROOT
ATOM      1  N   UNL     1       2.968   7.142  18.672  0.00  0.00    +0.000 N 
ATOM      2  C   UNL     1       2.145   7.307  19.774  0.00  0.00    +0.000 C 
ATOM      3  O   UNL     1       2.094   6.461  20.662  0.00  0.00    +0.000 OA
ATOM      4  H   UNL     1       3.034   7.909  18.015  0.00  0.00    +0.000 HD
ENDROOT
BRANCH   1  10
ATOM      5  C   UNL     1       2.048   4.164  17.907  0.00  0.00    +0.000 C 
ATOM      6  C   UNL     1       3.213   5.009  17.408  0.00  0.00    +0.000 C 
ATOM      7  C   UNL     1       4.419   4.152  17.016  0.00  0.00    +0.000 C 
ATOM      8  N   UNL     1       5.608   5.013  17.237  0.00  0.00    +0.000 N 
ATOM      9  C   UNL     1       5.185   6.255  17.936  0.00  0.00    +0.000 C 
ATOM     10  C   UNL     1       3.781   5.951  18.476  0.00  0.00    +0.000 C 
BRANCH   8  11
ATOM     11  C   UNL     1       6.874   4.603  17.109  0.00  0.00    +0.000 C 
ATOM     12  N   UNL     1       7.976   4.263  17.001  0.00  0.00    +0.000 NA
ENDBRANCH   8  11
ENDBRANCH   1  10
BRANCH   2  13
ATOM     13  C   UNL     1       1.382   8.539  19.810  0.00  0.00    +0.000 A 
ATOM     14  C   UNL     1       1.246   9.505  18.828  0.00  0.00    +0.000 A 
ATOM     15  N   UNL     1       0.444  10.585  19.156  0.00  0.00    +0.000 NA
ATOM     16  C   UNL     1      -0.060  10.432  20.365  0.00  0.00    +0.000 A 
ATOM     17  S   UNL     1       0.480   9.014  21.182  0.00  0.00    +0.000 S 
BRANCH  16  18
ATOM     18  C   UNL     1      -0.989  11.363  21.032  0.00  0.00    +0.000 A 
ATOM     19  C   UNL     1      -1.770  12.278  20.304  0.00  0.00    +0.000 A 
ATOM     20  C   UNL     1      -2.629  13.170  20.948  0.00  0.00    +0.000 A 
ATOM     21  C   UNL     1      -2.722  13.163  22.337  0.00  0.00    +0.000 A 
ATOM     22  C   UNL     1      -1.962  12.259  23.078  0.00  0.00    +0.000 A 
ATOM     23  C   UNL     1      -1.099  11.368  22.430  0.00  0.00    +0.000 A 
ENDBRANCH  16  18
ENDBRANCH   2  13
TORSDOF 4
ENDMDL
MODEL 4
REMARK VINA RESULT:      -6.4      1.145      1.197
REMARK  Name = 
REMARK  5 active torsions:
REMARK  status: ('A' for Active; 'I' for Inactive)
REMARK    1  A    between atoms: C_1  and  C_2
REMARK    2  A    between atoms: N_4  and  C_5
REMARK    3  A    between atoms: C_8  and  N_9
REMARK    4  A    between atoms: C_10  and  C_12
REMARK    5  A    between atoms: C_15  and  C_16
REMARK                            x       y       z     vdW  Elec       q    Type
REMARK                         _______ _______ _______ _____ _____    ______ ____
ROOT
ATOM      1  N   UNL     1       2.800   6.548  19.027  0.00  0.00    +0.000 N 
ATOM      2  C   UNL     1       2.695   7.671  18.221  0.00  0.00    +0.000 C 
ATOM      3  O   UNL     1       3.344   7.771  17.184  0.00  0.00    +0.000 OA
ATOM      4  H   UNL     1       2.178   6.482  19.823  0.00  0.00    +0.000 HD
ENDROOT
BRANCH   1  10
ATOM      5  C   UNL     1       2.138   3.656  17.803  0.00  0.00    +0.000 C 
ATOM      6  C   UNL     1       3.266   4.635  17.501  0.00  0.00    +0.000 C 
ATOM      7  C   UNL     1       4.550   3.920  17.073  0.00  0.00    +0.000 C 
ATOM      8  N   UNL     1       5.660   4.814  17.487  0.00  0.00    +0.000 N 
ATOM      9  C   UNL     1       5.112   5.915  18.321  0.00  0.00    +0.000 C 
ATOM     10  C   UNL     1       3.705   5.451  18.723  0.00  0.00    +0.000 C 
BRANCH   8  11
ATOM     11  C   UNL     1       6.957   4.507  17.386  0.00  0.00    +0.000 C 
ATOM     12  N   UNL     1       8.084   4.247  17.313  0.00  0.00    +0.000 NA
ENDBRANCH   8  11
ENDBRANCH   1  10
BRANCH   2  13
ATOM     13  C   UNL     1       1.764   8.685  18.674  0.00  0.00    +0.000 A 
ATOM     14  C   UNL     1       1.120   9.663  17.936  0.00  0.00    +0.000 A 
ATOM     15  N   UNL     1       0.280  10.499  18.653  0.00  0.00    +0.000 NA
ATOM     16  C   UNL     1       0.252  10.142  19.923  0.00  0.00    +0.000 A 
ATOM     17  S   UNL     1       1.301   8.832  20.312  0.00  0.00    +0.000 S 
BRANCH  16  18
ATOM     18  C   UNL     1      -0.562  10.778  20.974  0.00  0.00    +0.000 A 
ATOM     19  C   UNL     1      -0.538  10.327  22.306  0.00  0.00    +0.000 A 
ATOM     20  C   UNL     1      -1.330  10.923  23.288  0.00  0.00    +0.000 A 
ATOM     21  C   UNL     1      -2.166  11.985  22.954  0.00  0.00    +0.000 A 
ATOM     22  C   UNL     1      -2.201  12.453  21.642  0.00  0.00    +0.000 A 
ATOM     23  C   UNL     1      -1.408  11.852  20.658  0.00  0.00    +0.000 A 
ENDBRANCH  16  18
ENDBRANCH   2  13
TORSDOF 4
ENDMDL
MODEL 5
REMARK VINA RESULT:      -6.3      1.981      2.762
REMARK  Name = 
REMARK  5 active torsions:
REMARK  status: ('A' for Active; 'I' for Inactive)
REMARK    1  A    between atoms: C_1  and  C_2
REMARK    2  A    between atoms: N_4  and  C_5
REMARK    3  A    between atoms: C_8  and  N_9
REMARK    4  A    between atoms: C_10  and  C_12
REMARK    5  A    between atoms: C_15  and  C_16
REMARK                            x       y       z     vdW  Elec       q    Type
REMARK                         _______ _______ _______ _____ _____    ______ ____
ROOT
ATOM      1  N   UNL     1       4.599   7.211  17.383  0.00  0.00    +0.000 N 
ATOM      2  C   UNL     1       3.344   6.805  17.811  0.00  0.00    +0.000 C 
ATOM      3  O   UNL     1       2.986   5.636  17.710  0.00  0.00    +0.000 OA
ATOM      4  H   UNL     1       4.873   8.167  17.570  0.00  0.00    +0.000 HD
ENDROOT
BRANCH   1  10
ATOM      5  C   UNL     1       6.498   5.009  18.743  0.00  0.00    +0.000 C 
ATOM      6  C   UNL     1       5.643   4.952  17.483  0.00  0.00    +0.000 C 
ATOM      7  C   UNL     1       6.242   4.022  16.424  0.00  0.00    +0.000 C 
ATOM      8  N   UNL     1       5.788   4.562  15.118  0.00  0.00    +0.000 N 
ATOM      9  C   UNL     1       5.130   5.877  15.338  0.00  0.00    +0.000 C 
ATOM     10  C   UNL     1       5.541   6.298  16.756  0.00  0.00    +0.000 C 
BRANCH   8  11
ATOM     11  C   UNL     1       6.179   4.094  13.928  0.00  0.00    +0.000 C 
ATOM     12  N   UNL     1       6.532   3.685  12.903  0.00  0.00    +0.000 NA
ENDBRANCH   8  11
ENDBRANCH   1  10
BRANCH   2  13
ATOM     13  C   UNL     1       2.515   7.840  18.396  0.00  0.00    +0.000 A 
ATOM     14  C   UNL     1       2.043   9.005  17.816  0.00  0.00    +0.000 A 
ATOM     15  N   UNL     1       1.265   9.810  18.632  0.00  0.00    +0.000 NA
ATOM     16  C   UNL     1       1.112   9.249  19.817  0.00  0.00    +0.000 A 
ATOM     17  S   UNL     1       1.968   7.766  20.013  0.00  0.00    +0.000 S 
BRANCH  16  18
ATOM     18  C   UNL     1       0.314   9.797  20.928  0.00  0.00    +0.000 A 
ATOM     19  C   UNL     1      -0.405  10.999  20.803  0.00  0.00    +0.000 A 
ATOM     20  C   UNL     1      -1.138  11.520  21.869  0.00  0.00    +0.000 A 
ATOM     21  C   UNL     1      -1.165  10.846  23.087  0.00  0.00    +0.000 A 
ATOM     22  C   UNL     1      -0.465   9.649  23.232  0.00  0.00    +0.000 A 
ATOM     23  C   UNL     1       0.272   9.130  22.162  0.00  0.00    +0.000 A 
ENDBRANCH  16  18
ENDBRANCH   2  13
TORSDOF 4
ENDMDL
MODEL 6
REMARK VINA RESULT:      -6.3      1.249      1.351
REMARK  Name = 
REMARK  5 active torsions:
REMARK  status: ('A' for Active; 'I' for Inactive)
REMARK    1  A    between atoms: C_1  and  C_2
REMARK    2  A    between atoms: N_4  and  C_5
REMARK    3  A    between atoms: C_8  and  N_9
REMARK    4  A    between atoms: C_10  and  C_12
REMARK    5  A    between atoms: C_15  and  C_16
REMARK                            x       y       z     vdW  Elec       q    Type
REMARK                         _______ _______ _______ _____ _____    ______ ____
ROOT
ATOM      1  N   UNL     1       2.673   6.250  19.967  0.00  0.00    +0.000 N 
ATOM      2  C   UNL     1       2.305   7.482  19.449  0.00  0.00    +0.000 C 
ATOM      3  O   UNL     1       2.626   7.815  18.312  0.00  0.00    +0.000 OA
ATOM      4  H   UNL     1       2.309   5.995  20.875  0.00  0.00    +0.000 HD
ENDROOT
BRANCH   1  10
ATOM      5  C   UNL     1       1.780   4.121  17.739  0.00  0.00    +0.000 C 
ATOM      6  C   UNL     1       2.975   5.063  17.798  0.00  0.00    +0.000 C 
ATOM      7  C   UNL     1       4.197   4.491  17.074  0.00  0.00    +0.000 C 
ATOM      8  N   UNL     1       5.376   5.075  17.759  0.00  0.00    +0.000 N 
ATOM      9  C   UNL     1       4.922   5.795  18.978  0.00  0.00    +0.000 C 
ATOM     10  C   UNL     1       3.489   5.304  19.223  0.00  0.00    +0.000 C 
BRANCH   8  11
ATOM     11  C   UNL     1       6.645   4.749  17.494  0.00  0.00    +0.000 C 
ATOM     12  N   UNL     1       7.750   4.479  17.273  0.00  0.00    +0.000 NA
ENDBRANCH   8  11
ENDBRANCH   1  10
BRANCH   2  13
ATOM     13  C   UNL     1       1.510   8.320  20.324  0.00  0.00    +0.000 A 
ATOM     14  C   UNL     1       1.313   8.207  21.690  0.00  0.00    +0.000 A 
ATOM     15  N   UNL     1       0.491   9.166  22.258  0.00  0.00    +0.000 NA
ATOM     16  C   UNL     1       0.090  10.028  21.343  0.00  0.00    +0.000 A 
ATOM     17  S   UNL     1       0.630   9.666  19.747  0.00  0.00    +0.000 S 
BRANCH  16  18
ATOM     18  C   UNL     1      -0.763  11.205  21.589  0.00  0.00    +0.000 A 
ATOM     19  C   UNL     1      -1.210  11.540  22.879  0.00  0.00    +0.000 A 
ATOM     20  C   UNL     1      -2.036  12.644  23.095  0.00  0.00    +0.000 A 
ATOM     21  C   UNL     1      -2.433  13.435  22.021  0.00  0.00    +0.000 A 
ATOM     22  C   UNL     1      -1.995  13.125  20.733  0.00  0.00    +0.000 A 
ATOM     23  C   UNL     1      -1.170  12.016  20.519  0.00  0.00    +0.000 A 
ENDBRANCH  16  18
ENDBRANCH   2  13
TORSDOF 4
ENDMDL
MODEL 7
REMARK VINA RESULT:      -6.3      2.000      2.516
REMARK  Name = 
REMARK  5 active torsions:
REMARK  status: ('A' for Active; 'I' for Inactive)
REMARK    1  A    between atoms: C_1  and  C_2
REMARK    2  A    between atoms: N_4  and  C_5
REMARK    3  A    between atoms: C_8  and  N_9
REMARK    4  A    between atoms: C_10  and  C_12
REMARK    5  A    between atoms: C_15  and  C_16
REMARK                            x       y       z     vdW  Elec       q    Type
REMARK                         _______ _______ _______ _____ _____    ______ ____
ROOT
ATOM      1  N   UNL     1       4.522   7.017  17.435  0.00  0.00    +0.000 N 
ATOM      2  C   UNL     1       3.231   6.691  17.823  0.00  0.00    +0.000 C 
ATOM      3  O   UNL     1       2.795   5.552  17.684  0.00  0.00    +0.000 OA
ATOM      4  H   UNL     1       4.856   7.947  17.652  0.00  0.00    +0.000 HD
ENDROOT
BRANCH   1  10
ATOM      5  C   UNL     1       5.962   4.453  18.721  0.00  0.00    +0.000 C 
ATOM      6  C   UNL     1       5.264   4.640  17.380  0.00  0.00    +0.000 C 
ATOM      7  C   UNL     1       5.868   3.752  16.289  0.00  0.00    +0.000 C 
ATOM      8  N   UNL     1       5.643   4.479  15.014  0.00  0.00    +0.000 N 
ATOM      9  C   UNL     1       5.128   5.840  15.316  0.00  0.00    +0.000 C 
ATOM     10  C   UNL     1       5.414   6.055  16.808  0.00  0.00    +0.000 C 
BRANCH   8  11
ATOM     11  C   UNL     1       6.113   4.087  13.826  0.00  0.00    +0.000 C 
ATOM     12  N   UNL     1       6.516   3.731  12.799  0.00  0.00    +0.000 NA
ENDBRANCH   8  11
ENDBRANCH   1  10
BRANCH   2  13
ATOM     13  C   UNL     1       2.461   7.767  18.412  0.00  0.00    +0.000 A 
ATOM     14  C   UNL     1       2.069   8.967  17.843  0.00  0.00    +0.000 A 
ATOM     15  N   UNL     1       1.333   9.807  18.662  0.00  0.00    +0.000 NA
ATOM     16  C   UNL     1       1.131   9.242  19.837  0.00  0.00    +0.000 A 
ATOM     17  S   UNL     1       1.890   7.705  20.022  0.00  0.00    +0.000 S 
BRANCH  16  18
ATOM     18  C   UNL     1       0.355   9.824  20.947  0.00  0.00    +0.000 A 
ATOM     19  C   UNL     1       0.330   9.235  22.223  0.00  0.00    +0.000 A 
ATOM     20  C   UNL     1      -0.426   9.783  23.260  0.00  0.00    +0.000 A 
ATOM     21  C   UNL     1      -1.175  10.935  23.037  0.00  0.00    +0.000 A 
ATOM     22  C   UNL     1      -1.161  11.539  21.781  0.00  0.00    +0.000 A 
ATOM     23  C   UNL     1      -0.404  10.986  20.742  0.00  0.00    +0.000 A 
ENDBRANCH  16  18
ENDBRANCH   2  13
TORSDOF 4
ENDMDL
MODEL 8
REMARK VINA RESULT:      -6.3      2.405      9.066
REMARK  Name = 
REMARK  5 active torsions:
REMARK  status: ('A' for Active; 'I' for Inactive)
REMARK    1  A    between atoms: C_1  and  C_2
REMARK    2  A    between atoms: N_4  and  C_5
REMARK    3  A    between atoms: C_8  and  N_9
REMARK    4  A    between atoms: C_10  and  C_12
REMARK    5  A    between atoms: C_15  and  C_16
REMARK                            x       y       z     vdW  Elec       q    Type
REMARK                         _______ _______ _______ _____ _____    ______ ____
ROOT
ATOM      1  N   UNL     1       1.147   9.528  19.111  0.00  0.00    +0.000 N 
ATOM      2  C   UNL     1       1.505   8.513  19.984  0.00  0.00    +0.000 C 
ATOM      3  O   UNL     1       1.171   8.544  21.165  0.00  0.00    +0.000 OA
ATOM      4  H   UNL     1       1.375   9.408  18.132  0.00  0.00    +0.000 HD
ENDROOT
BRANCH   1  10
ATOM      5  C   UNL     1       2.010  12.618  19.033  0.00  0.00    +0.000 C 
ATOM      6  C   UNL     1       0.691  11.940  18.685  0.00  0.00    +0.000 C 
ATOM      7  C   UNL     1      -0.512  12.846  18.957  0.00  0.00    +0.000 C 
ATOM      8  N   UNL     1      -1.639  11.931  19.263  0.00  0.00    +0.000 N 
ATOM      9  C   UNL     1      -1.118  10.545  19.391  0.00  0.00    +0.000 C 
ATOM     10  C   UNL     1       0.402  10.701  19.541  0.00  0.00    +0.000 C 
BRANCH   8  11
ATOM     11  C   UNL     1      -2.853  12.329  19.657  0.00  0.00    +0.000 C 
ATOM     12  N   UNL     1      -3.911  12.670  19.984  0.00  0.00    +0.000 NA
ENDBRANCH   8  11
ENDBRANCH   1  10
BRANCH   2  13
ATOM     13  C   UNL     1       2.266   7.425  19.405  0.00  0.00    +0.000 A 
ATOM     14  C   UNL     1       2.418   6.129  19.868  0.00  0.00    +0.000 A 
ATOM     15  N   UNL     1       3.216   5.304  19.092  0.00  0.00    +0.000 NA
ATOM     16  C   UNL     1       3.643   5.951  18.024  0.00  0.00    +0.000 A 
ATOM     17  S   UNL     1       3.160   7.605  17.959  0.00  0.00    +0.000 S 
BRANCH  16  18
ATOM     18  C   UNL     1       4.482   5.381  16.954  0.00  0.00    +0.000 A 
ATOM     19  C   UNL     1       4.728   4.000  16.861  0.00  0.00    +0.000 A 
ATOM     20  C   UNL     1       5.542   3.475  15.858  0.00  0.00    +0.000 A 
ATOM     21  C   UNL     1       6.129   4.326  14.925  0.00  0.00    +0.000 A 
ATOM     22  C   UNL     1       5.894   5.698  14.994  0.00  0.00    +0.000 A 
ATOM     23  C   UNL     1       5.079   6.222  16.004  0.00  0.00    +0.000 A 
ENDBRANCH  16  18
ENDBRANCH   2  13
TORSDOF 4
ENDMDL
MODEL 9
REMARK VINA RESULT:      -6.2      1.277      1.689
REMARK  Name = 
REMARK  5 active torsions:
REMARK  status: ('A' for Active; 'I' for Inactive)
REMARK    1  A    between atoms: C_1  and  C_2
REMARK    2  A    between atoms: N_4  and  C_5
REMARK    3  A    between atoms: C_8  and  N_9
REMARK    4  A    between atoms: C_10  and  C_12
REMARK    5  A    between atoms: C_15  and  C_16
REMARK                            x       y       z     vdW  Elec       q    Type
REMARK                         _______ _______ _______ _____ _____    ______ ____
ROOT
ATOM      1  N   UNL     1       2.608   6.328  20.039  0.00  0.00    +0.000 N 
ATOM      2  C   UNL     1       2.254   7.570  19.536  0.00  0.00    +0.000 C 
ATOM      3  O   UNL     1       2.569   7.908  18.399  0.00  0.00    +0.000 OA
ATOM      4  H   UNL     1       2.248   6.070  20.949  0.00  0.00    +0.000 HD
ENDROOT
BRANCH   1  10
ATOM      5  C   UNL     1       1.665   4.255  17.778  0.00  0.00    +0.000 C 
ATOM      6  C   UNL     1       2.881   5.170  17.851  0.00  0.00    +0.000 C 
ATOM      7  C   UNL     1       4.088   4.581  17.116  0.00  0.00    +0.000 C 
ATOM      8  N   UNL     1       5.281   5.128  17.809  0.00  0.00    +0.000 N 
ATOM      9  C   UNL     1       4.845   5.839  19.040  0.00  0.00    +0.000 C 
ATOM     10  C   UNL     1       3.402   5.375  19.279  0.00  0.00    +0.000 C 
BRANCH   8  11
ATOM     11  C   UNL     1       6.542   4.778  17.537  0.00  0.00    +0.000 C 
ATOM     12  N   UNL     1       7.641   4.484  17.313  0.00  0.00    +0.000 NA
ENDBRANCH   8  11
ENDBRANCH   1  10
BRANCH   2  13
ATOM     13  C   UNL     1       1.481   8.412  20.426  0.00  0.00    +0.000 A 
ATOM     14  C   UNL     1       1.412   8.381  21.809  0.00  0.00    +0.000 A 
ATOM     15  N   UNL     1       0.577   9.321  22.389  0.00  0.00    +0.000 NA
ATOM     16  C   UNL     1       0.037  10.090  21.462  0.00  0.00    +0.000 A 
ATOM     17  S   UNL     1       0.459   9.654  19.849  0.00  0.00    +0.000 S 
BRANCH  16  18
ATOM     18  C   UNL     1      -0.873  11.222  21.711  0.00  0.00    +0.000 A 
ATOM     19  C   UNL     1      -1.116  12.206  20.736  0.00  0.00    +0.000 A 
ATOM     20  C   UNL     1      -1.963  13.285  20.991  0.00  0.00    +0.000 A 
ATOM     21  C   UNL     1      -2.583  13.402  22.232  0.00  0.00    +0.000 A 
ATOM     22  C   UNL     1      -2.362  12.435  23.211  0.00  0.00    +0.000 A 
ATOM     23  C   UNL     1      -1.510  11.355  22.954  0.00  0.00    +0.000 A 
ENDBRANCH  16  18
ENDBRANCH   2  13
TORSDOF 4
ENDMDL
