MODEL 1
REMARK VINA RESULT:      -8.3      0.000      0.000
REMARK  Name = 
REMARK  5 active torsions:
REMARK  status: ('A' for Active; 'I' for Inactive)
REMARK    1  A    between atoms: C_2  and  C_15
REMARK    2  A    between atoms: N_3  and  C_4
REMARK    3  A    between atoms: C_4  and  C_5
REMARK    4  A    between atoms: C_17  and  C_18
REMARK    5  A    between atoms: C_18  and  N_19
REMARK                            x       y       z     vdW  Elec       q    Type
REMARK                         _______ _______ _______ _____ _____    ______ ____
ROOT
ATOM      1  O   UNL     1       2.866   8.887  17.960  0.00  0.00    +0.000 OA
ATOM      2  C   UNL     1       1.990   8.542  18.746  0.00  0.00    +0.000 C 
ATOM      3  N   UNL     1       1.966   7.285  19.317  0.00  0.00    +0.000 N 
ATOM      4  H   UNL     1       1.144   6.982  19.821  0.00  0.00    +0.000 HD
ENDROOT
BRANCH   2   5
ATOM      5  C   UNL     1       0.929   9.495  19.165  0.00  0.00    +0.000 A 
ATOM      6  C   UNL     1       0.060  10.042  18.197  0.00  0.00    +0.000 A 
ATOM      7  C   UNL     1      -1.076  10.781  18.576  0.00  0.00    +0.000 A 
ATOM      8  C   UNL     1      -1.311  10.979  19.945  0.00  0.00    +0.000 A 
ATOM      9  C   UNL     1      -0.427  10.486  20.907  0.00  0.00    +0.000 A 
ATOM     10  C   UNL     1       0.703   9.760  20.524  0.00  0.00    +0.000 A 
ATOM     11 CL   UNL     1       1.800   9.312  21.784  0.00  0.00    +0.000 Cl
BRANCH   7  12
ATOM     12  C   UNL     1      -2.024  11.439  17.577  0.00  0.00    +0.000 C 
BRANCH  12  13
ATOM     13  N   UNL     1      -2.909  10.530  16.835  0.00  0.00    +0.000 NA
ATOM     14  C   UNL     1      -3.725   9.659  17.707  0.00  0.00    +0.000 C 
ATOM     15  C   UNL     1      -4.951  10.313  18.385  0.00  0.00    +0.000 C 
ATOM     16  N   UNL     1      -5.797  11.114  17.495  0.00  0.00    +0.000 NA
ATOM     17  C   UNL     1      -5.007  11.987  16.625  0.00  0.00    +0.000 C 
ATOM     18  C   UNL     1      -3.821  11.277  15.937  0.00  0.00    +0.000 C 
ATOM     19  H   UNL     1      -6.443  11.674  18.051  0.00  0.00    +0.000 HD
ENDBRANCH  12  13
ENDBRANCH   7  12
ENDBRANCH   2   5
BRANCH   3  20
ATOM     20  C   UNL     1       2.968   6.321  18.919  0.00  0.00    +0.000 C 
BRANCH  20  21
ATOM     21  C   UNL     1       2.604   4.850  19.208  0.00  0.00    +0.000 C 
ATOM     22  C   UNL     1       3.843   4.049  19.684  0.00  0.00    +0.000 C 
ATOM     23  C   UNL     1       3.448   2.607  20.030  0.00  0.00    +0.000 C 
ATOM     24  C   UNL     1       2.397   2.629  21.151  0.00  0.00    +0.000 C 
ATOM     25  C   UNL     1       1.146   3.390  20.690  0.00  0.00    +0.000 C 
ATOM     26  C   UNL     1       0.562   2.715  19.438  0.00  0.00    +0.000 C 
ATOM     27  C   UNL     1       1.607   2.702  18.310  0.00  0.00    +0.000 C 
ATOM     28  C   UNL     1       2.851   1.931  18.783  0.00  0.00    +0.000 C 
ATOM     29  C   UNL     1       2.004   4.147  17.966  0.00  0.00    +0.000 C 
ATOM     30  C   UNL     1       1.540   4.833  20.338  0.00  0.00    +0.000 C 
ENDBRANCH  20  21
ENDBRANCH   3  20
TORSDOF 5
ENDMDL
MODEL 2
REMARK VINA RESULT:      -8.2      0.154      1.372
REMARK  Name = 
REMARK  5 active torsions:
REMARK  status: ('A' for Active; 'I' for Inactive)
REMARK    1  A    between atoms: C_2  and  C_15
REMARK    2  A    between atoms: N_3  and  C_4
REMARK    3  A    between atoms: C_4  and  C_5
REMARK    4  A    between atoms: C_17  and  C_18
REMARK    5  A    between atoms: C_18  and  N_19
REMARK                            x       y       z     vdW  Elec       q    Type
REMARK                         _______ _______ _______ _____ _____    ______ ____
ROOT
ATOM      1  O   UNL     1       2.811   8.950  17.983  0.00  0.00    +0.000 OA
ATOM      2  C   UNL     1       1.946   8.610  18.783  0.00  0.00    +0.000 C 
ATOM      3  N   UNL     1       1.935   7.360  19.370  0.00  0.00    +0.000 N 
ATOM      4  H   UNL     1       1.121   7.058  19.887  0.00  0.00    +0.000 HD
ENDROOT
BRANCH   2   5
ATOM      5  C   UNL     1       0.884   9.562  19.202  0.00  0.00    +0.000 A 
ATOM      6  C   UNL     1       0.027  10.124  18.230  0.00  0.00    +0.000 A 
ATOM      7  C   UNL     1      -1.110  10.862  18.606  0.00  0.00    +0.000 A 
ATOM      8  C   UNL     1      -1.359  11.046  19.975  0.00  0.00    +0.000 A 
ATOM      9  C   UNL     1      -0.487  10.538  20.940  0.00  0.00    +0.000 A 
ATOM     10  C   UNL     1       0.644   9.812  20.561  0.00  0.00    +0.000 A 
ATOM     11 CL   UNL     1       1.726   9.345  21.827  0.00  0.00    +0.000 Cl
BRANCH   7  12
ATOM     12  C   UNL     1      -2.046  11.535  17.605  0.00  0.00    +0.000 C 
BRANCH  12  13
ATOM     13  N   UNL     1      -2.901  10.635  16.818  0.00  0.00    +0.000 NA
ATOM     14  C   UNL     1      -3.669   9.680  17.645  0.00  0.00    +0.000 C 
ATOM     15  C   UNL     1      -4.913  10.241  18.374  0.00  0.00    +0.000 C 
ATOM     16  N   UNL     1      -5.802  11.057  17.542  0.00  0.00    +0.000 NA
ATOM     17  C   UNL     1      -5.060  12.013  16.719  0.00  0.00    +0.000 C 
ATOM     18  C   UNL     1      -3.855  11.395  15.976  0.00  0.00    +0.000 C 
ATOM     19  H   UNL     1      -6.463  11.555  18.138  0.00  0.00    +0.000 HD
ENDBRANCH  12  13
ENDBRANCH   7  12
ENDBRANCH   2   5
BRANCH   3  20
ATOM     20  C   UNL     1       2.939   6.396  18.973  0.00  0.00    +0.000 C 
BRANCH  20  21
ATOM     21  C   UNL     1       2.613   4.933  19.339  0.00  0.00    +0.000 C 
ATOM     22  C   UNL     1       1.703   4.859  20.591  0.00  0.00    +0.000 C 
ATOM     23  C   UNL     1       1.336   3.401  20.900  0.00  0.00    +0.000 C 
ATOM     24  C   UNL     1       0.591   2.804  19.695  0.00  0.00    +0.000 C 
ATOM     25  C   UNL     1       1.487   2.838  18.449  0.00  0.00    +0.000 C 
ATOM     26  C   UNL     1       2.774   2.041  18.715  0.00  0.00    +0.000 C 
ATOM     27  C   UNL     1       3.529   2.643  19.913  0.00  0.00    +0.000 C 
ATOM     28  C   UNL     1       2.623   2.596  21.155  0.00  0.00    +0.000 C 
ATOM     29  C   UNL     1       3.894   4.104  19.604  0.00  0.00    +0.000 C 
ATOM     30  C   UNL     1       1.860   4.296  18.140  0.00  0.00    +0.000 C 
ENDBRANCH  20  21
ENDBRANCH   3  20
TORSDOF 5
ENDMDL
MODEL 3
REMARK VINA RESULT:      -8.2      0.755      1.355
REMARK  Name = 
REMARK  5 active torsions:
REMARK  status: ('A' for Active; 'I' for Inactive)
REMARK    1  A    between atoms: C_2  and  C_15
REMARK    2  A    between atoms: N_3  and  C_4
REMARK    3  A    between atoms: C_4  and  C_5
REMARK    4  A    between atoms: C_17  and  C_18
REMARK    5  A    between atoms: C_18  and  N_19
REMARK                            x       y       z     vdW  Elec       q    Type
REMARK                         _______ _______ _______ _____ _____    ______ ____
ROOT
ATOM      1  O   UNL     1       2.343   8.858  17.835  0.00  0.00    +0.000 OA
ATOM      2  C   UNL     1       1.792   8.622  18.904  0.00  0.00    +0.000 C 
ATOM      3  N   UNL     1       2.098   7.509  19.662  0.00  0.00    +0.000 N 
ATOM      4  H   UNL     1       1.509   7.260  20.445  0.00  0.00    +0.000 HD
ENDROOT
BRANCH   2   5
ATOM      5  C   UNL     1       0.792   9.568  19.467  0.00  0.00    +0.000 A 
ATOM      6  C   UNL     1      -0.122  10.212  18.605  0.00  0.00    +0.000 A 
ATOM      7  C   UNL     1      -1.206  10.948  19.116  0.00  0.00    +0.000 A 
ATOM      8  C   UNL     1      -1.343  11.045  20.509  0.00  0.00    +0.000 A 
ATOM      9  C   UNL     1      -0.413  10.456  21.368  0.00  0.00    +0.000 A 
ATOM     10  C   UNL     1       0.665   9.731  20.854  0.00  0.00    +0.000 A 
ATOM     11 CL   UNL     1       1.829   9.157  21.998  0.00  0.00    +0.000 Cl
BRANCH   7  12
ATOM     12  C   UNL     1      -2.197  11.707  18.238  0.00  0.00    +0.000 C 
BRANCH  12  13
ATOM     13  N   UNL     1      -3.475  11.030  17.976  0.00  0.00    +0.000 NA
ATOM     14  C   UNL     1      -4.270  11.666  16.904  0.00  0.00    +0.000 C 
ATOM     15  C   UNL     1      -3.816  11.392  15.451  0.00  0.00    +0.000 C 
ATOM     16  N   UNL     1      -3.541   9.986  15.144  0.00  0.00    +0.000 NA
ATOM     17  C   UNL     1      -2.750   9.338  16.192  0.00  0.00    +0.000 C 
ATOM     18  C   UNL     1      -3.270   9.606  17.622  0.00  0.00    +0.000 C 
ATOM     19  H   UNL     1      -3.051   9.921  14.252  0.00  0.00    +0.000 HD
ENDBRANCH  12  13
ENDBRANCH   7  12
ENDBRANCH   2   5
BRANCH   3  20
ATOM     20  C   UNL     1       3.051   6.553  19.140  0.00  0.00    +0.000 C 
BRANCH  20  21
ATOM     21  C   UNL     1       2.658   5.074  19.336  0.00  0.00    +0.000 C 
ATOM     22  C   UNL     1       3.903   4.199  19.630  0.00  0.00    +0.000 C 
ATOM     23  C   UNL     1       3.487   2.744  19.888  0.00  0.00    +0.000 C 
ATOM     24  C   UNL     1       2.539   2.700  21.096  0.00  0.00    +0.000 C 
ATOM     25  C   UNL     1       1.281   3.535  20.814  0.00  0.00    +0.000 C 
ATOM     26  C   UNL     1       0.566   2.988  19.567  0.00  0.00    +0.000 C 
ATOM     27  C   UNL     1       1.509   3.042  18.353  0.00  0.00    +0.000 C 
ATOM     28  C   UNL     1       2.760   2.197  18.647  0.00  0.00    +0.000 C 
ATOM     29  C   UNL     1       1.928   4.499  18.097  0.00  0.00    +0.000 C 
ATOM     30  C   UNL     1       1.696   4.991  20.551  0.00  0.00    +0.000 C 
ENDBRANCH  20  21
ENDBRANCH   3  20
TORSDOF 5
ENDMDL
MODEL 4
REMARK VINA RESULT:      -8.2      0.124      1.415
REMARK  Name = 
REMARK  5 active torsions:
REMARK  status: ('A' for Active; 'I' for Inactive)
REMARK    1  A    between atoms: C_2  and  C_15
REMARK    2  A    between atoms: N_3  and  C_4
REMARK    3  A    between atoms: C_4  and  C_5
REMARK    4  A    between atoms: C_17  and  C_18
REMARK    5  A    between atoms: C_18  and  N_19
REMARK                            x       y       z     vdW  Elec       q    Type
REMARK                         _______ _______ _______ _____ _____    ______ ____
ROOT
ATOM      1  O   UNL     1       2.891   8.948  18.020  0.00  0.00    +0.000 OA
ATOM      2  C   UNL     1       1.968   8.580  18.739  0.00  0.00    +0.000 C 
ATOM      3  N   UNL     1       1.879   7.288  19.220  0.00  0.00    +0.000 N 
ATOM      4  H   UNL     1       1.025   6.979  19.664  0.00  0.00    +0.000 HD
ENDROOT
BRANCH   2   5
ATOM      5  C   UNL     1       0.917   9.537  19.173  0.00  0.00    +0.000 A 
ATOM      6  C   UNL     1       0.063  10.119  18.212  0.00  0.00    +0.000 A 
ATOM      7  C   UNL     1      -1.066  10.863  18.601  0.00  0.00    +0.000 A 
ATOM      8  C   UNL     1      -1.308  11.032  19.973  0.00  0.00    +0.000 A 
ATOM      9  C   UNL     1      -0.438  10.504  20.929  0.00  0.00    +0.000 A 
ATOM     10  C   UNL     1       0.684   9.771  20.537  0.00  0.00    +0.000 A 
ATOM     11 CL   UNL     1       1.766   9.278  21.793  0.00  0.00    +0.000 Cl
BRANCH   7  12
ATOM     12  C   UNL     1      -1.998  11.558  17.612  0.00  0.00    +0.000 C 
BRANCH  12  13
ATOM     13  N   UNL     1      -2.857  10.677  16.809  0.00  0.00    +0.000 NA
ATOM     14  C   UNL     1      -3.628   9.709  17.618  0.00  0.00    +0.000 C 
ATOM     15  C   UNL     1      -4.869  10.260  18.358  0.00  0.00    +0.000 C 
ATOM     16  N   UNL     1      -5.756  11.095  17.543  0.00  0.00    +0.000 NA
ATOM     17  C   UNL     1      -5.011  12.064  16.737  0.00  0.00    +0.000 C 
ATOM     18  C   UNL     1      -3.808  11.456  15.982  0.00  0.00    +0.000 C 
ATOM     19  H   UNL     1      -6.415  11.584  18.148  0.00  0.00    +0.000 HD
ENDBRANCH  12  13
ENDBRANCH   7  12
ENDBRANCH   2   5
BRANCH   3  20
ATOM     20  C   UNL     1       2.871   6.321  18.803  0.00  0.00    +0.000 C 
BRANCH  20  21
ATOM     21  C   UNL     1       2.531   4.855  19.147  0.00  0.00    +0.000 C 
ATOM     22  C   UNL     1       2.019   4.092  17.899  0.00  0.00    +0.000 C 
ATOM     23  C   UNL     1       1.750   2.621  18.244  0.00  0.00    +0.000 C 
ATOM     24  C   UNL     1       3.054   1.973  18.735  0.00  0.00    +0.000 C 
ATOM     25  C   UNL     1       3.562   2.694  19.992  0.00  0.00    +0.000 C 
ATOM     26  C   UNL     1       2.495   2.624  21.097  0.00  0.00    +0.000 C 
ATOM     27  C   UNL     1       1.192   3.283  20.612  0.00  0.00    +0.000 C 
ATOM     28  C   UNL     1       0.691   2.547  19.358  0.00  0.00    +0.000 C 
ATOM     29  C   UNL     1       1.463   4.756  20.263  0.00  0.00    +0.000 C 
ATOM     30  C   UNL     1       3.829   4.168  19.650  0.00  0.00    +0.000 C 
ENDBRANCH  20  21
ENDBRANCH   3  20
TORSDOF 5
ENDMDL
MODEL 5
REMARK VINA RESULT:      -7.9      2.915      3.974
REMARK  Name = 
REMARK  5 active torsions:
REMARK  status: ('A' for Active; 'I' for Inactive)
REMARK    1  A    between atoms: C_2  and  C_15
REMARK    2  A    between atoms: N_3  and  C_4
REMARK    3  A    between atoms: C_4  and  C_5
REMARK    4  A    between atoms: C_17  and  C_18
REMARK    5  A    between atoms: C_18  and  N_19
REMARK                            x       y       z     vdW  Elec       q    Type
REMARK                         _______ _______ _______ _____ _____    ______ ____
ROOT
ATOM      1  O   UNL     1       2.228   8.810  17.348  0.00  0.00    +0.000 OA
ATOM      2  C   UNL     1       1.952   8.706  18.538  0.00  0.00    +0.000 C 
ATOM      3  N   UNL     1       2.370   7.633  19.300  0.00  0.00    +0.000 N 
ATOM      4  H   UNL     1       1.985   7.497  20.225  0.00  0.00    +0.000 HD
ENDROOT
BRANCH   2   5
ATOM      5  C   UNL     1       1.189   9.774  19.236  0.00  0.00    +0.000 A 
ATOM      6  C   UNL     1       1.136  11.071  18.681  0.00  0.00    +0.000 A 
ATOM      7  C   UNL     1       0.264  12.047  19.196  0.00  0.00    +0.000 A 
ATOM      8  C   UNL     1      -0.539  11.703  20.295  0.00  0.00    +0.000 A 
ATOM      9  C   UNL     1      -0.454  10.439  20.883  0.00  0.00    +0.000 A 
ATOM     10  C   UNL     1       0.419   9.477  20.370  0.00  0.00    +0.000 A 
ATOM     11 CL   UNL     1       0.543   7.994  21.253  0.00  0.00    +0.000 Cl
BRANCH   7  12
ATOM     12  C   UNL     1       0.198  13.478  18.673  0.00  0.00    +0.000 C 
BRANCH  12  13
ATOM     13  N   UNL     1       0.425  14.538  19.666  0.00  0.00    +0.000 NA
ATOM     14  C   UNL     1       1.778  15.129  19.599  0.00  0.00    +0.000 C 
ATOM     15  C   UNL     1       2.036  16.135  18.452  0.00  0.00    +0.000 C 
ATOM     16  N   UNL     1       1.001  17.159  18.283  0.00  0.00    +0.000 NA
ATOM     17  C   UNL     1      -0.348  16.592  18.343  0.00  0.00    +0.000 C 
ATOM     18  C   UNL     1      -0.569  15.629  19.530  0.00  0.00    +0.000 C 
ATOM     19  H   UNL     1       1.136  17.635  17.391  0.00  0.00    +0.000 HD
ENDBRANCH  12  13
ENDBRANCH   7  12
ENDBRANCH   2   5
BRANCH   3  20
ATOM     20  C   UNL     1       3.097   6.562  18.654  0.00  0.00    +0.000 C 
BRANCH  20  21
ATOM     21  C   UNL     1       2.659   5.141  19.065  0.00  0.00    +0.000 C 
ATOM     22  C   UNL     1       1.735   4.509  17.993  0.00  0.00    +0.000 C 
ATOM     23  C   UNL     1       1.363   3.073  18.386  0.00  0.00    +0.000 C 
ATOM     24  C   UNL     1       2.647   2.236  18.507  0.00  0.00    +0.000 C 
ATOM     25  C   UNL     1       3.564   2.827  19.588  0.00  0.00    +0.000 C 
ATOM     26  C   UNL     1       2.826   2.850  20.937  0.00  0.00    +0.000 C 
ATOM     27  C   UNL     1       1.546   3.697  20.823  0.00  0.00    +0.000 C 
ATOM     28  C   UNL     1       0.635   3.090  19.742  0.00  0.00    +0.000 C 
ATOM     29  C   UNL     1       1.920   5.134  20.425  0.00  0.00    +0.000 C 
ATOM     30  C   UNL     1       3.934   4.266  19.199  0.00  0.00    +0.000 C 
ENDBRANCH  20  21
ENDBRANCH   3  20
TORSDOF 5
ENDMDL
MODEL 6
REMARK VINA RESULT:      -7.9      2.857      3.636
REMARK  Name = 
REMARK  5 active torsions:
REMARK  status: ('A' for Active; 'I' for Inactive)
REMARK    1  A    between atoms: C_2  and  C_15
REMARK    2  A    between atoms: N_3  and  C_4
REMARK    3  A    between atoms: C_4  and  C_5
REMARK    4  A    between atoms: C_17  and  C_18
REMARK    5  A    between atoms: C_18  and  N_19
REMARK                            x       y       z     vdW  Elec       q    Type
REMARK                         _______ _______ _______ _____ _____    ______ ____
ROOT
ATOM      1  O   UNL     1       2.180   8.843  17.226  0.00  0.00    +0.000 OA
ATOM      2  C   UNL     1       1.967   8.668  18.421  0.00  0.00    +0.000 C 
ATOM      3  N   UNL     1       2.448   7.567  19.102  0.00  0.00    +0.000 N 
ATOM      4  H   UNL     1       2.113   7.373  20.035  0.00  0.00    +0.000 HD
ENDROOT
BRANCH   2   5
ATOM      5  C   UNL     1       1.216   9.678  19.212  0.00  0.00    +0.000 A 
ATOM      6  C   UNL     1       1.036  10.979  18.694  0.00  0.00    +0.000 A 
ATOM      7  C   UNL     1       0.164  11.892  19.312  0.00  0.00    +0.000 A 
ATOM      8  C   UNL     1      -0.508  11.484  20.475  0.00  0.00    +0.000 A 
ATOM      9  C   UNL     1      -0.295  10.218  21.023  0.00  0.00    +0.000 A 
ATOM     10  C   UNL     1       0.578   9.317  20.408  0.00  0.00    +0.000 A 
ATOM     11 CL   UNL     1       0.871   7.830  21.241  0.00  0.00    +0.000 Cl
BRANCH   7  12
ATOM     12  C   UNL     1      -0.034  13.326  18.830  0.00  0.00    +0.000 C 
BRANCH  12  13
ATOM     13  N   UNL     1       0.250  14.381  19.813  0.00  0.00    +0.000 NA
ATOM     14  C   UNL     1       1.640  14.880  19.757  0.00  0.00    +0.000 C 
ATOM     15  C   UNL     1       1.980  15.852  18.603  0.00  0.00    +0.000 C 
ATOM     16  N   UNL     1       1.018  16.940  18.406  0.00  0.00    +0.000 NA
ATOM     17  C   UNL     1      -0.366  16.465  18.454  0.00  0.00    +0.000 C 
ATOM     18  C   UNL     1      -0.667  15.534  19.650  0.00  0.00    +0.000 C 
ATOM     19  H   UNL     1       1.196  17.395  17.511  0.00  0.00    +0.000 HD
ENDBRANCH  12  13
ENDBRANCH   7  12
ENDBRANCH   2   5
BRANCH   3  20
ATOM     20  C   UNL     1       3.166   6.552  18.363  0.00  0.00    +0.000 C 
BRANCH  20  21
ATOM     21  C   UNL     1       2.801   5.100  18.737  0.00  0.00    +0.000 C 
ATOM     22  C   UNL     1       3.995   4.142  18.492  0.00  0.00    +0.000 C 
ATOM     23  C   UNL     1       3.636   2.716  18.930  0.00  0.00    +0.000 C 
ATOM     24  C   UNL     1       3.291   2.722  20.428  0.00  0.00    +0.000 C 
ATOM     25  C   UNL     1       2.088   3.641  20.689  0.00  0.00    +0.000 C 
ATOM     26  C   UNL     1       0.878   3.154  19.876  0.00  0.00    +0.000 C 
ATOM     27  C   UNL     1       1.217   3.157  18.375  0.00  0.00    +0.000 C 
ATOM     28  C   UNL     1       2.417   2.229  18.127  0.00  0.00    +0.000 C 
ATOM     29  C   UNL     1       1.579   4.586  17.937  0.00  0.00    +0.000 C 
ATOM     30  C   UNL     1       2.443   5.069  20.247  0.00  0.00    +0.000 C 
ENDBRANCH  20  21
ENDBRANCH   3  20
TORSDOF 5
ENDMDL
MODEL 7
REMARK VINA RESULT:      -7.9      3.208      4.462
REMARK  Name = 
REMARK  5 active torsions:
REMARK  status: ('A' for Active; 'I' for Inactive)
REMARK    1  A    between atoms: C_2  and  C_15
REMARK    2  A    between atoms: N_3  and  C_4
REMARK    3  A    between atoms: C_4  and  C_5
REMARK    4  A    between atoms: C_17  and  C_18
REMARK    5  A    between atoms: C_18  and  N_19
REMARK                            x       y       z     vdW  Elec       q    Type
REMARK                         _______ _______ _______ _____ _____    ______ ____
ROOT
ATOM      1  O   UNL     1       2.149   8.774  17.233  0.00  0.00    +0.000 OA
ATOM      2  C   UNL     1       1.967   8.690  18.443  0.00  0.00    +0.000 C 
ATOM      3  N   UNL     1       2.382   7.595  19.176  0.00  0.00    +0.000 N 
ATOM      4  H   UNL     1       2.067   7.485  20.130  0.00  0.00    +0.000 HD
ENDROOT
BRANCH   2   5
ATOM      5  C   UNL     1       1.330   9.804  19.193  0.00  0.00    +0.000 A 
ATOM      6  C   UNL     1       1.452  11.126  18.716  0.00  0.00    +0.000 A 
ATOM      7  C   UNL     1       0.699  12.173  19.278  0.00  0.00    +0.000 A 
ATOM      8  C   UNL     1      -0.163  11.871  20.343  0.00  0.00    +0.000 A 
ATOM      9  C   UNL     1      -0.251  10.575  20.855  0.00  0.00    +0.000 A 
ATOM     10  C   UNL     1       0.505   9.541  20.297  0.00  0.00    +0.000 A 
ATOM     11 CL   UNL     1       0.424   8.006  21.090  0.00  0.00    +0.000 Cl
BRANCH   7  12
ATOM     12  C   UNL     1       0.824  13.630  18.841  0.00  0.00    +0.000 C 
BRANCH  12  13
ATOM     13  N   UNL     1       1.534  14.521  19.768  0.00  0.00    +0.000 NA
ATOM     14  C   UNL     1       2.983  14.243  19.860  0.00  0.00    +0.000 C 
ATOM     15  C   UNL     1       3.860  14.747  18.689  0.00  0.00    +0.000 C 
ATOM     16  N   UNL     1       3.611  16.133  18.282  0.00  0.00    +0.000 NA
ATOM     17  C   UNL     1       2.180  16.427  18.181  0.00  0.00    +0.000 C 
ATOM     18  C   UNL     1       1.356  15.944  19.395  0.00  0.00    +0.000 C 
ATOM     19  H   UNL     1       4.064  16.311  17.386  0.00  0.00    +0.000 HD
ENDBRANCH  12  13
ENDBRANCH   7  12
ENDBRANCH   2   5
BRANCH   3  20
ATOM     20  C   UNL     1       2.988   6.481  18.480  0.00  0.00    +0.000 C 
BRANCH  20  21
ATOM     21  C   UNL     1       2.570   5.089  18.998  0.00  0.00    +0.000 C 
ATOM     22  C   UNL     1       1.664   4.359  17.974  0.00  0.00    +0.000 C 
ATOM     23  C   UNL     1       1.314   2.951  18.478  0.00  0.00    +0.000 C 
ATOM     24  C   UNL     1       2.610   2.149  18.670  0.00  0.00    +0.000 C 
ATOM     25  C   UNL     1       3.511   2.838  19.706  0.00  0.00    +0.000 C 
ATOM     26  C   UNL     1       2.764   2.954  21.045  0.00  0.00    +0.000 C 
ATOM     27  C   UNL     1       1.471   3.767  20.858  0.00  0.00    +0.000 C 
ATOM     28  C   UNL     1       0.577   3.062  19.824  0.00  0.00    +0.000 C 
ATOM     29  C   UNL     1       1.823   5.176  20.351  0.00  0.00    +0.000 C 
ATOM     30  C   UNL     1       3.859   4.249  19.206  0.00  0.00    +0.000 C 
ENDBRANCH  20  21
ENDBRANCH   3  20
TORSDOF 5
ENDMDL
MODEL 8
REMARK VINA RESULT:      -7.9      2.895      3.887
REMARK  Name = 
REMARK  5 active torsions:
REMARK  status: ('A' for Active; 'I' for Inactive)
REMARK    1  A    between atoms: C_2  and  C_15
REMARK    2  A    between atoms: N_3  and  C_4
REMARK    3  A    between atoms: C_4  and  C_5
REMARK    4  A    between atoms: C_17  and  C_18
REMARK    5  A    between atoms: C_18  and  N_19
REMARK                            x       y       z     vdW  Elec       q    Type
REMARK                         _______ _______ _______ _____ _____    ______ ____
ROOT
ATOM      1  O   UNL     1       2.270   9.011  17.380  0.00  0.00    +0.000 OA
ATOM      2  C   UNL     1       1.881   8.794  18.523  0.00  0.00    +0.000 C 
ATOM      3  N   UNL     1       2.138   7.605  19.176  0.00  0.00    +0.000 N 
ATOM      4  H   UNL     1       1.661   7.399  20.043  0.00  0.00    +0.000 HD
ENDROOT
BRANCH   2   5
ATOM      5  C   UNL     1       1.151   9.841  19.287  0.00  0.00    +0.000 A 
ATOM      6  C   UNL     1       1.006  11.132  18.737  0.00  0.00    +0.000 A 
ATOM      7  C   UNL     1       0.154  12.082  19.329  0.00  0.00    +0.000 A 
ATOM      8  C   UNL     1      -0.533  11.718  20.498  0.00  0.00    +0.000 A 
ATOM      9  C   UNL     1      -0.354  10.460  21.077  0.00  0.00    +0.000 A 
ATOM     10  C   UNL     1       0.499   9.524  20.488  0.00  0.00    +0.000 A 
ATOM     11 CL   UNL     1       0.753   8.050  21.357  0.00  0.00    +0.000 Cl
BRANCH   7  12
ATOM     12  C   UNL     1      -0.007  13.509  18.812  0.00  0.00    +0.000 C 
BRANCH  12  13
ATOM     13  N   UNL     1       0.258  14.579  19.784  0.00  0.00    +0.000 NA
ATOM     14  C   UNL     1       1.635  15.113  19.711  0.00  0.00    +0.000 C 
ATOM     15  C   UNL     1       1.940  16.083  18.545  0.00  0.00    +0.000 C 
ATOM     16  N   UNL     1       0.948  17.144  18.348  0.00  0.00    +0.000 NA
ATOM     17  C   UNL     1      -0.423  16.634  18.412  0.00  0.00    +0.000 C 
ATOM     18  C   UNL     1      -0.688  15.706  19.618  0.00  0.00    +0.000 C 
ATOM     19  H   UNL     1       1.107  17.595  17.447  0.00  0.00    +0.000 HD
ENDBRANCH  12  13
ENDBRANCH   7  12
ENDBRANCH   2   5
BRANCH   3  20
ATOM     20  C   UNL     1       2.827   6.553  18.460  0.00  0.00    +0.000 C 
BRANCH  20  21
ATOM     21  C   UNL     1       2.556   5.127  18.984  0.00  0.00    +0.000 C 
ATOM     22  C   UNL     1       1.762   5.162  20.315  0.00  0.00    +0.000 C 
ATOM     23  C   UNL     1       1.445   3.736  20.786  0.00  0.00    +0.000 C 
ATOM     24  C   UNL     1       0.604   3.028  19.712  0.00  0.00    +0.000 C 
ATOM     25  C   UNL     1       1.384   2.953  18.392  0.00  0.00    +0.000 C 
ATOM     26  C   UNL     1       2.701   2.191  18.611  0.00  0.00    +0.000 C 
ATOM     27  C   UNL     1       3.551   2.904  19.677  0.00  0.00    +0.000 C 
ATOM     28  C   UNL     1       2.761   2.965  20.995  0.00  0.00    +0.000 C 
ATOM     29  C   UNL     1       3.866   4.334  19.206  0.00  0.00    +0.000 C 
ATOM     30  C   UNL     1       1.707   4.380  17.920  0.00  0.00    +0.000 C 
ENDBRANCH  20  21
ENDBRANCH   3  20
TORSDOF 5
ENDMDL
MODEL 9
REMARK VINA RESULT:      -7.9      0.737      1.746
REMARK  Name = 
REMARK  5 active torsions:
REMARK  status: ('A' for Active; 'I' for Inactive)
REMARK    1  A    between atoms: C_2  and  C_15
REMARK    2  A    between atoms: N_3  and  C_4
REMARK    3  A    between atoms: C_4  and  C_5
REMARK    4  A    between atoms: C_17  and  C_18
REMARK    5  A    between atoms: C_18  and  N_19
REMARK                            x       y       z     vdW  Elec       q    Type
REMARK                         _______ _______ _______ _____ _____    ______ ____
ROOT
ATOM      1  O   UNL     1       2.608   8.954  18.161  0.00  0.00    +0.000 OA
ATOM      2  C   UNL     1       1.882   8.586  19.077  0.00  0.00    +0.000 C 
ATOM      3  N   UNL     1       1.990   7.331  19.644  0.00  0.00    +0.000 N 
ATOM      4  H   UNL     1       1.271   7.005  20.274  0.00  0.00    +0.000 HD
ENDROOT
BRANCH   2   5
ATOM      5  C   UNL     1       0.872   9.507  19.662  0.00  0.00    +0.000 A 
ATOM      6  C   UNL     1      -0.156  10.026  18.846  0.00  0.00    +0.000 A 
ATOM      7  C   UNL     1      -1.239  10.730  19.402  0.00  0.00    +0.000 A 
ATOM      8  C   UNL     1      -1.260  10.923  20.792  0.00  0.00    +0.000 A 
ATOM      9  C   UNL     1      -0.220  10.459  21.600  0.00  0.00    +0.000 A 
ATOM     10  C   UNL     1       0.856   9.767  21.040  0.00  0.00    +0.000 A 
ATOM     11 CL   UNL     1       2.152   9.354  22.109  0.00  0.00    +0.000 Cl
BRANCH   7  12
ATOM     12  C   UNL     1      -2.353  11.357  18.569  0.00  0.00    +0.000 C 
BRANCH  12  13
ATOM     13  N   UNL     1      -3.349  10.425  18.020  0.00  0.00    +0.000 NA
ATOM     14  C   UNL     1      -4.711  10.995  17.949  0.00  0.00    +0.000 C 
ATOM     15  C   UNL     1      -4.987  11.985  16.793  0.00  0.00    +0.000 C 
ATOM     16  N   UNL     1      -4.528  11.539  15.474  0.00  0.00    +0.000 NA
ATOM     17  C   UNL     1      -3.178  10.976  15.523  0.00  0.00    +0.000 C 
ATOM     18  C   UNL     1      -2.966   9.960  16.667  0.00  0.00    +0.000 C 
ATOM     19  H   UNL     1      -4.552  12.324  14.822  0.00  0.00    +0.000 HD
ENDBRANCH  12  13
ENDBRANCH   7  12
ENDBRANCH   2   5
BRANCH   3  20
ATOM     20  C   UNL     1       2.946   6.397  19.090  0.00  0.00    +0.000 C 
BRANCH  20  21
ATOM     21  C   UNL     1       2.631   4.911  19.359  0.00  0.00    +0.000 C 
ATOM     22  C   UNL     1       1.576   4.758  20.484  0.00  0.00    +0.000 C 
ATOM     23  C   UNL     1       1.227   3.278  20.693  0.00  0.00    +0.000 C 
ATOM     24  C   UNL     1       0.660   2.706  19.384  0.00  0.00    +0.000 C 
ATOM     25  C   UNL     1       1.702   2.818  18.262  0.00  0.00    +0.000 C 
ATOM     26  C   UNL     1       2.975   2.052  18.659  0.00  0.00    +0.000 C 
ATOM     27  C   UNL     1       3.552   2.630  19.963  0.00  0.00    +0.000 C 
ATOM     28  C   UNL     1       2.501   2.505  21.079  0.00  0.00    +0.000 C 
ATOM     29  C   UNL     1       3.899   4.114  19.754  0.00  0.00    +0.000 C 
ATOM     30  C   UNL     1       2.056   4.298  18.054  0.00  0.00    +0.000 C 
ENDBRANCH  20  21
ENDBRANCH   3  20
TORSDOF 5
ENDMDL
