MODEL 1
REMARK VINA RESULT:      -9.0      0.000      0.000
REMARK  Name = 
REMARK  6 active torsions:
REMARK  status: ('A' for Active; 'I' for Inactive)
REMARK    1  A    between atoms: C_1  and  C_2
REMARK    2  A    between atoms: N_4  and  C_5
REMARK    3  A    between atoms: C_13  and  C_14
REMARK    4  A    between atoms: N_16  and  C_17
REMARK    5  A    between atoms: C_20  and  N_21
REMARK    6  A    between atoms: C_24  and  O_25
REMARK                            x       y       z     vdW  Elec       q    Type
REMARK                         _______ _______ _______ _____ _____    ______ ____
ROOT
ATOM      1  C   UNL     1       2.181   8.649  18.193  0.00  0.00    +0.000 C 
ATOM      2  O   UNL     1       2.195   9.627  17.452  0.00  0.00    +0.000 OA
ATOM      3  N   UNL     1       1.491   8.624  19.379  0.00  0.00    +0.000 N 
ATOM      4  H   UNL     1       1.564   7.771  19.919  0.00  0.00    +0.000 HD
ENDROOT
BRANCH   1  11
ATOM      5  C   UNL     1       6.776   5.506  16.180  0.00  0.00    +0.000 C 
ATOM      6  C   UNL     1       5.533   5.108  16.882  0.00  0.00    +0.000 A 
ATOM      7  N   UNL     1       5.317   3.827  17.272  0.00  0.00    +0.000 NA
ATOM      8  N   UNL     1       4.111   3.867  17.916  0.00  0.00    +0.000 N 
ATOM      9  C   UNL     1       3.584   5.112  17.882  0.00  0.00    +0.000 A 
ATOM     10  S   UNL     1       2.254   5.885  18.480  0.00  0.00    +0.000 S 
ATOM     11  C   UNL     1       2.903   7.415  17.917  0.00  0.00    +0.000 A 
ATOM     12  C   UNL     1       4.127   7.252  17.259  0.00  0.00    +0.000 A 
ATOM     13  C   UNL     1       4.466   5.904  17.279  0.00  0.00    +0.000 A 
BRANCH   8  14
ATOM     14  C   UNL     1       3.628   2.792  18.775  0.00  0.00    +0.000 C 
ATOM     15  C   UNL     1       3.496   3.148  20.260  0.00  0.00    +0.000 C 
ATOM     16  C   UNL     1       2.147   3.739  20.652  0.00  0.00    +0.000 C 
ATOM     17  C   UNL     1       0.981   2.937  20.085  0.00  0.00    +0.000 C 
ATOM     18  C   UNL     1       1.081   2.819  18.572  0.00  0.00    +0.000 C 
ATOM     19  C   UNL     1       2.380   2.130  18.169  0.00  0.00    +0.000 C 
ENDBRANCH   8  14
ENDBRANCH   1  11
BRANCH   3  20
ATOM     20  C   UNL     1       0.676   9.668  19.929  0.00  0.00    +0.000 C 
ATOM     21  C   UNL     1      -0.558  10.007  19.108  0.00  0.00    +0.000 C 
ATOM     22  C   UNL     1      -1.035  11.390  19.536  0.00  0.00    +0.000 C 
ATOM     23  C   UNL     1      -1.206  11.554  21.073  0.00  0.00    +0.000 C 
ATOM     24  C   UNL     1      -0.166  10.796  21.946  0.00  0.00    +0.000 C 
ATOM     25  C   UNL     1       0.250   9.445  21.375  0.00  0.00    +0.000 C 
BRANCH  23  26
ATOM     26  N   UNL     1      -1.326  12.972  21.506  0.00  0.00    +0.000 NA
ATOM     27  C   UNL     1      -0.026  13.521  21.924  0.00  0.00    +0.000 C 
ATOM     28  C   UNL     1      -0.112  15.015  22.232  0.00  0.00    +0.000 C 
ATOM     29  C   UNL     1      -1.190  15.321  23.266  0.00  0.00    +0.000 C 
ATOM     30  C   UNL     1      -2.516  14.693  22.862  0.00  0.00    +0.000 C 
ATOM     31  C   UNL     1      -2.365  13.210  22.526  0.00  0.00    +0.000 C 
BRANCH  29  32
ATOM     32  O   UNL     1      -0.792  14.867  24.562  0.00  0.00    +0.000 OA
ATOM     33  H   UNL     1      -1.524  14.362  24.956  0.00  0.00    +0.000 HD
ENDBRANCH  29  32
ENDBRANCH  23  26
ENDBRANCH   3  20
TORSDOF 5
ENDMDL
MODEL 2
REMARK VINA RESULT:      -8.9      1.834      2.549
REMARK  Name = 
REMARK  6 active torsions:
REMARK  status: ('A' for Active; 'I' for Inactive)
REMARK    1  A    between atoms: C_1  and  C_2
REMARK    2  A    between atoms: N_4  and  C_5
REMARK    3  A    between atoms: C_13  and  C_14
REMARK    4  A    between atoms: N_16  and  C_17
REMARK    5  A    between atoms: C_20  and  N_21
REMARK    6  A    between atoms: C_24  and  O_25
REMARK                            x       y       z     vdW  Elec       q    Type
REMARK                         _______ _______ _______ _____ _____    ______ ____
ROOT
ATOM      1  C   UNL     1       1.235   9.401  19.202  0.00  0.00    +0.000 C 
ATOM      2  O   UNL     1       0.926  10.322  18.454  0.00  0.00    +0.000 OA
ATOM      3  N   UNL     1       0.879   9.365  20.527  0.00  0.00    +0.000 N 
ATOM      4  H   UNL     1       1.204   8.565  21.054  0.00  0.00    +0.000 HD
ENDROOT
BRANCH   1  11
ATOM      5  C   UNL     1       5.371   6.683  15.952  0.00  0.00    +0.000 C 
ATOM      6  C   UNL     1       4.522   6.214  17.073  0.00  0.00    +0.000 A 
ATOM      7  N   UNL     1       4.677   4.978  17.610  0.00  0.00    +0.000 NA
ATOM      8  N   UNL     1       3.768   4.936  18.631  0.00  0.00    +0.000 N 
ATOM      9  C   UNL     1       3.050   6.081  18.689  0.00  0.00    +0.000 A 
ATOM     10  S   UNL     1       1.883   6.735  19.655  0.00  0.00    +0.000 S 
ATOM     11  C   UNL     1       2.028   8.253  18.786  0.00  0.00    +0.000 A 
ATOM     12  C   UNL     1       2.971   8.175  17.755  0.00  0.00    +0.000 A 
ATOM     13  C   UNL     1       3.528   6.901  17.757  0.00  0.00    +0.000 A 
BRANCH   8  14
ATOM     14  C   UNL     1       3.795   3.927  19.684  0.00  0.00    +0.000 C 
ATOM     15  C   UNL     1       2.600   3.948  20.643  0.00  0.00    +0.000 C 
ATOM     16  C   UNL     1       1.415   3.100  20.196  0.00  0.00    +0.000 C 
ATOM     17  C   UNL     1       1.841   1.708  19.743  0.00  0.00    +0.000 C 
ATOM     18  C   UNL     1       2.876   1.787  18.632  0.00  0.00    +0.000 C 
ATOM     19  C   UNL     1       4.115   2.541  19.102  0.00  0.00    +0.000 C 
ENDBRANCH   8  14
ENDBRANCH   1  11
BRANCH   3  20
ATOM     20  C   UNL     1       0.093  10.332  21.238  0.00  0.00    +0.000 C 
ATOM     21  C   UNL     1      -0.122  10.014  22.710  0.00  0.00    +0.000 C 
ATOM     22  C   UNL     1      -1.317  10.829  23.190  0.00  0.00    +0.000 C 
ATOM     23  C   UNL     1      -1.227  12.344  22.854  0.00  0.00    +0.000 C 
ATOM     24  C   UNL     1      -0.561  12.689  21.492  0.00  0.00    +0.000 C 
ATOM     25  C   UNL     1       0.595  11.766  21.121  0.00  0.00    +0.000 C 
BRANCH  23  26
ATOM     26  N   UNL     1      -2.522  13.061  23.005  0.00  0.00    +0.000 NA
ATOM     27  C   UNL     1      -3.443  12.332  23.892  0.00  0.00    +0.000 C 
ATOM     28  C   UNL     1      -4.717  13.129  24.169  0.00  0.00    +0.000 C 
ATOM     29  C   UNL     1      -5.417  13.546  22.881  0.00  0.00    +0.000 C 
ATOM     30  C   UNL     1      -4.443  14.239  21.939  0.00  0.00    +0.000 C 
ATOM     31  C   UNL     1      -3.171  13.418  21.730  0.00  0.00    +0.000 C 
BRANCH  29  32
ATOM     32  O   UNL     1      -6.017  12.417  22.243  0.00  0.00    +0.000 OA
ATOM     33  H   UNL     1      -5.409  12.081  21.562  0.00  0.00    +0.000 HD
ENDBRANCH  29  32
ENDBRANCH  23  26
ENDBRANCH   3  20
TORSDOF 5
ENDMDL
MODEL 3
REMARK VINA RESULT:      -8.9      1.670      2.035
REMARK  Name = 
REMARK  6 active torsions:
REMARK  status: ('A' for Active; 'I' for Inactive)
REMARK    1  A    between atoms: C_1  and  C_2
REMARK    2  A    between atoms: N_4  and  C_5
REMARK    3  A    between atoms: C_13  and  C_14
REMARK    4  A    between atoms: N_16  and  C_17
REMARK    5  A    between atoms: C_20  and  N_21
REMARK    6  A    between atoms: C_24  and  O_25
REMARK                            x       y       z     vdW  Elec       q    Type
REMARK                         _______ _______ _______ _____ _____    ______ ____
ROOT
ATOM      1  C   UNL     1       1.788   8.619  18.625  0.00  0.00    +0.000 C 
ATOM      2  O   UNL     1       1.479   9.519  17.852  0.00  0.00    +0.000 OA
ATOM      3  N   UNL     1       1.465   8.640  19.960  0.00  0.00    +0.000 N 
ATOM      4  H   UNL     1       1.787   7.852  20.508  0.00  0.00    +0.000 HD
ENDROOT
BRANCH   1  11
ATOM      5  C   UNL     1       6.390   5.820  16.168  0.00  0.00    +0.000 C 
ATOM      6  C   UNL     1       5.206   5.323  16.908  0.00  0.00    +0.000 A 
ATOM      7  N   UNL     1       5.067   4.012  17.226  0.00  0.00    +0.000 NA
ATOM      8  N   UNL     1       3.899   3.956  17.935  0.00  0.00    +0.000 N 
ATOM      9  C   UNL     1       3.319   5.176  18.010  0.00  0.00    +0.000 A 
ATOM     10  S   UNL     1       1.994   5.848  18.729  0.00  0.00    +0.000 S 
ATOM     11  C   UNL     1       2.545   7.439  18.232  0.00  0.00    +0.000 A 
ATOM     12  C   UNL     1       3.735   7.373  17.500  0.00  0.00    +0.000 A 
ATOM     13  C   UNL     1       4.131   6.043  17.413  0.00  0.00    +0.000 A 
BRANCH   8  14
ATOM     14  C   UNL     1       3.511   2.808  18.748  0.00  0.00    +0.000 C 
ATOM     15  C   UNL     1       3.517   3.045  20.261  0.00  0.00    +0.000 C 
ATOM     16  C   UNL     1       2.206   3.579  20.825  0.00  0.00    +0.000 C 
ATOM     17  C   UNL     1       0.999   2.804  20.308  0.00  0.00    +0.000 C 
ATOM     18  C   UNL     1       0.956   2.806  18.788  0.00  0.00    +0.000 C 
ATOM     19  C   UNL     1       2.218   2.175  18.211  0.00  0.00    +0.000 C 
ENDBRANCH   8  14
ENDBRANCH   1  11
BRANCH   3  20
ATOM     20  C   UNL     1       0.720   9.649  20.654  0.00  0.00    +0.000 C 
ATOM     21  C   UNL     1       0.413   9.322  22.107  0.00  0.00    +0.000 C 
ATOM     22  C   UNL     1      -0.740  10.215  22.550  0.00  0.00    +0.000 C 
ATOM     23  C   UNL     1      -0.524  11.725  22.250  0.00  0.00    +0.000 C 
ATOM     24  C   UNL     1       0.229  12.044  20.927  0.00  0.00    +0.000 C 
ATOM     25  C   UNL     1       1.330  11.044  20.590  0.00  0.00    +0.000 C 
BRANCH  23  26
ATOM     26  N   UNL     1      -1.769  12.533  22.356  0.00  0.00    +0.000 NA
ATOM     27  C   UNL     1      -2.717  11.941  23.314  0.00  0.00    +0.000 C 
ATOM     28  C   UNL     1      -3.934  12.838  23.539  0.00  0.00    +0.000 C 
ATOM     29  C   UNL     1      -4.630  13.190  22.229  0.00  0.00    +0.000 C 
ATOM     30  C   UNL     1      -3.632  13.739  21.220  0.00  0.00    +0.000 C 
ATOM     31  C   UNL     1      -2.417  12.824  21.065  0.00  0.00    +0.000 C 
BRANCH  29  32
ATOM     32  O   UNL     1      -5.311  12.052  21.696  0.00  0.00    +0.000 OA
ATOM     33  H   UNL     1      -5.983  12.356  21.063  0.00  0.00    +0.000 HD
ENDBRANCH  29  32
ENDBRANCH  23  26
ENDBRANCH   3  20
TORSDOF 5
ENDMDL
MODEL 4
REMARK VINA RESULT:      -8.9      1.853      2.601
REMARK  Name = 
REMARK  6 active torsions:
REMARK  status: ('A' for Active; 'I' for Inactive)
REMARK    1  A    between atoms: C_1  and  C_2
REMARK    2  A    between atoms: N_4  and  C_5
REMARK    3  A    between atoms: C_13  and  C_14
REMARK    4  A    between atoms: N_16  and  C_17
REMARK    5  A    between atoms: C_20  and  N_21
REMARK    6  A    between atoms: C_24  and  O_25
REMARK                            x       y       z     vdW  Elec       q    Type
REMARK                         _______ _______ _______ _____ _____    ______ ____
ROOT
ATOM      1  C   UNL     1       1.342   9.988  18.963  0.00  0.00    +0.000 C 
ATOM      2  O   UNL     1       1.644  11.064  18.458  0.00  0.00    +0.000 OA
ATOM      3  N   UNL     1       0.324   9.852  19.875  0.00  0.00    +0.000 N 
ATOM      4  H   UNL     1       0.175   8.919  20.239  0.00  0.00    +0.000 HD
ENDROOT
BRANCH   1  11
ATOM      5  C   UNL     1       5.146   6.569  15.981  0.00  0.00    +0.000 C 
ATOM      6  C   UNL     1       4.303   6.311  17.172  0.00  0.00    +0.000 A 
ATOM      7  N   UNL     1       4.382   5.143  17.857  0.00  0.00    +0.000 NA
ATOM      8  N   UNL     1       3.507   5.299  18.897  0.00  0.00    +0.000 N 
ATOM      9  C   UNL     1       2.881   6.496  18.827  0.00  0.00    +0.000 A 
ATOM     10  S   UNL     1       1.800   7.355  19.732  0.00  0.00    +0.000 S 
ATOM     11  C   UNL     1       2.030   8.738  18.675  0.00  0.00    +0.000 A 
ATOM     12  C   UNL     1       2.929   8.458  17.640  0.00  0.00    +0.000 A 
ATOM     13  C   UNL     1       3.387   7.154  17.788  0.00  0.00    +0.000 A 
BRANCH   8  14
ATOM     14  C   UNL     1       3.493   4.429  20.068  0.00  0.00    +0.000 C 
ATOM     15  C   UNL     1       2.280   4.589  20.989  0.00  0.00    +0.000 C 
ATOM     16  C   UNL     1       1.088   3.712  20.625  0.00  0.00    +0.000 C 
ATOM     17  C   UNL     1       1.496   2.268  20.358  0.00  0.00    +0.000 C 
ATOM     18  C   UNL     1       2.555   2.190  19.269  0.00  0.00    +0.000 C 
ATOM     19  C   UNL     1       3.799   2.977  19.669  0.00  0.00    +0.000 C 
ENDBRANCH   8  14
ENDBRANCH   1  11
BRANCH   3  20
ATOM     20  C   UNL     1      -0.548  10.882  20.357  0.00  0.00    +0.000 C 
ATOM     21  C   UNL     1       0.132  11.936  21.218  0.00  0.00    +0.000 C 
ATOM     22  C   UNL     1      -0.951  12.652  22.017  0.00  0.00    +0.000 C 
ATOM     23  C   UNL     1      -2.134  13.175  21.155  0.00  0.00    +0.000 C 
ATOM     24  C   UNL     1      -2.536  12.274  19.953  0.00  0.00    +0.000 C 
ATOM     25  C   UNL     1      -1.354  11.589  19.274  0.00  0.00    +0.000 C 
BRANCH  23  26
ATOM     26  N   UNL     1      -3.330  13.551  21.956  0.00  0.00    +0.000 NA
ATOM     27  C   UNL     1      -3.007  13.662  23.388  0.00  0.00    +0.000 C 
ATOM     28  C   UNL     1      -4.191  14.188  24.199  0.00  0.00    +0.000 C 
ATOM     29  C   UNL     1      -5.443  13.345  23.986  0.00  0.00    +0.000 C 
ATOM     30  C   UNL     1      -5.734  13.177  22.503  0.00  0.00    +0.000 C 
ATOM     31  C   UNL     1      -4.505  12.689  21.734  0.00  0.00    +0.000 C 
BRANCH  29  32
ATOM     32  O   UNL     1      -5.310  12.072  24.621  0.00  0.00    +0.000 OA
ATOM     33  H   UNL     1      -4.943  11.439  23.981  0.00  0.00    +0.000 HD
ENDBRANCH  29  32
ENDBRANCH  23  26
ENDBRANCH   3  20
TORSDOF 5
ENDMDL
MODEL 5
REMARK VINA RESULT:      -8.8      1.166      1.616
REMARK  Name = 
REMARK  6 active torsions:
REMARK  status: ('A' for Active; 'I' for Inactive)
REMARK    1  A    between atoms: C_1  and  C_2
REMARK    2  A    between atoms: N_4  and  C_5
REMARK    3  A    between atoms: C_13  and  C_14
REMARK    4  A    between atoms: N_16  and  C_17
REMARK    5  A    between atoms: C_20  and  N_21
REMARK    6  A    between atoms: C_24  and  O_25
REMARK                            x       y       z     vdW  Elec       q    Type
REMARK                         _______ _______ _______ _____ _____    ______ ____
ROOT
ATOM      1  C   UNL     1       1.665   8.628  18.824  0.00  0.00    +0.000 C 
ATOM      2  O   UNL     1       1.348   9.535  18.062  0.00  0.00    +0.000 OA
ATOM      3  N   UNL     1       1.371   8.644  20.165  0.00  0.00    +0.000 N 
ATOM      4  H   UNL     1       1.697   7.851  20.702  0.00  0.00    +0.000 HD
ENDROOT
BRANCH   1  11
ATOM      5  C   UNL     1       6.085   5.795  16.087  0.00  0.00    +0.000 C 
ATOM      6  C   UNL     1       4.973   5.311  16.940  0.00  0.00    +0.000 A 
ATOM      7  N   UNL     1       4.879   4.010  17.311  0.00  0.00    +0.000 NA
ATOM      8  N   UNL     1       3.774   3.967  18.117  0.00  0.00    +0.000 N 
ATOM      9  C   UNL     1       3.186   5.181  18.199  0.00  0.00    +0.000 A 
ATOM     10  S   UNL     1       1.916   5.865  19.002  0.00  0.00    +0.000 S 
ATOM     11  C   UNL     1       2.403   7.443  18.409  0.00  0.00    +0.000 A 
ATOM     12  C   UNL     1       3.529   7.365  17.583  0.00  0.00    +0.000 A 
ATOM     13  C   UNL     1       3.935   6.037  17.508  0.00  0.00    +0.000 A 
BRANCH   8  14
ATOM     14  C   UNL     1       3.470   2.843  18.996  0.00  0.00    +0.000 C 
ATOM     15  C   UNL     1       3.566   3.141  20.496  0.00  0.00    +0.000 C 
ATOM     16  C   UNL     1       2.279   3.665  21.122  0.00  0.00    +0.000 C 
ATOM     17  C   UNL     1       1.064   2.840  20.715  0.00  0.00    +0.000 C 
ATOM     18  C   UNL     1       0.924   2.779  19.202  0.00  0.00    +0.000 C 
ATOM     19  C   UNL     1       2.163   2.156  18.569  0.00  0.00    +0.000 C 
ENDBRANCH   8  14
ENDBRANCH   1  11
BRANCH   3  20
ATOM     20  C   UNL     1       0.650   9.656  20.880  0.00  0.00    +0.000 C 
ATOM     21  C   UNL     1       0.385   9.332  22.342  0.00  0.00    +0.000 C 
ATOM     22  C   UNL     1      -0.752  10.229  22.818  0.00  0.00    +0.000 C 
ATOM     23  C   UNL     1      -0.540  11.738  22.510  0.00  0.00    +0.000 C 
ATOM     24  C   UNL     1       0.174  12.053  21.165  0.00  0.00    +0.000 C 
ATOM     25  C   UNL     1       1.262  11.050  20.796  0.00  0.00    +0.000 C 
BRANCH  23  26
ATOM     26  N   UNL     1      -1.778  12.550  22.653  0.00  0.00    +0.000 NA
ATOM     27  C   UNL     1      -1.480  13.913  23.122  0.00  0.00    +0.000 C 
ATOM     28  C   UNL     1      -2.725  14.798  23.133  0.00  0.00    +0.000 C 
ATOM     29  C   UNL     1      -3.855  14.177  23.947  0.00  0.00    +0.000 C 
ATOM     30  C   UNL     1      -4.114  12.745  23.503  0.00  0.00    +0.000 C 
ATOM     31  C   UNL     1      -2.829  11.917  23.470  0.00  0.00    +0.000 C 
BRANCH  29  32
ATOM     32  O   UNL     1      -3.558  14.225  25.344  0.00  0.00    +0.000 OA
ATOM     33  H   UNL     1      -3.991  15.005  25.730  0.00  0.00    +0.000 HD
ENDBRANCH  29  32
ENDBRANCH  23  26
ENDBRANCH   3  20
TORSDOF 5
ENDMDL
MODEL 6
REMARK VINA RESULT:      -8.7      1.526      1.925
REMARK  Name = 
REMARK  6 active torsions:
REMARK  status: ('A' for Active; 'I' for Inactive)
REMARK    1  A    between atoms: C_1  and  C_2
REMARK    2  A    between atoms: N_4  and  C_5
REMARK    3  A    between atoms: C_13  and  C_14
REMARK    4  A    between atoms: N_16  and  C_17
REMARK    5  A    between atoms: C_20  and  N_21
REMARK    6  A    between atoms: C_24  and  O_25
REMARK                            x       y       z     vdW  Elec       q    Type
REMARK                         _______ _______ _______ _____ _____    ______ ____
ROOT
ATOM      1  C   UNL     1       2.213   8.523  18.088  0.00  0.00    +0.000 C 
ATOM      2  O   UNL     1       2.220   9.215  17.075  0.00  0.00    +0.000 OA
ATOM      3  N   UNL     1       1.479   8.843  19.203  0.00  0.00    +0.000 N 
ATOM      4  H   UNL     1       1.563   8.209  19.987  0.00  0.00    +0.000 HD
ENDROOT
BRANCH   1  11
ATOM      5  C   UNL     1       7.235   5.391  18.223  0.00  0.00    +0.000 C 
ATOM      6  C   UNL     1       5.825   5.018  18.485  0.00  0.00    +0.000 A 
ATOM      7  N   UNL     1       5.490   3.780  18.928  0.00  0.00    +0.000 NA
ATOM      8  N   UNL     1       4.133   3.836  19.096  0.00  0.00    +0.000 N 
ATOM      9  C   UNL     1       3.648   5.043  18.726  0.00  0.00    +0.000 A 
ATOM     10  S   UNL     1       2.189   5.816  18.718  0.00  0.00    +0.000 S 
ATOM     11  C   UNL     1       2.991   7.301  18.237  0.00  0.00    +0.000 A 
ATOM     12  C   UNL     1       4.369   7.122  18.078  0.00  0.00    +0.000 A 
ATOM     13  C   UNL     1       4.684   5.803  18.381  0.00  0.00    +0.000 A 
BRANCH   8  14
ATOM     14  C   UNL     1       3.380   2.843  19.854  0.00  0.00    +0.000 C 
ATOM     15  C   UNL     1       2.586   3.392  21.044  0.00  0.00    +0.000 C 
ATOM     16  C   UNL     1       1.172   3.850  20.705  0.00  0.00    +0.000 C 
ATOM     17  C   UNL     1       0.423   2.826  19.859  0.00  0.00    +0.000 C 
ATOM     18  C   UNL     1       1.188   2.502  18.585  0.00  0.00    +0.000 C 
ATOM     19  C   UNL     1       2.568   1.941  18.912  0.00  0.00    +0.000 C 
ENDBRANCH   8  14
ENDBRANCH   1  11
BRANCH   3  20
ATOM     20  C   UNL     1       0.606   9.967  19.371  0.00  0.00    +0.000 C 
ATOM     21  C   UNL     1       1.300  11.320  19.326  0.00  0.00    +0.000 C 
ATOM     22  C   UNL     1       0.371  12.340  19.974  0.00  0.00    +0.000 C 
ATOM     23  C   UNL     1      -1.077  12.328  19.406  0.00  0.00    +0.000 C 
ATOM     24  C   UNL     1      -1.629  10.929  19.010  0.00  0.00    +0.000 C 
ATOM     25  C   UNL     1      -0.578   9.999  18.412  0.00  0.00    +0.000 C 
BRANCH  23  26
ATOM     26  N   UNL     1      -2.053  13.058  20.259  0.00  0.00    +0.000 NA
ATOM     27  C   UNL     1      -1.660  13.028  21.677  0.00  0.00    +0.000 C 
ATOM     28  C   UNL     1      -2.574  13.895  22.540  0.00  0.00    +0.000 C 
ATOM     29  C   UNL     1      -4.041  13.515  22.373  0.00  0.00    +0.000 C 
ATOM     30  C   UNL     1      -4.424  13.483  20.901  0.00  0.00    +0.000 C 
ATOM     31  C   UNL     1      -3.454  12.636  20.078  0.00  0.00    +0.000 C 
BRANCH  29  32
ATOM     32  O   UNL     1      -4.312  12.256  22.991  0.00  0.00    +0.000 OA
ATOM     33  H   UNL     1      -5.112  11.875  22.592  0.00  0.00    +0.000 HD
ENDBRANCH  29  32
ENDBRANCH  23  26
ENDBRANCH   3  20
TORSDOF 5
ENDMDL
MODEL 7
REMARK VINA RESULT:      -8.7      1.108      1.423
REMARK  Name = 
REMARK  6 active torsions:
REMARK  status: ('A' for Active; 'I' for Inactive)
REMARK    1  A    between atoms: C_1  and  C_2
REMARK    2  A    between atoms: N_4  and  C_5
REMARK    3  A    between atoms: C_13  and  C_14
REMARK    4  A    between atoms: N_16  and  C_17
REMARK    5  A    between atoms: C_20  and  N_21
REMARK    6  A    between atoms: C_24  and  O_25
REMARK                            x       y       z     vdW  Elec       q    Type
REMARK                         _______ _______ _______ _____ _____    ______ ____
ROOT
ATOM      1  C   UNL     1       2.204   8.703  18.158  0.00  0.00    +0.000 C 
ATOM      2  O   UNL     1       2.235   9.676  17.412  0.00  0.00    +0.000 OA
ATOM      3  N   UNL     1       1.503   8.692  19.338  0.00  0.00    +0.000 N 
ATOM      4  H   UNL     1       1.562   7.841  19.883  0.00  0.00    +0.000 HD
ENDROOT
BRANCH   1  11
ATOM      5  C   UNL     1       6.778   5.496  16.196  0.00  0.00    +0.000 C 
ATOM      6  C   UNL     1       5.526   5.117  16.893  0.00  0.00    +0.000 A 
ATOM      7  N   UNL     1       5.294   3.841  17.291  0.00  0.00    +0.000 NA
ATOM      8  N   UNL     1       4.085   3.898  17.927  0.00  0.00    +0.000 N 
ATOM      9  C   UNL     1       3.571   5.148  17.881  0.00  0.00    +0.000 A 
ATOM     10  S   UNL     1       2.246   5.940  18.466  0.00  0.00    +0.000 S 
ATOM     11  C   UNL     1       2.914   7.459  17.896  0.00  0.00    +0.000 A 
ATOM     12  C   UNL     1       4.141   7.279  17.247  0.00  0.00    +0.000 A 
ATOM     13  C   UNL     1       4.466   5.927  17.278  0.00  0.00    +0.000 A 
BRANCH   8  14
ATOM     14  C   UNL     1       3.585   2.834  18.791  0.00  0.00    +0.000 C 
ATOM     15  C   UNL     1       3.433   3.207  20.269  0.00  0.00    +0.000 C 
ATOM     16  C   UNL     1       2.081   3.808  20.635  0.00  0.00    +0.000 C 
ATOM     17  C   UNL     1       0.920   3.005  20.061  0.00  0.00    +0.000 C 
ATOM     18  C   UNL     1       1.041   2.870  18.551  0.00  0.00    +0.000 C 
ATOM     19  C   UNL     1       2.343   2.171  18.174  0.00  0.00    +0.000 C 
ENDBRANCH   8  14
ENDBRANCH   1  11
BRANCH   3  20
ATOM     20  C   UNL     1       0.695   9.748  19.875  0.00  0.00    +0.000 C 
ATOM     21  C   UNL     1      -0.563  10.051  19.077  0.00  0.00    +0.000 C 
ATOM     22  C   UNL     1      -1.039  11.444  19.472  0.00  0.00    +0.000 C 
ATOM     23  C   UNL     1      -1.170  11.658  21.006  0.00  0.00    +0.000 C 
ATOM     24  C   UNL     1      -0.102  10.936  21.876  0.00  0.00    +0.000 C 
ATOM     25  C   UNL     1       0.309   9.569  21.338  0.00  0.00    +0.000 C 
BRANCH  23  26
ATOM     26  N   UNL     1      -1.290  13.088  21.396  0.00  0.00    +0.000 NA
ATOM     27  C   UNL     1      -2.675  13.568  21.273  0.00  0.00    +0.000 C 
ATOM     28  C   UNL     1      -2.836  14.990  21.808  0.00  0.00    +0.000 C 
ATOM     29  C   UNL     1      -1.863  15.959  21.145  0.00  0.00    +0.000 C 
ATOM     30  C   UNL     1      -0.440  15.426  21.216  0.00  0.00    +0.000 C 
ATOM     31  C   UNL     1      -0.345  13.987  20.708  0.00  0.00    +0.000 C 
BRANCH  29  32
ATOM     32  O   UNL     1      -2.241  16.207  19.789  0.00  0.00    +0.000 OA
ATOM     33  H   UNL     1      -1.564  15.831  19.201  0.00  0.00    +0.000 HD
ENDBRANCH  29  32
ENDBRANCH  23  26
ENDBRANCH   3  20
TORSDOF 5
ENDMDL
MODEL 8
REMARK VINA RESULT:      -8.7      1.421      2.085
REMARK  Name = 
REMARK  6 active torsions:
REMARK  status: ('A' for Active; 'I' for Inactive)
REMARK    1  A    between atoms: C_1  and  C_2
REMARK    2  A    between atoms: N_4  and  C_5
REMARK    3  A    between atoms: C_13  and  C_14
REMARK    4  A    between atoms: N_16  and  C_17
REMARK    5  A    between atoms: C_20  and  N_21
REMARK    6  A    between atoms: C_24  and  O_25
REMARK                            x       y       z     vdW  Elec       q    Type
REMARK                         _______ _______ _______ _____ _____    ______ ____
ROOT
ATOM      1  C   UNL     1       1.225   9.499  19.080  0.00  0.00    +0.000 C 
ATOM      2  O   UNL     1       0.879  10.377  18.296  0.00  0.00    +0.000 OA
ATOM      3  N   UNL     1       0.932   9.540  20.420  0.00  0.00    +0.000 N 
ATOM      4  H   UNL     1       1.283   8.771  20.977  0.00  0.00    +0.000 HD
ENDROOT
BRANCH   1  11
ATOM      5  C   UNL     1       5.296   6.628  15.881  0.00  0.00    +0.000 C 
ATOM      6  C   UNL     1       4.452   6.205  17.024  0.00  0.00    +0.000 A 
ATOM      7  N   UNL     1       4.596   4.985  17.598  0.00  0.00    +0.000 NA
ATOM      8  N   UNL     1       3.695   4.986  18.628  0.00  0.00    +0.000 N 
ATOM      9  C   UNL     1       2.993   6.142  18.656  0.00  0.00    +0.000 A 
ATOM     10  S   UNL     1       1.843   6.841  19.612  0.00  0.00    +0.000 S 
ATOM     11  C   UNL     1       2.000   8.329  18.693  0.00  0.00    +0.000 A 
ATOM     12  C   UNL     1       2.932   8.206  17.657  0.00  0.00    +0.000 A 
ATOM     13  C   UNL     1       3.473   6.926  17.695  0.00  0.00    +0.000 A 
BRANCH   8  14
ATOM     14  C   UNL     1       3.720   4.011  19.713  0.00  0.00    +0.000 C 
ATOM     15  C   UNL     1       2.552   4.100  20.701  0.00  0.00    +0.000 C 
ATOM     16  C   UNL     1       1.330   3.277  20.313  0.00  0.00    +0.000 C 
ATOM     17  C   UNL     1       1.700   1.859  19.894  0.00  0.00    +0.000 C 
ATOM     18  C   UNL     1       2.707   1.869  18.755  0.00  0.00    +0.000 C 
ATOM     19  C   UNL     1       3.981   2.598  19.167  0.00  0.00    +0.000 C 
ENDBRANCH   8  14
ENDBRANCH   1  11
BRANCH   3  20
ATOM     20  C   UNL     1       0.179  10.546  21.111  0.00  0.00    +0.000 C 
ATOM     21  C   UNL     1      -0.207  10.182  22.536  0.00  0.00    +0.000 C 
ATOM     22  C   UNL     1      -1.358  11.091  22.953  0.00  0.00    +0.000 C 
ATOM     23  C   UNL     1      -1.090  12.603  22.713  0.00  0.00    +0.000 C 
ATOM     24  C   UNL     1      -0.265  12.944  21.439  0.00  0.00    +0.000 C 
ATOM     25  C   UNL     1       0.826  11.926  21.122  0.00  0.00    +0.000 C 
BRANCH  23  26
ATOM     26  N   UNL     1      -2.317  13.440  22.786  0.00  0.00    +0.000 NA
ATOM     27  C   UNL     1      -1.993  14.856  23.027  0.00  0.00    +0.000 C 
ATOM     28  C   UNL     1      -3.234  15.744  22.959  0.00  0.00    +0.000 C 
ATOM     29  C   UNL     1      -4.326  15.267  23.909  0.00  0.00    +0.000 C 
ATOM     30  C   UNL     1      -4.610  13.787  23.702  0.00  0.00    +0.000 C 
ATOM     31  C   UNL     1      -3.331  12.951  23.739  0.00  0.00    +0.000 C 
BRANCH  29  32
ATOM     32  O   UNL     1      -3.963  15.525  25.268  0.00  0.00    +0.000 OA
ATOM     33  H   UNL     1      -4.752  15.426  25.827  0.00  0.00    +0.000 HD
ENDBRANCH  29  32
ENDBRANCH  23  26
ENDBRANCH   3  20
TORSDOF 5
ENDMDL
MODEL 9
REMARK VINA RESULT:      -8.7      1.606      2.060
REMARK  Name = 
REMARK  6 active torsions:
REMARK  status: ('A' for Active; 'I' for Inactive)
REMARK    1  A    between atoms: C_1  and  C_2
REMARK    2  A    between atoms: N_4  and  C_5
REMARK    3  A    between atoms: C_13  and  C_14
REMARK    4  A    between atoms: N_16  and  C_17
REMARK    5  A    between atoms: C_20  and  N_21
REMARK    6  A    between atoms: C_24  and  O_25
REMARK                            x       y       z     vdW  Elec       q    Type
REMARK                         _______ _______ _______ _____ _____    ______ ____
ROOT
ATOM      1  C   UNL     1       1.569   8.367  20.096  0.00  0.00    +0.000 C 
ATOM      2  O   UNL     1       1.583   8.348  21.323  0.00  0.00    +0.000 OA
ATOM      3  N   UNL     1       0.894   9.318  19.373  0.00  0.00    +0.000 N 
ATOM      4  H   UNL     1       0.937   9.225  18.366  0.00  0.00    +0.000 HD
ENDROOT
BRANCH   1  11
ATOM      5  C   UNL     1       5.383   6.649  15.906  0.00  0.00    +0.000 C 
ATOM      6  C   UNL     1       4.510   5.884  16.828  0.00  0.00    +0.000 A 
ATOM      7  N   UNL     1       4.555   4.530  16.887  0.00  0.00    +0.000 NA
ATOM      8  N   UNL     1       3.661   4.203  17.869  0.00  0.00    +0.000 N 
ATOM      9  C   UNL     1       3.055   5.308  18.360  0.00  0.00    +0.000 A 
ATOM     10  S   UNL     1       1.969   5.670  19.549  0.00  0.00    +0.000 S 
ATOM     11  C   UNL     1       2.244   7.380  19.265  0.00  0.00    +0.000 A 
ATOM     12  C   UNL     1       3.161   7.596  18.230  0.00  0.00    +0.000 A 
ATOM     13  C   UNL     1       3.595   6.363  17.756  0.00  0.00    +0.000 A 
BRANCH   8  14
ATOM     14  C   UNL     1       3.608   2.887  18.496  0.00  0.00    +0.000 C 
ATOM     15  C   UNL     1       3.899   2.865  20.000  0.00  0.00    +0.000 C 
ATOM     16  C   UNL     1       2.676   3.068  20.885  0.00  0.00    +0.000 C 
ATOM     17  C   UNL     1       1.502   2.197  20.454  0.00  0.00    +0.000 C 
ATOM     18  C   UNL     1       1.141   2.445  18.997  0.00  0.00    +0.000 C 
ATOM     19  C   UNL     1       2.327   2.142  18.088  0.00  0.00    +0.000 C 
ENDBRANCH   8  14
ENDBRANCH   1  11
BRANCH   3  20
ATOM     20  C   UNL     1       0.145  10.426  19.889  0.00  0.00    +0.000 C 
ATOM     21  C   UNL     1       0.991  11.539  20.489  0.00  0.00    +0.000 C 
ATOM     22  C   UNL     1       0.088  12.376  21.387  0.00  0.00    +0.000 C 
ATOM     23  C   UNL     1      -1.225  12.849  20.702  0.00  0.00    +0.000 C 
ATOM     24  C   UNL     1      -1.859  11.841  19.702  0.00  0.00    +0.000 C 
ATOM     25  C   UNL     1      -0.836  11.044  18.899  0.00  0.00    +0.000 C 
BRANCH  23  26
ATOM     26  N   UNL     1      -2.244  13.353  21.661  0.00  0.00    +0.000 NA
ATOM     27  C   UNL     1      -1.782  13.235  23.053  0.00  0.00    +0.000 C 
ATOM     28  C   UNL     1      -2.757  13.881  24.035  0.00  0.00    +0.000 C 
ATOM     29  C   UNL     1      -4.169  13.326  23.881  0.00  0.00    +0.000 C 
ATOM     30  C   UNL     1      -4.616  13.389  22.428  0.00  0.00    +0.000 C 
ATOM     31  C   UNL     1      -3.585  12.766  21.487  0.00  0.00    +0.000 C 
BRANCH  29  32
ATOM     32  O   UNL     1      -4.242  11.986  24.373  0.00  0.00    +0.000 OA
ATOM     33  H   UNL     1      -4.235  11.373  23.617  0.00  0.00    +0.000 HD
ENDBRANCH  29  32
ENDBRANCH  23  26
ENDBRANCH   3  20
TORSDOF 5
ENDMDL
