MODEL 1
REMARK VINA RESULT:      -6.8      0.000      0.000
REMARK  Name = 
REMARK  8 active torsions:
REMARK  status: ('A' for Active; 'I' for Inactive)
REMARK    1  A    between atoms: C_1  and  C_2
REMARK    2  A    between atoms: C_2  and  C_3
REMARK    3  A    between atoms: C_2  and  C_4
REMARK    4  A    between atoms: C_4  and  C_5
REMARK    5  A    between atoms: C_9  and  C_10
REMARK    6  A    between atoms: C_13  and  P_14
REMARK    7  A    between atoms: P_14  and  O_16
REMARK    8  A    between atoms: P_14  and  O_17
REMARK                            x       y       z     vdW  Elec       q    Type
REMARK                         _______ _______ _______ _____ _____    ______ ____
ROOT
ATOM      1  C   UNL     1       3.948   4.667  17.649  0.00  0.00    +0.000 A 
ATOM      2  C   UNL     1       2.969   5.632  17.789  0.00  0.00    +0.000 A 
ATOM      3  C   UNL     1       2.170   5.248  18.889  0.00  0.00    +0.000 A 
ATOM      4  C   UNL     1       2.718   4.074  19.365  0.00  0.00    +0.000 A 
ATOM      5  O   UNL     1       3.813   3.733  18.636  0.00  0.00    +0.000 OA
ENDROOT
BRANCH   1  10
ATOM      6  C   UNL     1       5.914   5.661  16.388  0.00  0.00    +0.000 A 
ATOM      7  S   UNL     1       6.948   5.226  15.079  0.00  0.00    +0.000 S 
ATOM      8  C   UNL     1       6.114   3.740  14.919  0.00  0.00    +0.000 A 
ATOM      9  N   UNL     1       5.103   3.554  15.738  0.00  0.00    +0.000 NA
ATOM     10  C   UNL     1       4.992   4.644  16.584  0.00  0.00    +0.000 A 
BRANCH   6  11
ATOM     11  C   UNL     1       6.158   6.932  17.153  0.00  0.00    +0.000 C 
BRANCH  11  13
ATOM     12  C   UNL     1       7.966   8.628  17.846  0.00  0.00    +0.000 C 
ATOM     13  C   UNL     1       7.622   7.160  17.572  0.00  0.00    +0.000 C 
ATOM     14  C   UNL     1       7.919   6.342  18.834  0.00  0.00    +0.000 C 
ENDBRANCH  11  13
ENDBRANCH   6  11
ENDBRANCH   1  10
BRANCH   4  15
ATOM     15  P   UNL     1       2.093   3.186  20.839  0.00  0.00    +0.000 P 
ATOM     16  O   UNL     1       2.327   4.410  21.726  0.00  0.00    +0.000 OA
BRANCH  15  17
ATOM     17  O   UNL     1       0.536   3.257  20.331  0.00  0.00    +0.000 OA
ATOM     18  H   UNL     1      -0.100   3.161  21.062  0.00  0.00    +0.000 HD
ENDBRANCH  15  17
BRANCH  15  19
ATOM     19  O   UNL     1       1.502   2.347  22.231  0.00  0.00    +0.000 OA
ATOM     20  H   UNL     1       0.531   2.436  22.122  0.00  0.00    +0.000 HD
ENDBRANCH  15  19
ENDBRANCH   4  15
TORSDOF 6
ENDMDL
MODEL 2
REMARK VINA RESULT:      -6.6      0.643      1.021
REMARK  Name = 
REMARK  8 active torsions:
REMARK  status: ('A' for Active; 'I' for Inactive)
REMARK    1  A    between atoms: C_1  and  C_2
REMARK    2  A    between atoms: C_2  and  C_3
REMARK    3  A    between atoms: C_2  and  C_4
REMARK    4  A    between atoms: C_4  and  C_5
REMARK    5  A    between atoms: C_9  and  C_10
REMARK    6  A    between atoms: C_13  and  P_14
REMARK    7  A    between atoms: P_14  and  O_16
REMARK    8  A    between atoms: P_14  and  O_17
REMARK                            x       y       z     vdW  Elec       q    Type
REMARK                         _______ _______ _______ _____ _____    ______ ____
ROOT
ATOM      1  C   UNL     1       4.014   4.812  17.963  0.00  0.00    +0.000 A 
ATOM      2  C   UNL     1       3.237   5.919  18.243  0.00  0.00    +0.000 A 
ATOM      3  C   UNL     1       2.422   5.578  19.347  0.00  0.00    +0.000 A 
ATOM      4  C   UNL     1       2.761   4.283  19.683  0.00  0.00    +0.000 A 
ATOM      5  O   UNL     1       3.746   3.824  18.867  0.00  0.00    +0.000 OA
ENDROOT
BRANCH   1  10
ATOM      6  C   UNL     1       5.899   5.706  16.518  0.00  0.00    +0.000 A 
ATOM      7  S   UNL     1       6.858   5.172  15.188  0.00  0.00    +0.000 S 
ATOM      8  C   UNL     1       6.023   3.678  15.192  0.00  0.00    +0.000 A 
ATOM      9  N   UNL     1       5.062   3.555  16.080  0.00  0.00    +0.000 NA
ATOM     10  C   UNL     1       4.995   4.708  16.844  0.00  0.00    +0.000 A 
BRANCH   6  11
ATOM     11  C   UNL     1       6.181   7.033  17.167  0.00  0.00    +0.000 C 
BRANCH  11  13
ATOM     12  C   UNL     1       7.997   8.710  17.881  0.00  0.00    +0.000 C 
ATOM     13  C   UNL     1       7.649   7.250  17.578  0.00  0.00    +0.000 C 
ATOM     14  C   UNL     1       7.955   6.404  18.820  0.00  0.00    +0.000 C 
ENDBRANCH  11  13
ENDBRANCH   6  11
ENDBRANCH   1  10
BRANCH   4  15
ATOM     15  P   UNL     1       2.038   3.379  21.101  0.00  0.00    +0.000 P 
ATOM     16  O   UNL     1       1.154   2.546  20.172  0.00  0.00    +0.000 OA
BRANCH  15  17
ATOM     17  O   UNL     1       3.406   2.513  21.360  0.00  0.00    +0.000 OA
ATOM     18  H   UNL     1       3.987   2.489  20.580  0.00  0.00    +0.000 HD
ENDBRANCH  15  17
BRANCH  15  19
ATOM     19  O   UNL     1       1.356   2.525  22.441  0.00  0.00    +0.000 OA
ATOM     20  H   UNL     1       1.568   3.122  23.190  0.00  0.00    +0.000 HD
ENDBRANCH  15  19
ENDBRANCH   4  15
TORSDOF 6
ENDMDL
MODEL 3
REMARK VINA RESULT:      -6.6      3.561      5.393
REMARK  Name = 
REMARK  8 active torsions:
REMARK  status: ('A' for Active; 'I' for Inactive)
REMARK    1  A    between atoms: C_1  and  C_2
REMARK    2  A    between atoms: C_2  and  C_3
REMARK    3  A    between atoms: C_2  and  C_4
REMARK    4  A    between atoms: C_4  and  C_5
REMARK    5  A    between atoms: C_9  and  C_10
REMARK    6  A    between atoms: C_13  and  P_14
REMARK    7  A    between atoms: P_14  and  O_16
REMARK    8  A    between atoms: P_14  and  O_17
REMARK                            x       y       z     vdW  Elec       q    Type
REMARK                         _______ _______ _______ _____ _____    ______ ____
ROOT
ATOM      1  C   UNL     1       2.513   7.611  18.542  0.00  0.00    +0.000 A 
ATOM      2  C   UNL     1       1.873   8.610  17.835  0.00  0.00    +0.000 A 
ATOM      3  C   UNL     1       1.146   9.375  18.776  0.00  0.00    +0.000 A 
ATOM      4  C   UNL     1       1.397   8.802  20.007  0.00  0.00    +0.000 A 
ATOM      5  O   UNL     1       2.248   7.751  19.874  0.00  0.00    +0.000 OA
ENDROOT
BRANCH   1  10
ATOM      6  C   UNL     1       2.942   5.231  17.772  0.00  0.00    +0.000 A 
ATOM      7  S   UNL     1       4.215   4.334  17.029  0.00  0.00    +0.000 S 
ATOM      8  C   UNL     1       5.175   5.750  16.976  0.00  0.00    +0.000 A 
ATOM      9  N   UNL     1       4.641   6.831  17.499  0.00  0.00    +0.000 NA
ATOM     10  C   UNL     1       3.363   6.540  17.945  0.00  0.00    +0.000 A 
BRANCH   6  11
ATOM     11  C   UNL     1       1.616   4.577  18.043  0.00  0.00    +0.000 C 
BRANCH  11  13
ATOM     12  C   UNL     1       1.069   4.216  20.532  0.00  0.00    +0.000 C 
ATOM     13  C   UNL     1       1.611   3.603  19.237  0.00  0.00    +0.000 C 
ATOM     14  C   UNL     1       0.764   2.375  18.881  0.00  0.00    +0.000 C 
ENDBRANCH  11  13
ENDBRANCH   6  11
ENDBRANCH   1  10
BRANCH   4  15
ATOM     15  P   UNL     1       0.742   9.457  21.585  0.00  0.00    +0.000 P 
ATOM     16  O   UNL     1      -0.380   8.417  21.598  0.00  0.00    +0.000 OA
BRANCH  15  17
ATOM     17  O   UNL     1       1.979   8.833  22.461  0.00  0.00    +0.000 OA
ATOM     18  H   UNL     1       2.837   8.914  22.007  0.00  0.00    +0.000 HD
ENDBRANCH  15  17
BRANCH  15  19
ATOM     19  O   UNL     1       0.123  10.076  23.077  0.00  0.00    +0.000 OA
ATOM     20  H   UNL     1       0.946  10.221  23.592  0.00  0.00    +0.000 HD
ENDBRANCH  15  19
ENDBRANCH   4  15
TORSDOF 6
ENDMDL
MODEL 4
REMARK VINA RESULT:      -6.6      4.403      6.540
REMARK  Name = 
REMARK  8 active torsions:
REMARK  status: ('A' for Active; 'I' for Inactive)
REMARK    1  A    between atoms: C_1  and  C_2
REMARK    2  A    between atoms: C_2  and  C_3
REMARK    3  A    between atoms: C_2  and  C_4
REMARK    4  A    between atoms: C_4  and  C_5
REMARK    5  A    between atoms: C_9  and  C_10
REMARK    6  A    between atoms: C_13  and  P_14
REMARK    7  A    between atoms: P_14  and  O_16
REMARK    8  A    between atoms: P_14  and  O_17
REMARK                            x       y       z     vdW  Elec       q    Type
REMARK                         _______ _______ _______ _____ _____    ______ ____
ROOT
ATOM      1  C   UNL     1       3.731   5.617  17.730  0.00  0.00    +0.000 A 
ATOM      2  C   UNL     1       3.613   4.253  17.548  0.00  0.00    +0.000 A 
ATOM      3  C   UNL     1       4.569   3.887  16.572  0.00  0.00    +0.000 A 
ATOM      4  C   UNL     1       5.223   5.052  16.226  0.00  0.00    +0.000 A 
ATOM      5  O   UNL     1       4.740   6.098  16.946  0.00  0.00    +0.000 OA
ENDROOT
BRANCH   1  10
ATOM      6  C   UNL     1       2.402   5.992  19.860  0.00  0.00    +0.000 A 
ATOM      7  S   UNL     1       1.500   7.261  20.601  0.00  0.00    +0.000 S 
ATOM      8  C   UNL     1       1.860   8.284  19.276  0.00  0.00    +0.000 A 
ATOM      9  N   UNL     1       2.568   7.747  18.308  0.00  0.00    +0.000 NA
ATOM     10  C   UNL     1       2.887   6.442  18.642  0.00  0.00    +0.000 A 
BRANCH   6  11
ATOM     11  C   UNL     1       2.614   4.692  20.586  0.00  0.00    +0.000 C 
BRANCH  11  13
ATOM     12  C   UNL     1       0.751   3.295  19.492  0.00  0.00    +0.000 C 
ATOM     13  C   UNL     1       1.339   3.854  20.791  0.00  0.00    +0.000 C 
ATOM     14  C   UNL     1       1.650   2.684  21.733  0.00  0.00    +0.000 C 
ENDBRANCH  11  13
ENDBRANCH   6  11
ENDBRANCH   1  10
BRANCH   4  15
ATOM     15  P   UNL     1       6.613   5.121  15.036  0.00  0.00    +0.000 P 
ATOM     16  O   UNL     1       7.637   4.962  16.162  0.00  0.00    +0.000 OA
BRANCH  15  17
ATOM     17  O   UNL     1       6.307   3.618  14.456  0.00  0.00    +0.000 OA
ATOM     18  H   UNL     1       6.725   2.919  14.989  0.00  0.00    +0.000 HD
ENDBRANCH  15  17
BRANCH  15  19
ATOM     19  O   UNL     1       7.926   5.185  13.912  0.00  0.00    +0.000 OA
ATOM     20  H   UNL     1       8.546   4.524  14.290  0.00  0.00    +0.000 HD
ENDBRANCH  15  19
ENDBRANCH   4  15
TORSDOF 6
ENDMDL
MODEL 5
REMARK VINA RESULT:      -6.5      1.933      3.020
REMARK  Name = 
REMARK  8 active torsions:
REMARK  status: ('A' for Active; 'I' for Inactive)
REMARK    1  A    between atoms: C_1  and  C_2
REMARK    2  A    between atoms: C_2  and  C_3
REMARK    3  A    between atoms: C_2  and  C_4
REMARK    4  A    between atoms: C_4  and  C_5
REMARK    5  A    between atoms: C_9  and  C_10
REMARK    6  A    between atoms: C_13  and  P_14
REMARK    7  A    between atoms: P_14  and  O_16
REMARK    8  A    between atoms: P_14  and  O_17
REMARK                            x       y       z     vdW  Elec       q    Type
REMARK                         _______ _______ _______ _____ _____    ______ ____
ROOT
ATOM      1  C   UNL     1       4.604   4.022  18.843  0.00  0.00    +0.000 A 
ATOM      2  C   UNL     1       4.153   2.968  18.072  0.00  0.00    +0.000 A 
ATOM      3  C   UNL     1       3.154   2.309  18.824  0.00  0.00    +0.000 A 
ATOM      4  C   UNL     1       3.046   3.010  20.009  0.00  0.00    +0.000 A 
ATOM      5  O   UNL     1       3.901   4.066  20.013  0.00  0.00    +0.000 OA
ENDROOT
BRANCH   1  10
ATOM      6  C   UNL     1       5.500   6.075  17.650  0.00  0.00    +0.000 A 
ATOM      7  S   UNL     1       7.002   6.905  17.481  0.00  0.00    +0.000 S 
ATOM      8  C   UNL     1       7.747   5.758  18.509  0.00  0.00    +0.000 A 
ATOM      9  N   UNL     1       6.978   4.784  18.941  0.00  0.00    +0.000 NA
ATOM     10  C   UNL     1       5.692   4.967  18.461  0.00  0.00    +0.000 A 
BRANCH   6  11
ATOM     11  C   UNL     1       4.251   6.639  17.030  0.00  0.00    +0.000 C 
BRANCH  11  13
ATOM     12  C   UNL     1       2.623   8.489  17.768  0.00  0.00    +0.000 C 
ATOM     13  C   UNL     1       3.177   7.088  18.038  0.00  0.00    +0.000 C 
ATOM     14  C   UNL     1       2.016   6.087  18.017  0.00  0.00    +0.000 C 
ENDBRANCH  11  13
ENDBRANCH   6  11
ENDBRANCH   1  10
BRANCH   4  15
ATOM     15  P   UNL     1       1.836   2.606  21.321  0.00  0.00    +0.000 P 
ATOM     16  O   UNL     1       2.517   3.565  22.300  0.00  0.00    +0.000 OA
BRANCH  15  17
ATOM     17  O   UNL     1       0.631   3.447  20.592  0.00  0.00    +0.000 OA
ATOM     18  H   UNL     1       0.766   4.410  20.640  0.00  0.00    +0.000 HD
ENDBRANCH  15  17
BRANCH  15  19
ATOM     19  O   UNL     1       0.692   2.226  22.561  0.00  0.00    +0.000 OA
ATOM     20  H   UNL     1       0.109   1.580  22.107  0.00  0.00    +0.000 HD
ENDBRANCH  15  19
ENDBRANCH   4  15
TORSDOF 6
ENDMDL
MODEL 6
REMARK VINA RESULT:      -6.5      4.094      5.936
REMARK  Name = 
REMARK  8 active torsions:
REMARK  status: ('A' for Active; 'I' for Inactive)
REMARK    1  A    between atoms: C_1  and  C_2
REMARK    2  A    between atoms: C_2  and  C_3
REMARK    3  A    between atoms: C_2  and  C_4
REMARK    4  A    between atoms: C_4  and  C_5
REMARK    5  A    between atoms: C_9  and  C_10
REMARK    6  A    between atoms: C_13  and  P_14
REMARK    7  A    between atoms: P_14  and  O_16
REMARK    8  A    between atoms: P_14  and  O_17
REMARK                            x       y       z     vdW  Elec       q    Type
REMARK                         _______ _______ _______ _____ _____    ______ ____
ROOT
ATOM      1  C   UNL     1       2.212   7.776  18.975  0.00  0.00    +0.000 A 
ATOM      2  C   UNL     1       1.739   8.805  18.184  0.00  0.00    +0.000 A 
ATOM      3  C   UNL     1       1.026   9.680  19.034  0.00  0.00    +0.000 A 
ATOM      4  C   UNL     1       1.116   9.137  20.300  0.00  0.00    +0.000 A 
ATOM      5  O   UNL     1       1.859   7.999  20.275  0.00  0.00    +0.000 OA
ENDROOT
BRANCH   1  10
ATOM      6  C   UNL     1       2.750   5.297  18.899  0.00  0.00    +0.000 A 
ATOM      7  S   UNL     1       3.846   4.248  18.079  0.00  0.00    +0.000 S 
ATOM      8  C   UNL     1       4.498   5.591  17.242  0.00  0.00    +0.000 A 
ATOM      9  N   UNL     1       3.992   6.765  17.549  0.00  0.00    +0.000 NA
ATOM     10  C   UNL     1       2.987   6.599  18.487  0.00  0.00    +0.000 A 
BRANCH   6  11
ATOM     11  C   UNL     1       1.703   4.727  19.815  0.00  0.00    +0.000 C 
BRANCH  11  13
ATOM     12  C   UNL     1       1.493   2.720  21.412  0.00  0.00    +0.000 C 
ATOM     13  C   UNL     1       1.755   3.197  19.981  0.00  0.00    +0.000 C 
ATOM     14  C   UNL     1       0.720   2.554  19.051  0.00  0.00    +0.000 C 
ENDBRANCH  11  13
ENDBRANCH   6  11
ENDBRANCH   1  10
BRANCH   4  15
ATOM     15  P   UNL     1       0.412   9.923  21.795  0.00  0.00    +0.000 P 
ATOM     16  O   UNL     1       1.516   9.334  22.675  0.00  0.00    +0.000 OA
BRANCH  15  17
ATOM     17  O   UNL     1       0.908  11.421  21.350  0.00  0.00    +0.000 OA
ATOM     18  H   UNL     1       0.614  11.661  20.453  0.00  0.00    +0.000 HD
ENDBRANCH  15  17
BRANCH  15  19
ATOM     19  O   UNL     1      -0.253  10.667  23.208  0.00  0.00    +0.000 OA
ATOM     20  H   UNL     1      -0.956  11.235  22.825  0.00  0.00    +0.000 HD
ENDBRANCH  15  19
ENDBRANCH   4  15
TORSDOF 6
ENDMDL
MODEL 7
REMARK VINA RESULT:      -6.4      4.049      6.001
REMARK  Name = 
REMARK  8 active torsions:
REMARK  status: ('A' for Active; 'I' for Inactive)
REMARK    1  A    between atoms: C_1  and  C_2
REMARK    2  A    between atoms: C_2  and  C_3
REMARK    3  A    between atoms: C_2  and  C_4
REMARK    4  A    between atoms: C_4  and  C_5
REMARK    5  A    between atoms: C_9  and  C_10
REMARK    6  A    between atoms: C_13  and  P_14
REMARK    7  A    between atoms: P_14  and  O_16
REMARK    8  A    between atoms: P_14  and  O_17
REMARK                            x       y       z     vdW  Elec       q    Type
REMARK                         _______ _______ _______ _____ _____    ______ ____
ROOT
ATOM      1  C   UNL     1       4.509   3.867  18.079  0.00  0.00    +0.000 A 
ATOM      2  C   UNL     1       5.550   4.253  18.900  0.00  0.00    +0.000 A 
ATOM      3  C   UNL     1       6.598   4.686  18.056  0.00  0.00    +0.000 A 
ATOM      4  C   UNL     1       6.127   4.550  16.766  0.00  0.00    +0.000 A 
ATOM      5  O   UNL     1       4.851   4.082  16.775  0.00  0.00    +0.000 OA
ENDROOT
BRANCH   1  10
ATOM      6  C   UNL     1       2.009   3.993  18.499  0.00  0.00    +0.000 A 
ATOM      7  S   UNL     1       0.757   2.971  19.101  0.00  0.00    +0.000 S 
ATOM      8  C   UNL     1       1.899   1.715  19.326  0.00  0.00    +0.000 A 
ATOM      9  N   UNL     1       3.144   2.004  19.024  0.00  0.00    +0.000 NA
ATOM     10  C   UNL     1       3.209   3.301  18.542  0.00  0.00    +0.000 A 
BRANCH   6  11
ATOM     11  C   UNL     1       1.677   5.359  17.965  0.00  0.00    +0.000 C 
BRANCH  11  13
ATOM     12  C   UNL     1       2.242   7.869  17.927  0.00  0.00    +0.000 C 
ATOM     13  C   UNL     1       2.495   6.508  18.583  0.00  0.00    +0.000 C 
ATOM     14  C   UNL     1       2.167   6.614  20.077  0.00  0.00    +0.000 C 
ENDBRANCH  11  13
ENDBRANCH   6  11
ENDBRANCH   1  10
BRANCH   4  15
ATOM     15  P   UNL     1       7.078   5.040  15.280  0.00  0.00    +0.000 P 
ATOM     16  O   UNL     1       5.809   5.534  14.582  0.00  0.00    +0.000 OA
BRANCH  15  17
ATOM     17  O   UNL     1       7.746   6.338  16.027  0.00  0.00    +0.000 OA
ATOM     18  H   UNL     1       8.681   6.196  16.258  0.00  0.00    +0.000 HD
ENDBRANCH  15  17
BRANCH  15  19
ATOM     19  O   UNL     1       7.976   5.503  13.877  0.00  0.00    +0.000 OA
ATOM     20  H   UNL     1       8.542   6.224  14.229  0.00  0.00    +0.000 HD
ENDBRANCH  15  19
ENDBRANCH   4  15
TORSDOF 6
ENDMDL
MODEL 8
REMARK VINA RESULT:      -6.4      4.004      6.069
REMARK  Name = 
REMARK  8 active torsions:
REMARK  status: ('A' for Active; 'I' for Inactive)
REMARK    1  A    between atoms: C_1  and  C_2
REMARK    2  A    between atoms: C_2  and  C_3
REMARK    3  A    between atoms: C_2  and  C_4
REMARK    4  A    between atoms: C_4  and  C_5
REMARK    5  A    between atoms: C_9  and  C_10
REMARK    6  A    between atoms: C_13  and  P_14
REMARK    7  A    between atoms: P_14  and  O_16
REMARK    8  A    between atoms: P_14  and  O_17
REMARK                            x       y       z     vdW  Elec       q    Type
REMARK                         _______ _______ _______ _____ _____    ______ ____
ROOT
ATOM      1  C   UNL     1       4.340   3.971  18.312  0.00  0.00    +0.000 A 
ATOM      2  C   UNL     1       5.422   4.316  19.099  0.00  0.00    +0.000 A 
ATOM      3  C   UNL     1       6.466   4.685  18.220  0.00  0.00    +0.000 A 
ATOM      4  C   UNL     1       5.953   4.555  16.945  0.00  0.00    +0.000 A 
ATOM      5  O   UNL     1       4.657   4.152  16.996  0.00  0.00    +0.000 OA
ENDROOT
BRANCH   1  10
ATOM      6  C   UNL     1       2.281   4.128  19.786  0.00  0.00    +0.000 A 
ATOM      7  S   UNL     1       0.829   3.237  20.059  0.00  0.00    +0.000 S 
ATOM      8  C   UNL     1       1.302   2.109  18.863  0.00  0.00    +0.000 A 
ATOM      9  N   UNL     1       2.471   2.319  18.300  0.00  0.00    +0.000 NA
ATOM     10  C   UNL     1       3.028   3.476  18.818  0.00  0.00    +0.000 A 
BRANCH   6  11
ATOM     11  C   UNL     1       2.511   5.432  20.498  0.00  0.00    +0.000 C 
BRANCH  11  13
ATOM     12  C   UNL     1       1.571   7.806  20.820  0.00  0.00    +0.000 C 
ATOM     13  C   UNL     1       1.828   6.650  19.849  0.00  0.00    +0.000 C 
ATOM     14  C   UNL     1       2.698   7.161  18.695  0.00  0.00    +0.000 C 
ENDBRANCH  11  13
ENDBRANCH   6  11
ENDBRANCH   1  10
BRANCH   4  15
ATOM     15  P   UNL     1       6.886   4.978  15.428  0.00  0.00    +0.000 P 
ATOM     16  O   UNL     1       5.606   5.424  14.718  0.00  0.00    +0.000 OA
BRANCH  15  17
ATOM     17  O   UNL     1       7.547   6.318  16.101  0.00  0.00    +0.000 OA
ATOM     18  H   UNL     1       6.903   6.836  16.614  0.00  0.00    +0.000 HD
ENDBRANCH  15  17
BRANCH  15  19
ATOM     19  O   UNL     1       7.766   5.378  13.994  0.00  0.00    +0.000 OA
ATOM     20  H   UNL     1       8.683   5.138  14.247  0.00  0.00    +0.000 HD
ENDBRANCH  15  19
ENDBRANCH   4  15
TORSDOF 6
ENDMDL
MODEL 9
REMARK VINA RESULT:      -6.3      3.983      6.053
REMARK  Name = 
REMARK  8 active torsions:
REMARK  status: ('A' for Active; 'I' for Inactive)
REMARK    1  A    between atoms: C_1  and  C_2
REMARK    2  A    between atoms: C_2  and  C_3
REMARK    3  A    between atoms: C_2  and  C_4
REMARK    4  A    between atoms: C_4  and  C_5
REMARK    5  A    between atoms: C_9  and  C_10
REMARK    6  A    between atoms: C_13  and  P_14
REMARK    7  A    between atoms: P_14  and  O_16
REMARK    8  A    between atoms: P_14  and  O_17
REMARK                            x       y       z     vdW  Elec       q    Type
REMARK                         _______ _______ _______ _____ _____    ______ ____
ROOT
ATOM      1  C   UNL     1       4.827   4.197  18.417  0.00  0.00    +0.000 A 
ATOM      2  C   UNL     1       6.072   4.672  18.784  0.00  0.00    +0.000 A 
ATOM      3  C   UNL     1       6.842   4.755  17.602  0.00  0.00    +0.000 A 
ATOM      4  C   UNL     1       6.015   4.335  16.579  0.00  0.00    +0.000 A 
ATOM      5  O   UNL     1       4.784   4.025  17.063  0.00  0.00    +0.000 OA
ENDROOT
BRANCH   1  10
ATOM      6  C   UNL     1       2.522   4.640  19.382  0.00  0.00    +0.000 A 
ATOM      7  S   UNL     1       1.487   3.969  20.587  0.00  0.00    +0.000 S 
ATOM      8  C   UNL     1       2.665   2.776  20.929  0.00  0.00    +0.000 A 
ATOM      9  N   UNL     1       3.784   2.856  20.245  0.00  0.00    +0.000 NA
ATOM     10  C   UNL     1       3.702   3.913  19.354  0.00  0.00    +0.000 A 
BRANCH   6  11
ATOM     11  C   UNL     1       2.042   5.775  18.521  0.00  0.00    +0.000 C 
BRANCH  11  13
ATOM     12  C   UNL     1       2.464   8.208  17.797  0.00  0.00    +0.000 C 
ATOM     13  C   UNL     1       2.608   7.156  18.901  0.00  0.00    +0.000 C 
ATOM     14  C   UNL     1       1.896   7.664  20.160  0.00  0.00    +0.000 C 
ENDBRANCH  11  13
ENDBRANCH   6  11
ENDBRANCH   1  10
BRANCH   4  15
ATOM     15  P   UNL     1       6.510   4.314  14.817  0.00  0.00    +0.000 P 
ATOM     16  O   UNL     1       5.182   4.949  14.396  0.00  0.00    +0.000 OA
BRANCH  15  17
ATOM     17  O   UNL     1       7.582   5.540  15.011  0.00  0.00    +0.000 OA
ATOM     18  H   UNL     1       7.981   5.549  15.898  0.00  0.00    +0.000 HD
ENDBRANCH  15  17
BRANCH  15  19
ATOM     19  O   UNL     1       6.976   4.295  13.152  0.00  0.00    +0.000 OA
ATOM     20  H   UNL     1       6.129   4.075  12.707  0.00  0.00    +0.000 HD
ENDBRANCH  15  19
ENDBRANCH   4  15
TORSDOF 6
ENDMDL
