MODEL 1
REMARK VINA RESULT:      -8.8      0.000      0.000
REMARK  Name = 
REMARK  5 active torsions:
REMARK  status: ('A' for Active; 'I' for Inactive)
REMARK    1  A    between atoms: C_7  and  C_8
REMARK    2  A    between atoms: C_11  and  O_12
REMARK    3  A    between atoms: C_16  and  C_17
REMARK    4  A    between atoms: C_20  and  O_21
REMARK    5  A    between atoms: O_21  and  C_22
REMARK                            x       y       z     vdW  Elec       q    Type
REMARK                         _______ _______ _______ _____ _____    ______ ____
ROOT
ATOM      1  N   UNL     1       2.597  12.129  17.763  0.00  0.00    +0.000 N 
ATOM      2  C   UNL     1       1.648  12.712  18.553  0.00  0.00    +0.000 A 
ATOM      3  N   UNL     1       1.651  14.023  18.522  0.00  0.00    +0.000 NA
ATOM      4  C   UNL     1       0.682  14.709  19.212  0.00  0.00    +0.000 A 
ATOM      5  C   UNL     1      -0.286  14.115  19.917  0.00  0.00    +0.000 A 
ATOM      6  N   UNL     1      -0.292  12.733  20.020  0.00  0.00    +0.000 N 
ATOM      7  C   UNL     1      -1.114  11.851  20.710  0.00  0.00    +0.000 A 
ATOM      8  N   UNL     1      -0.756  10.607  20.438  0.00  0.00    +0.000 NA
ATOM      9  C   UNL     1       0.387  10.679  19.663  0.00  0.00    +0.000 A 
ATOM     10  C   UNL     1       0.665  11.994  19.350  0.00  0.00    +0.000 A 
ATOM     11  H   UNL     1       3.017  12.810  17.139  0.00  0.00    +0.000 HD
ATOM     12  H   UNL     1       2.302  11.286  17.283  0.00  0.00    +0.000 HD
ENDROOT
BRANCH   7  13
ATOM     13  C   UNL     1      -2.226  12.225  21.602  0.00  0.00    +0.000 A 
ATOM     14  C   UNL     1      -3.416  12.740  21.061  0.00  0.00    +0.000 A 
ATOM     15  C   UNL     1      -4.473  13.130  21.893  0.00  0.00    +0.000 A 
ATOM     16  C   UNL     1      -4.340  13.006  23.270  0.00  0.00    +0.000 A 
ATOM     17  C   UNL     1      -3.190  12.467  23.826  0.00  0.00    +0.000 A 
ATOM     18  C   UNL     1      -2.151  12.052  22.992  0.00  0.00    +0.000 A 
BRANCH  16  19
ATOM     19  O   UNL     1      -5.329  13.392  24.123  0.00  0.00    +0.000 OA
ATOM     20  H   UNL     1      -5.290  12.839  24.918  0.00  0.00    +0.000 HD
ENDBRANCH  16  19
ENDBRANCH   7  13
BRANCH   9  21
ATOM     21  C   UNL     1       1.115   9.474  19.286  0.00  0.00    +0.000 A 
ATOM     22  C   UNL     1       1.474   8.547  20.275  0.00  0.00    +0.000 A 
ATOM     23  C   UNL     1       2.193   7.393  19.946  0.00  0.00    +0.000 A 
ATOM     24  C   UNL     1       2.499   7.111  18.613  0.00  0.00    +0.000 A 
ATOM     25  C   UNL     1       2.189   8.048  17.630  0.00  0.00    +0.000 A 
ATOM     26  C   UNL     1       1.536   9.235  17.972  0.00  0.00    +0.000 A 
BRANCH  24  27
ATOM     27  O   UNL     1       3.163   5.986  18.180  0.00  0.00    +0.000 OA
BRANCH  27  28
ATOM     28  C   UNL     1       2.699   4.743  18.541  0.00  0.00    +0.000 A 
ATOM     29  C   UNL     1       1.523   4.173  18.045  0.00  0.00    +0.000 A 
ATOM     30  C   UNL     1       1.106   2.926  18.506  0.00  0.00    +0.000 A 
ATOM     31  C   UNL     1       1.892   2.217  19.412  0.00  0.00    +0.000 A 
ATOM     32  C   UNL     1       3.103   2.752  19.851  0.00  0.00    +0.000 A 
ATOM     33  C   UNL     1       3.507   4.014  19.415  0.00  0.00    +0.000 A 
ENDBRANCH  27  28
ENDBRANCH  24  27
ENDBRANCH   9  21
TORSDOF 5
ENDMDL
MODEL 2
REMARK VINA RESULT:      -8.7      0.186      1.257
REMARK  Name = 
REMARK  5 active torsions:
REMARK  status: ('A' for Active; 'I' for Inactive)
REMARK    1  A    between atoms: C_7  and  C_8
REMARK    2  A    between atoms: C_11  and  O_12
REMARK    3  A    between atoms: C_16  and  C_17
REMARK    4  A    between atoms: C_20  and  O_21
REMARK    5  A    between atoms: O_21  and  C_22
REMARK                            x       y       z     vdW  Elec       q    Type
REMARK                         _______ _______ _______ _____ _____    ______ ____
ROOT
ATOM      1  N   UNL     1       2.671  12.060  17.774  0.00  0.00    +0.000 N 
ATOM      2  C   UNL     1       1.694  12.666  18.511  0.00  0.00    +0.000 A 
ATOM      3  N   UNL     1       1.700  13.975  18.443  0.00  0.00    +0.000 NA
ATOM      4  C   UNL     1       0.708  14.681  19.076  0.00  0.00    +0.000 A 
ATOM      5  C   UNL     1      -0.287  14.108  19.761  0.00  0.00    +0.000 A 
ATOM      6  N   UNL     1      -0.300  12.730  19.903  0.00  0.00    +0.000 N 
ATOM      7  C   UNL     1      -1.148  11.869  20.586  0.00  0.00    +0.000 A 
ATOM      8  N   UNL     1      -0.782  10.617  20.363  0.00  0.00    +0.000 NA
ATOM      9  C   UNL     1       0.389  10.666  19.630  0.00  0.00    +0.000 A 
ATOM     10  C   UNL     1       0.681  11.972  19.290  0.00  0.00    +0.000 A 
ATOM     11  H   UNL     1       3.115  12.723  17.147  0.00  0.00    +0.000 HD
ATOM     12  H   UNL     1       2.393  11.204  17.307  0.00  0.00    +0.000 HD
ENDROOT
BRANCH   7  13
ATOM     13  C   UNL     1      -2.292  12.268  21.424  0.00  0.00    +0.000 A 
ATOM     14  C   UNL     1      -2.212  12.155  22.822  0.00  0.00    +0.000 A 
ATOM     15  C   UNL     1      -3.299  12.500  23.635  0.00  0.00    +0.000 A 
ATOM     16  C   UNL     1      -4.471  12.960  23.048  0.00  0.00    +0.000 A 
ATOM     17  C   UNL     1      -4.563  13.116  21.674  0.00  0.00    +0.000 A 
ATOM     18  C   UNL     1      -3.467  12.799  20.870  0.00  0.00    +0.000 A 
BRANCH  16  19
ATOM     19  O   UNL     1      -5.564  13.287  23.792  0.00  0.00    +0.000 OA
ATOM     20  H   UNL     1      -6.349  13.262  23.223  0.00  0.00    +0.000 HD
ENDBRANCH  16  19
ENDBRANCH   7  13
BRANCH   9  21
ATOM     21  C   UNL     1       1.128   9.450  19.315  0.00  0.00    +0.000 A 
ATOM     22  C   UNL     1       1.475   9.179  17.984  0.00  0.00    +0.000 A 
ATOM     23  C   UNL     1       2.164   8.009  17.648  0.00  0.00    +0.000 A 
ATOM     24  C   UNL     1       2.582   7.129  18.648  0.00  0.00    +0.000 A 
ATOM     25  C   UNL     1       2.202   7.364  19.967  0.00  0.00    +0.000 A 
ATOM     26  C   UNL     1       1.450   8.497  20.289  0.00  0.00    +0.000 A 
BRANCH  24  27
ATOM     27  O   UNL     1       3.301   5.975  18.430  0.00  0.00    +0.000 OA
BRANCH  27  28
ATOM     28  C   UNL     1       2.738   4.757  18.733  0.00  0.00    +0.000 A 
ATOM     29  C   UNL     1       1.624   4.225  18.078  0.00  0.00    +0.000 A 
ATOM     30  C   UNL     1       1.094   3.004  18.487  0.00  0.00    +0.000 A 
ATOM     31  C   UNL     1       1.709   2.280  19.506  0.00  0.00    +0.000 A 
ATOM     32  C   UNL     1       2.865   2.775  20.111  0.00  0.00    +0.000 A 
ATOM     33  C   UNL     1       3.380   4.012  19.724  0.00  0.00    +0.000 A 
ENDBRANCH  27  28
ENDBRANCH  24  27
ENDBRANCH   9  21
TORSDOF 5
ENDMDL
MODEL 3
REMARK VINA RESULT:      -8.6      1.563      2.267
REMARK  Name = 
REMARK  5 active torsions:
REMARK  status: ('A' for Active; 'I' for Inactive)
REMARK    1  A    between atoms: C_7  and  C_8
REMARK    2  A    between atoms: C_11  and  O_12
REMARK    3  A    between atoms: C_16  and  C_17
REMARK    4  A    between atoms: C_20  and  O_21
REMARK    5  A    between atoms: O_21  and  C_22
REMARK                            x       y       z     vdW  Elec       q    Type
REMARK                         _______ _______ _______ _____ _____    ______ ____
ROOT
ATOM      1  N   UNL     1       2.610  12.227  17.754  0.00  0.00    +0.000 N 
ATOM      2  C   UNL     1       1.659  12.785  18.559  0.00  0.00    +0.000 A 
ATOM      3  N   UNL     1       1.656  14.097  18.560  0.00  0.00    +0.000 NA
ATOM      4  C   UNL     1       0.685  14.761  19.266  0.00  0.00    +0.000 A 
ATOM      5  C   UNL     1      -0.281  14.146  19.957  0.00  0.00    +0.000 A 
ATOM      6  N   UNL     1      -0.281  12.762  20.027  0.00  0.00    +0.000 N 
ATOM      7  C   UNL     1      -1.097  11.860  20.695  0.00  0.00    +0.000 A 
ATOM      8  N   UNL     1      -0.734  10.624  20.393  0.00  0.00    +0.000 NA
ATOM      9  C   UNL     1       0.408  10.720  19.619  0.00  0.00    +0.000 A 
ATOM     10  C   UNL     1       0.680  12.044  19.338  0.00  0.00    +0.000 A 
ATOM     11  H   UNL     1       3.027  12.924  17.147  0.00  0.00    +0.000 HD
ATOM     12  H   UNL     1       2.319  11.395  17.253  0.00  0.00    +0.000 HD
ENDROOT
BRANCH   7  13
ATOM     13  C   UNL     1      -2.211  12.207  21.596  0.00  0.00    +0.000 A 
ATOM     14  C   UNL     1      -3.407  12.721  21.068  0.00  0.00    +0.000 A 
ATOM     15  C   UNL     1      -4.465  13.086  21.909  0.00  0.00    +0.000 A 
ATOM     16  C   UNL     1      -4.328  12.936  23.284  0.00  0.00    +0.000 A 
ATOM     17  C   UNL     1      -3.172  12.397  23.827  0.00  0.00    +0.000 A 
ATOM     18  C   UNL     1      -2.132  12.007  22.983  0.00  0.00    +0.000 A 
BRANCH  16  19
ATOM     19  O   UNL     1      -5.318  13.297  24.146  0.00  0.00    +0.000 OA
ATOM     20  H   UNL     1      -5.211  14.234  24.371  0.00  0.00    +0.000 HD
ENDBRANCH  16  19
ENDBRANCH   7  13
BRANCH   9  21
ATOM     21  C   UNL     1       1.141   9.528  19.212  0.00  0.00    +0.000 A 
ATOM     22  C   UNL     1       1.492   8.572  20.175  0.00  0.00    +0.000 A 
ATOM     23  C   UNL     1       2.215   7.429  19.819  0.00  0.00    +0.000 A 
ATOM     24  C   UNL     1       2.535   7.189  18.480  0.00  0.00    +0.000 A 
ATOM     25  C   UNL     1       2.234   8.155  17.523  0.00  0.00    +0.000 A 
ATOM     26  C   UNL     1       1.575   9.330  17.896  0.00  0.00    +0.000 A 
BRANCH  24  27
ATOM     27  O   UNL     1       3.204   6.078  18.019  0.00  0.00    +0.000 OA
BRANCH  27  28
ATOM     28  C   UNL     1       4.572   6.007  18.150  0.00  0.00    +0.000 A 
ATOM     29  C   UNL     1       5.223   5.339  19.191  0.00  0.00    +0.000 A 
ATOM     30  C   UNL     1       6.614   5.361  19.268  0.00  0.00    +0.000 A 
ATOM     31  C   UNL     1       7.360   5.994  18.276  0.00  0.00    +0.000 A 
ATOM     32  C   UNL     1       6.713   6.597  17.197  0.00  0.00    +0.000 A 
ATOM     33  C   UNL     1       5.320   6.603  17.133  0.00  0.00    +0.000 A 
ENDBRANCH  27  28
ENDBRANCH  24  27
ENDBRANCH   9  21
TORSDOF 5
ENDMDL
MODEL 4
REMARK VINA RESULT:      -8.6      1.586      2.631
REMARK  Name = 
REMARK  5 active torsions:
REMARK  status: ('A' for Active; 'I' for Inactive)
REMARK    1  A    between atoms: C_7  and  C_8
REMARK    2  A    between atoms: C_11  and  O_12
REMARK    3  A    between atoms: C_16  and  C_17
REMARK    4  A    between atoms: C_20  and  O_21
REMARK    5  A    between atoms: O_21  and  C_22
REMARK                            x       y       z     vdW  Elec       q    Type
REMARK                         _______ _______ _______ _____ _____    ______ ____
ROOT
ATOM      1  N   UNL     1       2.642  12.139  17.753  0.00  0.00    +0.000 N 
ATOM      2  C   UNL     1       1.699  12.722  18.551  0.00  0.00    +0.000 A 
ATOM      3  N   UNL     1       1.713  14.033  18.530  0.00  0.00    +0.000 NA
ATOM      4  C   UNL     1       0.751  14.721  19.227  0.00  0.00    +0.000 A 
ATOM      5  C   UNL     1      -0.220  14.129  19.930  0.00  0.00    +0.000 A 
ATOM      6  N   UNL     1      -0.237  12.746  20.023  0.00  0.00    +0.000 N 
ATOM      7  C   UNL     1      -1.063  11.865  20.707  0.00  0.00    +0.000 A 
ATOM      8  N   UNL     1      -0.715  10.621  20.425  0.00  0.00    +0.000 NA
ATOM      9  C   UNL     1       0.426  10.690  19.647  0.00  0.00    +0.000 A 
ATOM     10  C   UNL     1       0.713  12.006  19.344  0.00  0.00    +0.000 A 
ATOM     11  H   UNL     1       3.066  12.821  17.134  0.00  0.00    +0.000 HD
ATOM     12  H   UNL     1       2.340  11.302  17.267  0.00  0.00    +0.000 HD
ENDROOT
BRANCH   7  13
ATOM     13  C   UNL     1      -2.170  12.241  21.605  0.00  0.00    +0.000 A 
ATOM     14  C   UNL     1      -2.038  12.069  22.992  0.00  0.00    +0.000 A 
ATOM     15  C   UNL     1      -3.089  12.389  23.860  0.00  0.00    +0.000 A 
ATOM     16  C   UNL     1      -4.278  12.884  23.339  0.00  0.00    +0.000 A 
ATOM     17  C   UNL     1      -4.420  13.098  21.976  0.00  0.00    +0.000 A 
ATOM     18  C   UNL     1      -3.360  12.805  21.118  0.00  0.00    +0.000 A 
BRANCH  16  19
ATOM     19  O   UNL     1      -5.338  13.190  24.136  0.00  0.00    +0.000 OA
ATOM     20  H   UNL     1      -6.147  13.171  23.603  0.00  0.00    +0.000 HD
ENDBRANCH  16  19
ENDBRANCH   7  13
BRANCH   9  21
ATOM     21  C   UNL     1       1.144   9.482  19.259  0.00  0.00    +0.000 A 
ATOM     22  C   UNL     1       1.417   9.249  17.904  0.00  0.00    +0.000 A 
ATOM     23  C   UNL     1       2.084   8.087  17.499  0.00  0.00    +0.000 A 
ATOM     24  C   UNL     1       2.552   7.178  18.450  0.00  0.00    +0.000 A 
ATOM     25  C   UNL     1       2.244   7.376  19.793  0.00  0.00    +0.000 A 
ATOM     26  C   UNL     1       1.514   8.501  20.187  0.00  0.00    +0.000 A 
BRANCH  24  27
ATOM     27  O   UNL     1       3.254   6.030  18.160  0.00  0.00    +0.000 OA
BRANCH  27  28
ATOM     28  C   UNL     1       4.628   6.037  18.235  0.00  0.00    +0.000 A 
ATOM     29  C   UNL     1       5.363   5.337  19.195  0.00  0.00    +0.000 A 
ATOM     30  C   UNL     1       6.751   5.442  19.222  0.00  0.00    +0.000 A 
ATOM     31  C   UNL     1       7.414   6.194  18.254  0.00  0.00    +0.000 A 
ATOM     32  C   UNL     1       6.687   6.834  17.250  0.00  0.00    +0.000 A 
ATOM     33  C   UNL     1       5.295   6.754  17.239  0.00  0.00    +0.000 A 
ENDBRANCH  27  28
ENDBRANCH  24  27
ENDBRANCH   9  21
TORSDOF 5
ENDMDL
MODEL 5
REMARK VINA RESULT:      -8.6      1.587      2.393
REMARK  Name = 
REMARK  5 active torsions:
REMARK  status: ('A' for Active; 'I' for Inactive)
REMARK    1  A    between atoms: C_7  and  C_8
REMARK    2  A    between atoms: C_11  and  O_12
REMARK    3  A    between atoms: C_16  and  C_17
REMARK    4  A    between atoms: C_20  and  O_21
REMARK    5  A    between atoms: O_21  and  C_22
REMARK                            x       y       z     vdW  Elec       q    Type
REMARK                         _______ _______ _______ _____ _____    ______ ____
ROOT
ATOM      1  N   UNL     1       2.635  12.142  17.768  0.00  0.00    +0.000 N 
ATOM      2  C   UNL     1       1.686  12.722  18.560  0.00  0.00    +0.000 A 
ATOM      3  N   UNL     1       1.693  14.033  18.538  0.00  0.00    +0.000 NA
ATOM      4  C   UNL     1       0.725  14.718  19.230  0.00  0.00    +0.000 A 
ATOM      5  C   UNL     1      -0.246  14.122  19.930  0.00  0.00    +0.000 A 
ATOM      6  N   UNL     1      -0.257  12.740  20.023  0.00  0.00    +0.000 N 
ATOM      7  C   UNL     1      -1.082  11.856  20.706  0.00  0.00    +0.000 A 
ATOM      8  N   UNL     1      -0.728  10.612  20.426  0.00  0.00    +0.000 NA
ATOM      9  C   UNL     1       0.417  10.686  19.654  0.00  0.00    +0.000 A 
ATOM     10  C   UNL     1       0.699  12.003  19.350  0.00  0.00    +0.000 A 
ATOM     11  H   UNL     1       3.058  12.825  17.149  0.00  0.00    +0.000 HD
ATOM     12  H   UNL     1       2.338  11.304  17.281  0.00  0.00    +0.000 HD
ENDROOT
BRANCH   7  13
ATOM     13  C   UNL     1      -2.195  12.227  21.598  0.00  0.00    +0.000 A 
ATOM     14  C   UNL     1      -3.389  12.731  21.057  0.00  0.00    +0.000 A 
ATOM     15  C   UNL     1      -4.447  13.120  21.889  0.00  0.00    +0.000 A 
ATOM     16  C   UNL     1      -4.311  13.003  23.267  0.00  0.00    +0.000 A 
ATOM     17  C   UNL     1      -3.156  12.474  23.823  0.00  0.00    +0.000 A 
ATOM     18  C   UNL     1      -2.116  12.061  22.989  0.00  0.00    +0.000 A 
BRANCH  16  19
ATOM     19  O   UNL     1      -5.300  13.387  24.120  0.00  0.00    +0.000 OA
ATOM     20  H   UNL     1      -5.723  12.596  24.486  0.00  0.00    +0.000 HD
ENDBRANCH  16  19
ENDBRANCH   7  13
BRANCH   9  21
ATOM     21  C   UNL     1       1.141   9.481  19.270  0.00  0.00    +0.000 A 
ATOM     22  C   UNL     1       1.423   9.247  17.917  0.00  0.00    +0.000 A 
ATOM     23  C   UNL     1       2.097   8.089  17.515  0.00  0.00    +0.000 A 
ATOM     24  C   UNL     1       2.564   7.182  18.470  0.00  0.00    +0.000 A 
ATOM     25  C   UNL     1       2.248   7.380  19.811  0.00  0.00    +0.000 A 
ATOM     26  C   UNL     1       1.511   8.502  20.200  0.00  0.00    +0.000 A 
BRANCH  24  27
ATOM     27  O   UNL     1       3.272   6.037  18.185  0.00  0.00    +0.000 OA
BRANCH  27  28
ATOM     28  C   UNL     1       4.647   6.078  18.156  0.00  0.00    +0.000 A 
ATOM     29  C   UNL     1       5.387   6.804  17.219  0.00  0.00    +0.000 A 
ATOM     30  C   UNL     1       6.779   6.748  17.238  0.00  0.00    +0.000 A 
ATOM     31  C   UNL     1       7.436   6.020  18.228  0.00  0.00    +0.000 A 
ATOM     32  C   UNL     1       6.699   5.355  19.209  0.00  0.00    +0.000 A 
ATOM     33  C   UNL     1       5.305   5.385  19.174  0.00  0.00    +0.000 A 
ENDBRANCH  27  28
ENDBRANCH  24  27
ENDBRANCH   9  21
TORSDOF 5
ENDMDL
MODEL 6
REMARK VINA RESULT:      -8.5      0.560      1.041
REMARK  Name = 
REMARK  5 active torsions:
REMARK  status: ('A' for Active; 'I' for Inactive)
REMARK    1  A    between atoms: C_7  and  C_8
REMARK    2  A    between atoms: C_11  and  O_12
REMARK    3  A    between atoms: C_16  and  C_17
REMARK    4  A    between atoms: C_20  and  O_21
REMARK    5  A    between atoms: O_21  and  C_22
REMARK                            x       y       z     vdW  Elec       q    Type
REMARK                         _______ _______ _______ _____ _____    ______ ____
ROOT
ATOM      1  N   UNL     1       2.150  12.477  17.965  0.00  0.00    +0.000 N 
ATOM      2  C   UNL     1       1.170  13.021  18.746  0.00  0.00    +0.000 A 
ATOM      3  N   UNL     1       1.107  14.330  18.695  0.00  0.00    +0.000 NA
ATOM      4  C   UNL     1       0.103  14.976  19.373  0.00  0.00    +0.000 A 
ATOM      5  C   UNL     1      -0.836  14.344  20.085  0.00  0.00    +0.000 A 
ATOM      6  N   UNL     1      -0.773  12.965  20.208  0.00  0.00    +0.000 N 
ATOM      7  C   UNL     1      -1.550  12.053  20.909  0.00  0.00    +0.000 A 
ATOM      8  N   UNL     1      -1.128  10.824  20.656  0.00  0.00    +0.000 NA
ATOM      9  C   UNL     1       0.011  10.943  19.882  0.00  0.00    +0.000 A 
ATOM     10  C   UNL     1       0.223  12.267  19.550  0.00  0.00    +0.000 A 
ATOM     11  H   UNL     1       2.536  13.169  17.333  0.00  0.00    +0.000 HD
ATOM     12  H   UNL     1       1.900  11.613  17.497  0.00  0.00    +0.000 HD
ENDROOT
BRANCH   7  13
ATOM     13  C   UNL     1      -2.682  12.382  21.793  0.00  0.00    +0.000 A 
ATOM     14  C   UNL     1      -3.896  12.826  21.243  0.00  0.00    +0.000 A 
ATOM     15  C   UNL     1      -4.974  13.174  22.066  0.00  0.00    +0.000 A 
ATOM     16  C   UNL     1      -4.838  13.078  23.446  0.00  0.00    +0.000 A 
ATOM     17  C   UNL     1      -3.663  12.608  24.012  0.00  0.00    +0.000 A 
ATOM     18  C   UNL     1      -2.602  12.234  23.186  0.00  0.00    +0.000 A 
BRANCH  16  19
ATOM     19  O   UNL     1      -5.847  13.426  24.291  0.00  0.00    +0.000 OA
ATOM     20  H   UNL     1      -6.143  14.323  24.073  0.00  0.00    +0.000 HD
ENDBRANCH  16  19
ENDBRANCH   7  13
BRANCH   9  21
ATOM     21  C   UNL     1       0.800   9.771  19.524  0.00  0.00    +0.000 A 
ATOM     22  C   UNL     1       1.102   9.529  18.177  0.00  0.00    +0.000 A 
ATOM     23  C   UNL     1       1.838   8.400  17.800  0.00  0.00    +0.000 A 
ATOM     24  C   UNL     1       2.346   7.536  18.773  0.00  0.00    +0.000 A 
ATOM     25  C   UNL     1       2.011   7.741  20.109  0.00  0.00    +0.000 A 
ATOM     26  C   UNL     1       1.214   8.829  20.474  0.00  0.00    +0.000 A 
BRANCH  24  27
ATOM     27  O   UNL     1       3.115   6.425  18.512  0.00  0.00    +0.000 OA
BRANCH  27  28
ATOM     28  C   UNL     1       2.611   5.173  18.780  0.00  0.00    +0.000 A 
ATOM     29  C   UNL     1       1.738   4.484  17.933  0.00  0.00    +0.000 A 
ATOM     30  C   UNL     1       1.241   3.239  18.310  0.00  0.00    +0.000 A 
ATOM     31  C   UNL     1       1.662   2.650  19.501  0.00  0.00    +0.000 A 
ATOM     32  C   UNL     1       2.590   3.303  20.311  0.00  0.00    +0.000 A 
ATOM     33  C   UNL     1       3.066   4.563  19.951  0.00  0.00    +0.000 A 
ENDBRANCH  27  28
ENDBRANCH  24  27
ENDBRANCH   9  21
TORSDOF 5
ENDMDL
MODEL 7
REMARK VINA RESULT:      -8.4      0.333      1.288
REMARK  Name = 
REMARK  5 active torsions:
REMARK  status: ('A' for Active; 'I' for Inactive)
REMARK    1  A    between atoms: C_7  and  C_8
REMARK    2  A    between atoms: C_11  and  O_12
REMARK    3  A    between atoms: C_16  and  C_17
REMARK    4  A    between atoms: C_20  and  O_21
REMARK    5  A    between atoms: O_21  and  C_22
REMARK                            x       y       z     vdW  Elec       q    Type
REMARK                         _______ _______ _______ _____ _____    ______ ____
ROOT
ATOM      1  N   UNL     1       2.780  12.006  17.634  0.00  0.00    +0.000 N 
ATOM      2  C   UNL     1       1.809  12.616  18.377  0.00  0.00    +0.000 A 
ATOM      3  N   UNL     1       1.860  13.926  18.357  0.00  0.00    +0.000 NA
ATOM      4  C   UNL     1       0.880  14.642  18.999  0.00  0.00    +0.000 A 
ATOM      5  C   UNL     1      -0.146  14.078  19.644  0.00  0.00    +0.000 A 
ATOM      6  N   UNL     1      -0.207  12.696  19.735  0.00  0.00    +0.000 N 
ATOM      7  C   UNL     1      -1.096  11.839  20.370  0.00  0.00    +0.000 A 
ATOM      8  N   UNL     1      -0.767  10.585  20.107  0.00  0.00    +0.000 NA
ATOM      9  C   UNL     1       0.419  10.622  19.397  0.00  0.00    +0.000 A 
ATOM     10  C   UNL     1       0.760  11.929  19.111  0.00  0.00    +0.000 A 
ATOM     11  H   UNL     1       3.257  12.675  17.041  0.00  0.00    +0.000 HD
ATOM     12  H   UNL     1       2.483  11.178  17.131  0.00  0.00    +0.000 HD
ENDROOT
BRANCH   7  13
ATOM     13  C   UNL     1      -2.242  12.246  21.202  0.00  0.00    +0.000 A 
ATOM     14  C   UNL     1      -2.144  12.198  22.603  0.00  0.00    +0.000 A 
ATOM     15  C   UNL     1      -3.232  12.550  23.412  0.00  0.00    +0.000 A 
ATOM     16  C   UNL     1      -4.422  12.953  22.818  0.00  0.00    +0.000 A 
ATOM     17  C   UNL     1      -4.532  13.044  21.440  0.00  0.00    +0.000 A 
ATOM     18  C   UNL     1      -3.436  12.721  20.638  0.00  0.00    +0.000 A 
BRANCH  16  19
ATOM     19  O   UNL     1      -5.516  13.284  23.559  0.00  0.00    +0.000 OA
ATOM     20  H   UNL     1      -6.200  12.611  23.424  0.00  0.00    +0.000 HD
ENDBRANCH  16  19
ENDBRANCH   7  13
BRANCH   9  21
ATOM     21  C   UNL     1       1.123   9.394  19.049  0.00  0.00    +0.000 A 
ATOM     22  C   UNL     1       1.592   8.556  20.070  0.00  0.00    +0.000 A 
ATOM     23  C   UNL     1       2.292   7.382  19.767  0.00  0.00    +0.000 A 
ATOM     24  C   UNL     1       2.468   6.993  18.438  0.00  0.00    +0.000 A 
ATOM     25  C   UNL     1       2.049   7.842  17.417  0.00  0.00    +0.000 A 
ATOM     26  C   UNL     1       1.415   9.049  17.724  0.00  0.00    +0.000 A 
BRANCH  24  27
ATOM     27  O   UNL     1       3.103   5.840  18.034  0.00  0.00    +0.000 OA
BRANCH  27  28
ATOM     28  C   UNL     1       2.789   4.645  18.639  0.00  0.00    +0.000 A 
ATOM     29  C   UNL     1       3.626   3.982  19.541  0.00  0.00    +0.000 A 
ATOM     30  C   UNL     1       3.244   2.750  20.067  0.00  0.00    +0.000 A 
ATOM     31  C   UNL     1       2.002   2.208  19.747  0.00  0.00    +0.000 A 
ATOM     32  C   UNL     1       1.134   2.904  18.906  0.00  0.00    +0.000 A 
ATOM     33  C   UNL     1       1.526   4.123  18.353  0.00  0.00    +0.000 A 
ENDBRANCH  27  28
ENDBRANCH  24  27
ENDBRANCH   9  21
TORSDOF 5
ENDMDL
MODEL 8
REMARK VINA RESULT:      -8.4      0.885      1.270
REMARK  Name = 
REMARK  5 active torsions:
REMARK  status: ('A' for Active; 'I' for Inactive)
REMARK    1  A    between atoms: C_7  and  C_8
REMARK    2  A    between atoms: C_11  and  O_12
REMARK    3  A    between atoms: C_16  and  C_17
REMARK    4  A    between atoms: C_20  and  O_21
REMARK    5  A    between atoms: O_21  and  C_22
REMARK                            x       y       z     vdW  Elec       q    Type
REMARK                         _______ _______ _______ _____ _____    ______ ____
ROOT
ATOM      1  N   UNL     1       2.663  12.308  17.958  0.00  0.00    +0.000 N 
ATOM      2  C   UNL     1       1.592  12.949  18.511  0.00  0.00    +0.000 A 
ATOM      3  N   UNL     1       1.631  14.256  18.403  0.00  0.00    +0.000 NA
ATOM      4  C   UNL     1       0.563  14.995  18.848  0.00  0.00    +0.000 A 
ATOM      5  C   UNL     1      -0.537  14.457  19.385  0.00  0.00    +0.000 A 
ATOM      6  N   UNL     1      -0.595  13.085  19.567  0.00  0.00    +0.000 N 
ATOM      7  C   UNL     1      -1.555  12.257  20.135  0.00  0.00    +0.000 A 
ATOM      8  N   UNL     1      -1.180  10.994  20.013  0.00  0.00    +0.000 NA
ATOM      9  C   UNL     1       0.093  11.005  19.473  0.00  0.00    +0.000 A 
ATOM     10  C   UNL     1       0.457  12.295  19.142  0.00  0.00    +0.000 A 
ATOM     11  H   UNL     1       3.212  12.943  17.389  0.00  0.00    +0.000 HD
ATOM     12  H   UNL     1       2.448  11.440  17.480  0.00  0.00    +0.000 HD
ENDROOT
BRANCH   7  13
ATOM     13  C   UNL     1      -2.810  12.699  20.768  0.00  0.00    +0.000 A 
ATOM     14  C   UNL     1      -2.804  13.149  22.099  0.00  0.00    +0.000 A 
ATOM     15  C   UNL     1      -3.991  13.544  22.729  0.00  0.00    +0.000 A 
ATOM     16  C   UNL     1      -5.188  13.488  22.027  0.00  0.00    +0.000 A 
ATOM     17  C   UNL     1      -5.215  13.082  20.702  0.00  0.00    +0.000 A 
ATOM     18  C   UNL     1      -4.026  12.719  20.068  0.00  0.00    +0.000 A 
BRANCH  16  19
ATOM     19  O   UNL     1      -6.373  13.838  22.600  0.00  0.00    +0.000 OA
ATOM     20  H   UNL     1      -7.098  13.503  22.052  0.00  0.00    +0.000 HD
ENDBRANCH  16  19
ENDBRANCH   7  13
BRANCH   9  21
ATOM     21  C   UNL     1       0.852   9.770  19.318  0.00  0.00    +0.000 A 
ATOM     22  C   UNL     1       1.169   9.009  20.451  0.00  0.00    +0.000 A 
ATOM     23  C   UNL     1       1.916   7.831  20.336  0.00  0.00    +0.000 A 
ATOM     24  C   UNL     1       2.294   7.360  19.077  0.00  0.00    +0.000 A 
ATOM     25  C   UNL     1       2.026   8.133  17.950  0.00  0.00    +0.000 A 
ATOM     26  C   UNL     1       1.343   9.345  18.077  0.00  0.00    +0.000 A 
BRANCH  24  27
ATOM     27  O   UNL     1       2.992   6.195  18.851  0.00  0.00    +0.000 OA
BRANCH  27  28
ATOM     28  C   UNL     1       2.378   4.983  19.068  0.00  0.00    +0.000 A 
ATOM     29  C   UNL     1       1.823   4.195  18.056  0.00  0.00    +0.000 A 
ATOM     30  C   UNL     1       1.178   3.003  18.377  0.00  0.00    +0.000 A 
ATOM     31  C   UNL     1       1.140   2.562  19.699  0.00  0.00    +0.000 A 
ATOM     32  C   UNL     1       1.758   3.311  20.700  0.00  0.00    +0.000 A 
ATOM     33  C   UNL     1       2.378   4.520  20.386  0.00  0.00    +0.000 A 
ENDBRANCH  27  28
ENDBRANCH  24  27
ENDBRANCH   9  21
TORSDOF 5
ENDMDL
MODEL 9
REMARK VINA RESULT:      -8.4      0.926      1.426
REMARK  Name = 
REMARK  5 active torsions:
REMARK  status: ('A' for Active; 'I' for Inactive)
REMARK    1  A    between atoms: C_7  and  C_8
REMARK    2  A    between atoms: C_11  and  O_12
REMARK    3  A    between atoms: C_16  and  C_17
REMARK    4  A    between atoms: C_20  and  O_21
REMARK    5  A    between atoms: O_21  and  C_22
REMARK                            x       y       z     vdW  Elec       q    Type
REMARK                         _______ _______ _______ _____ _____    ______ ____
ROOT
ATOM      1  N   UNL     1       2.629  12.256  17.913  0.00  0.00    +0.000 N 
ATOM      2  C   UNL     1       1.572  12.912  18.477  0.00  0.00    +0.000 A 
ATOM      3  N   UNL     1       1.611  14.215  18.339  0.00  0.00    +0.000 NA
ATOM      4  C   UNL     1       0.554  14.966  18.793  0.00  0.00    +0.000 A 
ATOM      5  C   UNL     1      -0.534  14.442  19.366  0.00  0.00    +0.000 A 
ATOM      6  N   UNL     1      -0.590  13.074  19.580  0.00  0.00    +0.000 N 
ATOM      7  C   UNL     1      -1.537  12.261  20.188  0.00  0.00    +0.000 A 
ATOM      8  N   UNL     1      -1.167  10.995  20.085  0.00  0.00    +0.000 NA
ATOM      9  C   UNL     1       0.094  10.991  19.516  0.00  0.00    +0.000 A 
ATOM     10  C   UNL     1       0.451  12.273  19.148  0.00  0.00    +0.000 A 
ATOM     11  H   UNL     1       3.166  12.878  17.318  0.00  0.00    +0.000 HD
ATOM     12  H   UNL     1       2.402  11.378  17.460  0.00  0.00    +0.000 HD
ENDROOT
BRANCH   7  13
ATOM     13  C   UNL     1      -2.777  12.718  20.840  0.00  0.00    +0.000 A 
ATOM     14  C   UNL     1      -3.979  12.755  20.115  0.00  0.00    +0.000 A 
ATOM     15  C   UNL     1      -5.162  13.216  20.706  0.00  0.00    +0.000 A 
ATOM     16  C   UNL     1      -5.143  13.642  22.029  0.00  0.00    +0.000 A 
ATOM     17  C   UNL     1      -3.977  13.581  22.777  0.00  0.00    +0.000 A 
ATOM     18  C   UNL     1      -2.808  13.093  22.192  0.00  0.00    +0.000 A 
BRANCH  16  19
ATOM     19  O   UNL     1      -6.259  14.120  22.644  0.00  0.00    +0.000 OA
ATOM     20  H   UNL     1      -6.377  13.655  23.486  0.00  0.00    +0.000 HD
ENDBRANCH  16  19
ENDBRANCH   7  13
BRANCH   9  21
ATOM     21  C   UNL     1       0.847   9.752  19.370  0.00  0.00    +0.000 A 
ATOM     22  C   UNL     1       1.298   9.364  18.101  0.00  0.00    +0.000 A 
ATOM     23  C   UNL     1       2.004   8.169  17.927  0.00  0.00    +0.000 A 
ATOM     24  C   UNL     1       2.334   7.381  19.031  0.00  0.00    +0.000 A 
ATOM     25  C   UNL     1       1.849   7.731  20.289  0.00  0.00    +0.000 A 
ATOM     26  C   UNL     1       1.082   8.888  20.447  0.00  0.00    +0.000 A 
BRANCH  24  27
ATOM     27  O   UNL     1       3.059   6.212  18.974  0.00  0.00    +0.000 OA
BRANCH  27  28
ATOM     28  C   UNL     1       2.404   5.003  19.022  0.00  0.00    +0.000 A 
ATOM     29  C   UNL     1       1.675   4.552  20.126  0.00  0.00    +0.000 A 
ATOM     30  C   UNL     1       1.084   3.291  20.101  0.00  0.00    +0.000 A 
ATOM     31  C   UNL     1       1.164   2.504  18.954  0.00  0.00    +0.000 A 
ATOM     32  C   UNL     1       1.828   2.984  17.825  0.00  0.00    +0.000 A 
ATOM     33  C   UNL     1       2.447   4.233  17.858  0.00  0.00    +0.000 A 
ENDBRANCH  27  28
ENDBRANCH  24  27
ENDBRANCH   9  21
TORSDOF 5
ENDMDL
