MODEL 1
REMARK VINA RESULT:      -7.8      0.000      0.000
REMARK  Name = 
REMARK  6 active torsions:
REMARK  status: ('A' for Active; 'I' for Inactive)
REMARK    1  A    between atoms: C_1  and  C_2
REMARK    2  A    between atoms: C_2  and  C_3
REMARK    3  A    between atoms: C_5  and  N_6
REMARK    4  A    between atoms: C_9  and  C_10
REMARK    5  A    between atoms: C_14  and  N_15
REMARK    6  A    between atoms: C_16  and  C_17
REMARK                            x       y       z     vdW  Elec       q    Type
REMARK                         _______ _______ _______ _____ _____    ______ ____
ROOT
ATOM      1  C   UNL     1       6.000   6.299  17.105  0.00  0.00    +0.000 A 
ATOM      2  C   UNL     1       4.966   6.195  18.056  0.00  0.00    +0.000 A 
ATOM      3  C   UNL     1       4.125   5.084  18.077  0.00  0.00    +0.000 A 
ATOM      4  C   UNL     1       4.234   4.122  17.073  0.00  0.00    +0.000 A 
ATOM      5  C   UNL     1       5.185   4.280  16.056  0.00  0.00    +0.000 A 
ATOM      6  C   UNL     1       6.100   5.340  16.064  0.00  0.00    +0.000 A 
ENDROOT
BRANCH   3   7
ATOM      7  N   UNL     1       3.249   4.909  19.179  0.00  0.00    +0.000 N 
ATOM      8  C   UNL     1       2.466   5.866  19.786  0.00  0.00    +0.000 A 
ATOM      9  C   UNL     1       1.662   5.209  20.686  0.00  0.00    +0.000 A 
ATOM     10  C   UNL     1       2.063   3.861  20.615  0.00  0.00    +0.000 A 
ATOM     11  C   UNL     1       1.552   2.707  21.392  0.00  0.00    +0.000 C 
ATOM     12  N   UNL     1       3.014   3.677  19.696  0.00  0.00    +0.000 NA
ENDBRANCH   3   7
BRANCH   6  13
ATOM     13  N   UNL     1       7.113   5.505  15.095  0.00  0.00    +0.000 N 
ATOM     14  C   UNL     1       7.351   5.017  13.847  0.00  0.00    +0.000 C 
ATOM     15  C   UNL     1       6.474   3.994  13.187  0.00  0.00    +0.000 C 
ATOM     16  O   UNL     1       8.340   5.450  13.244  0.00  0.00    +0.000 OA
ATOM     17  H   UNL     1       7.852   6.153  15.327  0.00  0.00    +0.000 HD
ENDBRANCH   6  13
BRANCH   1  19
ATOM     18  C   UNL     1       7.974   6.847  18.511  0.00  0.00    +0.000 C 
ATOM     19  C   UNL     1       7.055   7.348  17.400  0.00  0.00    +0.000 C 
ENDBRANCH   1  19
TORSDOF 3
ENDMDL
MODEL 2
REMARK VINA RESULT:      -7.4      0.978      1.080
REMARK  Name = 
REMARK  6 active torsions:
REMARK  status: ('A' for Active; 'I' for Inactive)
REMARK    1  A    between atoms: C_1  and  C_2
REMARK    2  A    between atoms: C_2  and  C_3
REMARK    3  A    between atoms: C_5  and  N_6
REMARK    4  A    between atoms: C_9  and  C_10
REMARK    5  A    between atoms: C_14  and  N_15
REMARK    6  A    between atoms: C_16  and  C_17
REMARK                            x       y       z     vdW  Elec       q    Type
REMARK                         _______ _______ _______ _____ _____    ______ ____
ROOT
ATOM      1  C   UNL     1       6.461   5.331  17.877  0.00  0.00    +0.000 A 
ATOM      2  C   UNL     1       5.486   5.261  18.891  0.00  0.00    +0.000 A 
ATOM      3  C   UNL     1       4.129   5.313  18.581  0.00  0.00    +0.000 A 
ATOM      4  C   UNL     1       3.735   5.555  17.266  0.00  0.00    +0.000 A 
ATOM      5  C   UNL     1       4.703   5.742  16.271  0.00  0.00    +0.000 A 
ATOM      6  C   UNL     1       6.069   5.605  16.541  0.00  0.00    +0.000 A 
ENDROOT
BRANCH   3   7
ATOM      7  N   UNL     1       3.183   5.015  19.596  0.00  0.00    +0.000 N 
ATOM      8  C   UNL     1       2.185   5.833  20.077  0.00  0.00    +0.000 A 
ATOM      9  C   UNL     1       1.415   5.068  20.920  0.00  0.00    +0.000 A 
ATOM     10  C   UNL     1       2.049   3.811  20.950  0.00  0.00    +0.000 A 
ATOM     11  C   UNL     1       1.667   2.607  21.723  0.00  0.00    +0.000 C 
ATOM     12  N   UNL     1       3.112   3.775  20.142  0.00  0.00    +0.000 NA
ENDBRANCH   3   7
BRANCH   6  13
ATOM     13  N   UNL     1       7.076   5.725  15.559  0.00  0.00    +0.000 N 
ATOM     14  C   UNL     1       7.321   5.158  14.346  0.00  0.00    +0.000 C 
ATOM     15  C   UNL     1       6.464   4.075  13.761  0.00  0.00    +0.000 C 
ATOM     16  O   UNL     1       8.299   5.569  13.711  0.00  0.00    +0.000 OA
ATOM     17  H   UNL     1       7.802   6.403  15.743  0.00  0.00    +0.000 HD
ENDBRANCH   6  13
BRANCH   1  19
ATOM     18  C   UNL     1       8.267   5.655  19.552  0.00  0.00    +0.000 C 
ATOM     19  C   UNL     1       7.859   4.907  18.286  0.00  0.00    +0.000 C 
ENDBRANCH   1  19
TORSDOF 3
ENDMDL
MODEL 3
REMARK VINA RESULT:      -7.3      1.101      1.423
REMARK  Name = 
REMARK  6 active torsions:
REMARK  status: ('A' for Active; 'I' for Inactive)
REMARK    1  A    between atoms: C_1  and  C_2
REMARK    2  A    between atoms: C_2  and  C_3
REMARK    3  A    between atoms: C_5  and  N_6
REMARK    4  A    between atoms: C_9  and  C_10
REMARK    5  A    between atoms: C_14  and  N_15
REMARK    6  A    between atoms: C_16  and  C_17
REMARK                            x       y       z     vdW  Elec       q    Type
REMARK                         _______ _______ _______ _____ _____    ______ ____
ROOT
ATOM      1  C   UNL     1       6.504   5.716  16.942  0.00  0.00    +0.000 A 
ATOM      2  C   UNL     1       5.509   5.317  17.855  0.00  0.00    +0.000 A 
ATOM      3  C   UNL     1       4.718   4.197  17.604  0.00  0.00    +0.000 A 
ATOM      4  C   UNL     1       4.835   3.535  16.382  0.00  0.00    +0.000 A 
ATOM      5  C   UNL     1       5.742   3.999  15.421  0.00  0.00    +0.000 A 
ATOM      6  C   UNL     1       6.610   5.066  15.685  0.00  0.00    +0.000 A 
ENDROOT
BRANCH   3   7
ATOM      7  N   UNL     1       3.889   3.698  18.641  0.00  0.00    +0.000 N 
ATOM      8  C   UNL     1       4.227   2.792  19.621  0.00  0.00    +0.000 A 
ATOM      9  C   UNL     1       3.171   2.742  20.499  0.00  0.00    +0.000 A 
ATOM     10  C   UNL     1       2.200   3.600  19.947  0.00  0.00    +0.000 A 
ATOM     11  C   UNL     1       0.845   3.906  20.462  0.00  0.00    +0.000 C 
ATOM     12  N   UNL     1       2.637   4.187  18.830  0.00  0.00    +0.000 NA
ENDBRANCH   3   7
BRANCH   6  13
ATOM     13  N   UNL     1       7.581   5.528  14.771  0.00  0.00    +0.000 N 
ATOM     14  C   UNL     1       7.844   5.329  13.450  0.00  0.00    +0.000 C 
ATOM     15  C   UNL     1       7.064   4.373  12.596  0.00  0.00    +0.000 C 
ATOM     16  O   UNL     1       8.770   5.975  12.949  0.00  0.00    +0.000 OA
ATOM     17  H   UNL     1       8.254   6.191  15.130  0.00  0.00    +0.000 HD
ENDBRANCH   6  13
BRANCH   1  19
ATOM     18  C   UNL     1       7.912   6.313  18.900  0.00  0.00    +0.000 C 
ATOM     19  C   UNL     1       7.522   6.705  17.478  0.00  0.00    +0.000 C 
ENDBRANCH   1  19
TORSDOF 3
ENDMDL
MODEL 4
REMARK VINA RESULT:      -7.3      1.425      1.668
REMARK  Name = 
REMARK  6 active torsions:
REMARK  status: ('A' for Active; 'I' for Inactive)
REMARK    1  A    between atoms: C_1  and  C_2
REMARK    2  A    between atoms: C_2  and  C_3
REMARK    3  A    between atoms: C_5  and  N_6
REMARK    4  A    between atoms: C_9  and  C_10
REMARK    5  A    between atoms: C_14  and  N_15
REMARK    6  A    between atoms: C_16  and  C_17
REMARK                            x       y       z     vdW  Elec       q    Type
REMARK                         _______ _______ _______ _____ _____    ______ ____
ROOT
ATOM      1  C   UNL     1       6.428   4.729  17.346  0.00  0.00    +0.000 A 
ATOM      2  C   UNL     1       5.378   4.336  18.198  0.00  0.00    +0.000 A 
ATOM      3  C   UNL     1       4.145   3.947  17.679  0.00  0.00    +0.000 A 
ATOM      4  C   UNL     1       3.911   4.061  16.309  0.00  0.00    +0.000 A 
ATOM      5  C   UNL     1       4.915   4.563  15.470  0.00  0.00    +0.000 A 
ATOM      6  C   UNL     1       6.190   4.875  15.955  0.00  0.00    +0.000 A 
ENDROOT
BRANCH   3   7
ATOM      7  N   UNL     1       3.195   3.348  18.545  0.00  0.00    +0.000 N 
ATOM      8  C   UNL     1       2.282   2.365  18.236  0.00  0.00    +0.000 A 
ATOM      9  C   UNL     1       1.698   1.976  19.418  0.00  0.00    +0.000 A 
ATOM     10  C   UNL     1       2.264   2.818  20.395  0.00  0.00    +0.000 A 
ATOM     11  C   UNL     1       1.978   2.861  21.848  0.00  0.00    +0.000 C 
ATOM     12  N   UNL     1       3.177   3.640  19.871  0.00  0.00    +0.000 NA
ENDBRANCH   3   7
BRANCH   6  13
ATOM     13  N   UNL     1       7.249   5.325  15.137  0.00  0.00    +0.000 N 
ATOM     14  C   UNL     1       7.613   5.151  13.838  0.00  0.00    +0.000 C 
ATOM     15  C   UNL     1       6.874   4.248  12.895  0.00  0.00    +0.000 C 
ATOM     16  O   UNL     1       8.600   5.777  13.433  0.00  0.00    +0.000 OA
ATOM     17  H   UNL     1       7.912   5.953  15.570  0.00  0.00    +0.000 HD
ENDBRANCH   6  13
BRANCH   1  19
ATOM     18  C   UNL     1       7.802   5.805  19.114  0.00  0.00    +0.000 C 
ATOM     19  C   UNL     1       7.802   4.778  17.985  0.00  0.00    +0.000 C 
ENDBRANCH   1  19
TORSDOF 3
ENDMDL
MODEL 5
REMARK VINA RESULT:      -7.2      3.068      6.925
REMARK  Name = 
REMARK  6 active torsions:
REMARK  status: ('A' for Active; 'I' for Inactive)
REMARK    1  A    between atoms: C_1  and  C_2
REMARK    2  A    between atoms: C_2  and  C_3
REMARK    3  A    between atoms: C_5  and  N_6
REMARK    4  A    between atoms: C_9  and  C_10
REMARK    5  A    between atoms: C_14  and  N_15
REMARK    6  A    between atoms: C_16  and  C_17
REMARK                            x       y       z     vdW  Elec       q    Type
REMARK                         _______ _______ _______ _____ _____    ______ ____
ROOT
ATOM      1  C   UNL     1       3.557   3.108  18.166  0.00  0.00    +0.000 A 
ATOM      2  C   UNL     1       4.090   3.455  16.910  0.00  0.00    +0.000 A 
ATOM      3  C   UNL     1       5.211   4.278  16.815  0.00  0.00    +0.000 A 
ATOM      4  C   UNL     1       5.738   4.856  17.969  0.00  0.00    +0.000 A 
ATOM      5  C   UNL     1       5.138   4.607  19.210  0.00  0.00    +0.000 A 
ATOM      6  C   UNL     1       4.068   3.714  19.342  0.00  0.00    +0.000 A 
ENDROOT
BRANCH   3   7
ATOM      7  N   UNL     1       5.849   4.421  15.556  0.00  0.00    +0.000 N 
ATOM      8  C   UNL     1       6.978   5.155  15.268  0.00  0.00    +0.000 A 
ATOM      9  C   UNL     1       7.325   4.860  13.971  0.00  0.00    +0.000 A 
ATOM     10  C   UNL     1       6.318   3.988  13.516  0.00  0.00    +0.000 A 
ATOM     11  C   UNL     1       6.170   3.374  12.175  0.00  0.00    +0.000 C 
ATOM     12  N   UNL     1       5.432   3.712  14.476  0.00  0.00    +0.000 NA
ENDBRANCH   3   7
BRANCH   6  13
ATOM     13  N   UNL     1       3.473   3.385  20.580  0.00  0.00    +0.000 N 
ATOM     14  C   UNL     1       2.412   3.845  21.298  0.00  0.00    +0.000 C 
ATOM     15  C   UNL     1       1.583   5.021  20.873  0.00  0.00    +0.000 C 
ATOM     16  O   UNL     1       2.133   3.251  22.346  0.00  0.00    +0.000 OA
ATOM     17  H   UNL     1       3.882   2.610  21.081  0.00  0.00    +0.000 HD
ENDBRANCH   6  13
BRANCH   1  19
ATOM     18  C   UNL     1       1.159   2.470  18.295  0.00  0.00    +0.000 C 
ATOM     19  C   UNL     1       2.585   1.943  18.162  0.00  0.00    +0.000 C 
ENDBRANCH   1  19
TORSDOF 3
ENDMDL
MODEL 6
REMARK VINA RESULT:      -6.9      3.582      5.689
REMARK  Name = 
REMARK  6 active torsions:
REMARK  status: ('A' for Active; 'I' for Inactive)
REMARK    1  A    between atoms: C_1  and  C_2
REMARK    2  A    between atoms: C_2  and  C_3
REMARK    3  A    between atoms: C_5  and  N_6
REMARK    4  A    between atoms: C_9  and  C_10
REMARK    5  A    between atoms: C_14  and  N_15
REMARK    6  A    between atoms: C_16  and  C_17
REMARK                            x       y       z     vdW  Elec       q    Type
REMARK                         _______ _______ _______ _____ _____    ______ ____
ROOT
ATOM      1  C   UNL     1       2.648   5.063  20.140  0.00  0.00    +0.000 A 
ATOM      2  C   UNL     1       2.204   6.399  20.174  0.00  0.00    +0.000 A 
ATOM      3  C   UNL     1       2.448   7.260  19.105  0.00  0.00    +0.000 A 
ATOM      4  C   UNL     1       3.241   6.827  18.044  0.00  0.00    +0.000 A 
ATOM      5  C   UNL     1       3.784   5.535  18.060  0.00  0.00    +0.000 A 
ATOM      6  C   UNL     1       3.480   4.624  19.077  0.00  0.00    +0.000 A 
ENDROOT
BRANCH   3   7
ATOM      7  N   UNL     1       1.795   8.519  19.078  0.00  0.00    +0.000 N 
ATOM      8  C   UNL     1       1.632   9.355  17.996  0.00  0.00    +0.000 A 
ATOM      9  C   UNL     1       0.796  10.368  18.398  0.00  0.00    +0.000 A 
ATOM     10  C   UNL     1       0.546  10.114  19.760  0.00  0.00    +0.000 A 
ATOM     11  C   UNL     1      -0.271  10.906  20.709  0.00  0.00    +0.000 C 
ATOM     12  N   UNL     1       1.140   8.990  20.170  0.00  0.00    +0.000 NA
ENDBRANCH   3   7
BRANCH   6  13
ATOM     13  N   UNL     1       3.954   3.294  19.103  0.00  0.00    +0.000 N 
ATOM     14  C   UNL     1       3.592   2.123  18.513  0.00  0.00    +0.000 C 
ATOM     15  C   UNL     1       2.384   1.989  17.633  0.00  0.00    +0.000 C 
ATOM     16  O   UNL     1       4.305   1.135  18.722  0.00  0.00    +0.000 OA
ATOM     17  H   UNL     1       4.778   3.124  19.664  0.00  0.00    +0.000 HD
ENDBRANCH   6  13
BRANCH   1  19
ATOM     18  C   UNL     1       0.799   3.461  20.568  0.00  0.00    +0.000 C 
ATOM     19  C   UNL     1       2.024   4.142  21.171  0.00  0.00    +0.000 C 
ENDBRANCH   1  19
TORSDOF 3
ENDMDL
MODEL 7
REMARK VINA RESULT:      -6.8      4.483      6.764
REMARK  Name = 
REMARK  6 active torsions:
REMARK  status: ('A' for Active; 'I' for Inactive)
REMARK    1  A    between atoms: C_1  and  C_2
REMARK    2  A    between atoms: C_2  and  C_3
REMARK    3  A    between atoms: C_5  and  N_6
REMARK    4  A    between atoms: C_9  and  C_10
REMARK    5  A    between atoms: C_14  and  N_15
REMARK    6  A    between atoms: C_16  and  C_17
REMARK                            x       y       z     vdW  Elec       q    Type
REMARK                         _______ _______ _______ _____ _____    ______ ____
ROOT
ATOM      1  C   UNL     1       1.500   8.375  20.157  0.00  0.00    +0.000 A 
ATOM      2  C   UNL     1       2.045   7.087  19.996  0.00  0.00    +0.000 A 
ATOM      3  C   UNL     1       2.707   6.733  18.822  0.00  0.00    +0.000 A 
ATOM      4  C   UNL     1       2.728   7.626  17.751  0.00  0.00    +0.000 A 
ATOM      5  C   UNL     1       2.086   8.866  17.864  0.00  0.00    +0.000 A 
ATOM      6  C   UNL     1       1.493   9.279  19.063  0.00  0.00    +0.000 A 
ENDROOT
BRANCH   3   7
ATOM      7  N   UNL     1       3.431   5.514  18.785  0.00  0.00    +0.000 N 
ATOM      8  C   UNL     1       4.691   5.273  19.285  0.00  0.00    +0.000 A 
ATOM      9  C   UNL     1       4.910   3.921  19.180  0.00  0.00    +0.000 A 
ATOM     10  C   UNL     1       3.760   3.416  18.543  0.00  0.00    +0.000 A 
ATOM     11  C   UNL     1       3.466   2.018  18.149  0.00  0.00    +0.000 C 
ATOM     12  N   UNL     1       2.860   4.376  18.314  0.00  0.00    +0.000 NA
ENDBRANCH   3   7
BRANCH   6  13
ATOM     13  N   UNL     1       0.888  10.543  19.241  0.00  0.00    +0.000 N 
ATOM     14  C   UNL     1      -0.336  11.078  18.983  0.00  0.00    +0.000 C 
ATOM     15  C   UNL     1      -1.429  10.322  18.287  0.00  0.00    +0.000 C 
ATOM     16  O   UNL     1      -0.538  12.241  19.349  0.00  0.00    +0.000 OA
ATOM     17  H   UNL     1       1.455  11.250  19.689  0.00  0.00    +0.000 HD
ENDBRANCH   6  13
BRANCH   1  19
ATOM     18  C   UNL     1      -0.355   8.507  21.804  0.00  0.00    +0.000 C 
ATOM     19  C   UNL     1       1.134   8.756  21.579  0.00  0.00    +0.000 C 
ENDBRANCH   1  19
TORSDOF 3
ENDMDL
MODEL 8
REMARK VINA RESULT:      -6.8      3.903      5.766
REMARK  Name = 
REMARK  6 active torsions:
REMARK  status: ('A' for Active; 'I' for Inactive)
REMARK    1  A    between atoms: C_1  and  C_2
REMARK    2  A    between atoms: C_2  and  C_3
REMARK    3  A    between atoms: C_5  and  N_6
REMARK    4  A    between atoms: C_9  and  C_10
REMARK    5  A    between atoms: C_14  and  N_15
REMARK    6  A    between atoms: C_16  and  C_17
REMARK                            x       y       z     vdW  Elec       q    Type
REMARK                         _______ _______ _______ _____ _____    ______ ____
ROOT
ATOM      1  C   UNL     1       2.532   6.190  19.916  0.00  0.00    +0.000 A 
ATOM      2  C   UNL     1       1.852   7.307  20.439  0.00  0.00    +0.000 A 
ATOM      3  C   UNL     1       1.616   8.432  19.651  0.00  0.00    +0.000 A 
ATOM      4  C   UNL     1       2.161   8.498  18.370  0.00  0.00    +0.000 A 
ATOM      5  C   UNL     1       2.939   7.437  17.887  0.00  0.00    +0.000 A 
ATOM      6  C   UNL     1       3.114   6.261  18.624  0.00  0.00    +0.000 A 
ENDROOT
BRANCH   3   7
ATOM      7  N   UNL     1       0.738   9.435  20.137  0.00  0.00    +0.000 N 
ATOM      8  C   UNL     1      -0.034  10.302  19.396  0.00  0.00    +0.000 A 
ATOM      9  C   UNL     1      -0.845  10.969  20.283  0.00  0.00    +0.000 A 
ATOM     10  C   UNL     1      -0.458  10.500  21.553  0.00  0.00    +0.000 A 
ATOM     11  C   UNL     1      -0.979  10.901  22.880  0.00  0.00    +0.000 C 
ATOM     12  N   UNL     1       0.492   9.564  21.465  0.00  0.00    +0.000 NA
ENDBRANCH   3   7
BRANCH   6  13
ATOM     13  N   UNL     1       3.838   5.144  18.153  0.00  0.00    +0.000 N 
ATOM     14  C   UNL     1       3.525   3.982  17.516  0.00  0.00    +0.000 C 
ATOM     15  C   UNL     1       2.115   3.574  17.205  0.00  0.00    +0.000 C 
ATOM     16  O   UNL     1       4.459   3.243  17.186  0.00  0.00    +0.000 OA
ATOM     17  H   UNL     1       4.841   5.178  18.272  0.00  0.00    +0.000 HD
ENDBRANCH   6  13
BRANCH   1  19
ATOM     18  C   UNL     1       1.021   4.319  20.538  0.00  0.00    +0.000 C 
ATOM     19  C   UNL     1       2.413   4.915  20.729  0.00  0.00    +0.000 C 
ENDBRANCH   1  19
TORSDOF 3
ENDMDL
MODEL 9
REMARK VINA RESULT:      -6.8      2.831      6.931
REMARK  Name = 
REMARK  6 active torsions:
REMARK  status: ('A' for Active; 'I' for Inactive)
REMARK    1  A    between atoms: C_1  and  C_2
REMARK    2  A    between atoms: C_2  and  C_3
REMARK    3  A    between atoms: C_5  and  N_6
REMARK    4  A    between atoms: C_9  and  C_10
REMARK    5  A    between atoms: C_14  and  N_15
REMARK    6  A    between atoms: C_16  and  C_17
REMARK                            x       y       z     vdW  Elec       q    Type
REMARK                         _______ _______ _______ _____ _____    ______ ____
ROOT
ATOM      1  C   UNL     1       3.711   3.950  17.483  0.00  0.00    +0.000 A 
ATOM      2  C   UNL     1       4.354   4.161  16.248  0.00  0.00    +0.000 A 
ATOM      3  C   UNL     1       5.706   4.494  16.196  0.00  0.00    +0.000 A 
ATOM      4  C   UNL     1       6.399   4.736  17.381  0.00  0.00    +0.000 A 
ATOM      5  C   UNL     1       5.733   4.643  18.610  0.00  0.00    +0.000 A 
ATOM      6  C   UNL     1       4.400   4.222  18.693  0.00  0.00    +0.000 A 
ENDROOT
BRANCH   3   7
ATOM      7  N   UNL     1       6.367   4.476  14.941  0.00  0.00    +0.000 N 
ATOM      8  C   UNL     1       6.054   3.709  13.841  0.00  0.00    +0.000 A 
ATOM      9  C   UNL     1       6.848   4.150  12.809  0.00  0.00    +0.000 A 
ATOM     10  C   UNL     1       7.665   5.144  13.380  0.00  0.00    +0.000 A 
ATOM     11  C   UNL     1       8.734   5.941  12.732  0.00  0.00    +0.000 C 
ATOM     12  N   UNL     1       7.367   5.350  14.666  0.00  0.00    +0.000 NA
ENDBRANCH   3   7
BRANCH   6  13
ATOM     13  N   UNL     1       3.708   4.055  19.912  0.00  0.00    +0.000 N 
ATOM     14  C   UNL     1       2.718   4.723  20.565  0.00  0.00    +0.000 C 
ATOM     15  C   UNL     1       2.127   6.008  20.062  0.00  0.00    +0.000 C 
ATOM     16  O   UNL     1       2.297   4.232  21.619  0.00  0.00    +0.000 OA
ATOM     17  H   UNL     1       3.954   3.242  20.458  0.00  0.00    +0.000 HD
ENDBRANCH   6  13
BRANCH   1  19
ATOM     18  C   UNL     1       2.515   1.809  17.881  0.00  0.00    +0.000 C 
ATOM     19  C   UNL     1       2.366   3.253  17.408  0.00  0.00    +0.000 C 
ENDBRANCH   1  19
TORSDOF 3
ENDMDL
