MODEL 1
REMARK VINA RESULT:      -9.2      0.000      0.000
REMARK  Name = 
REMARK  5 active torsions:
REMARK  status: ('A' for Active; 'I' for Inactive)
REMARK    1  A    between atoms: C_1  and  C_2
REMARK    2  A    between atoms: C_13  and  C_14
REMARK    3  A    between atoms: N_16  and  C_17
REMARK    4  A    between atoms: N_24  and  C_25
REMARK    5  A    between atoms: C_25  and  C_26
REMARK                            x       y       z     vdW  Elec       q    Type
REMARK                         _______ _______ _______ _____ _____    ______ ____
ROOT
ATOM      1  C   UNL     1       2.060   7.962  19.274  0.00  0.00    +0.000 C 
ATOM      2  O   UNL     1       2.087   8.405  18.130  0.00  0.00    +0.000 OA
ATOM      3  N   UNL     1       2.729   6.822  19.696  0.00  0.00    +0.000 N 
ATOM      4  H   UNL     1       2.605   6.571  20.672  0.00  0.00    +0.000 HD
ENDROOT
BRANCH   1  17
ATOM      5  C   UNL     1      -1.038  12.876  19.104  0.00  0.00    +0.000 C 
ATOM      6  C   UNL     1       0.071  12.907  20.163  0.00  0.00    +0.000 C 
ATOM      7  C   UNL     1       0.310  14.364  20.626  0.00  0.00    +0.000 C 
ATOM      8  C   UNL     1       0.548  14.541  22.113  0.00  0.00    +0.000 C 
ATOM      9  N   UNL     1      -0.708  14.425  22.809  0.00  0.00    +0.000 N 
ATOM     10  C   UNL     1      -1.460  13.291  22.916  0.00  0.00    +0.000 C 
ATOM     11  O   UNL     1      -2.519  13.335  23.541  0.00  0.00    +0.000 OA
ATOM     12  C   UNL     1      -0.912  12.076  22.361  0.00  0.00    +0.000 A 
ATOM     13  C   UNL     1      -1.025  10.832  22.954  0.00  0.00    +0.000 A 
ATOM     14  C   UNL     1      -0.273   9.906  22.203  0.00  0.00    +0.000 A 
ATOM     15  C   UNL     1       0.022   8.550  22.365  0.00  0.00    +0.000 A 
ATOM     16  C   UNL     1       0.804   7.951  21.390  0.00  0.00    +0.000 A 
ATOM     17  C   UNL     1       1.250   8.706  20.302  0.00  0.00    +0.000 A 
ATOM     18  N   UNL     1       1.002  10.041  20.101  0.00  0.00    +0.000 NA
ATOM     19  C   UNL     1       0.240  10.581  21.096  0.00  0.00    +0.000 A 
ATOM     20  N   UNL     1      -0.180  11.904  21.195  0.00  0.00    +0.000 N 
ATOM     21  H   UNL     1      -1.114  15.232  23.266  0.00  0.00    +0.000 HD
ENDBRANCH   1  17
BRANCH   3  22
ATOM     22  C   UNL     1       3.619   6.051  18.897  0.00  0.00    +0.000 A 
ATOM     23  C   UNL     1       3.225   5.285  17.790  0.00  0.00    +0.000 A 
ATOM     24  N   UNL     1       4.036   4.607  16.933  0.00  0.00    +0.000 NA
ATOM     25  C   UNL     1       5.337   4.730  17.245  0.00  0.00    +0.000 A 
ATOM     26  C   UNL     1       5.871   5.386  18.344  0.00  0.00    +0.000 A 
ATOM     27  C   UNL     1       7.259   5.136  18.243  0.00  0.00    +0.000 A 
ATOM     28  N   UNL     1       7.593   4.453  17.139  0.00  0.00    +0.000 NA
ATOM     29  N   UNL     1       6.402   4.262  16.520  0.00  0.00    +0.000 N 
ATOM     30  C   UNL     1       4.988   6.071  19.204  0.00  0.00    +0.000 A 
BRANCH  29  31
ATOM     31  C   UNL     1       6.341   3.549  15.261  0.00  0.00    +0.000 C 
BRANCH  31  32
ATOM     32  C   UNL     1       6.015   4.361  13.992  0.00  0.00    +0.000 C 
ATOM     33  C   UNL     1       5.286   3.601  12.902  0.00  0.00    +0.000 C 
ATOM     34  C   UNL     1       6.385   3.202  11.944  0.00  0.00    +0.000 C 
ATOM     35  O   UNL     1       7.383   4.221  12.027  0.00  0.00    +0.000 OA
ATOM     36  C   UNL     1       7.227   4.928  13.264  0.00  0.00    +0.000 C 
ENDBRANCH  31  32
ENDBRANCH  29  31
ENDBRANCH   3  22
TORSDOF 4
ENDMDL
MODEL 2
REMARK VINA RESULT:      -9.0      1.039      1.108
REMARK  Name = 
REMARK  5 active torsions:
REMARK  status: ('A' for Active; 'I' for Inactive)
REMARK    1  A    between atoms: C_1  and  C_2
REMARK    2  A    between atoms: C_13  and  C_14
REMARK    3  A    between atoms: N_16  and  C_17
REMARK    4  A    between atoms: N_24  and  C_25
REMARK    5  A    between atoms: C_25  and  C_26
REMARK                            x       y       z     vdW  Elec       q    Type
REMARK                         _______ _______ _______ _____ _____    ______ ____
ROOT
ATOM      1  C   UNL     1       2.137   8.119  18.811  0.00  0.00    +0.000 C 
ATOM      2  O   UNL     1       2.166   8.681  17.719  0.00  0.00    +0.000 OA
ATOM      3  N   UNL     1       2.784   6.928  19.105  0.00  0.00    +0.000 N 
ATOM      4  H   UNL     1       2.660   6.577  20.049  0.00  0.00    +0.000 HD
ENDROOT
BRANCH   1  17
ATOM      5  C   UNL     1      -2.254  11.926  18.868  0.00  0.00    +0.000 C 
ATOM      6  C   UNL     1      -1.028  12.418  19.647  0.00  0.00    +0.000 C 
ATOM      7  C   UNL     1      -1.151  13.939  19.905  0.00  0.00    +0.000 C 
ATOM      8  C   UNL     1      -0.704  14.401  21.279  0.00  0.00    +0.000 C 
ATOM      9  N   UNL     1      -1.718  14.059  22.245  0.00  0.00    +0.000 N 
ATOM     10  C   UNL     1      -2.067  12.795  22.622  0.00  0.00    +0.000 C 
ATOM     11  O   UNL     1      -2.956  12.647  23.460  0.00  0.00    +0.000 OA
ATOM     12  C   UNL     1      -1.295  11.703  22.076  0.00  0.00    +0.000 A 
ATOM     13  C   UNL     1      -0.923  10.581  22.795  0.00  0.00    +0.000 A 
ATOM     14  C   UNL     1      -0.083   9.788  21.987  0.00  0.00    +0.000 A 
ATOM     15  C   UNL     1       0.626   8.605  22.207  0.00  0.00    +0.000 A 
ATOM     16  C   UNL     1       1.355   8.096  21.143  0.00  0.00    +0.000 A 
ATOM     17  C   UNL     1       1.347   8.766  19.918  0.00  0.00    +0.000 A 
ATOM     18  N   UNL     1       0.682   9.936  19.651  0.00  0.00    +0.000 NA
ATOM     19  C   UNL     1      -0.008  10.397  20.735  0.00  0.00    +0.000 A 
ATOM     20  N   UNL     1      -0.775  11.557  20.800  0.00  0.00    +0.000 N 
ATOM     21  H   UNL     1      -2.253  14.787  22.701  0.00  0.00    +0.000 HD
ENDBRANCH   1  17
BRANCH   3  22
ATOM     22  C   UNL     1       3.655   6.228  18.222  0.00  0.00    +0.000 A 
ATOM     23  C   UNL     1       3.308   5.055  17.536  0.00  0.00    +0.000 A 
ATOM     24  N   UNL     1       4.057   4.397  16.610  0.00  0.00    +0.000 NA
ATOM     25  C   UNL     1       5.239   4.991  16.383  0.00  0.00    +0.000 A 
ATOM     26  C   UNL     1       5.751   6.104  17.034  0.00  0.00    +0.000 A 
ATOM     27  C   UNL     1       7.044   6.251  16.483  0.00  0.00    +0.000 A 
ATOM     28  N   UNL     1       7.308   5.366  15.512  0.00  0.00    +0.000 NA
ATOM     29  N   UNL     1       6.167   4.639  15.436  0.00  0.00    +0.000 N 
ATOM     30  C   UNL     1       4.936   6.749  17.988  0.00  0.00    +0.000 A 
BRANCH  29  31
ATOM     31  C   UNL     1       6.052   3.559  14.478  0.00  0.00    +0.000 C 
BRANCH  31  32
ATOM     32  C   UNL     1       5.991   3.931  12.983  0.00  0.00    +0.000 C 
ATOM     33  C   UNL     1       4.913   3.228  12.181  0.00  0.00    +0.000 C 
ATOM     34  C   UNL     1       5.647   2.089  11.511  0.00  0.00    +0.000 C 
ATOM     35  O   UNL     1       6.987   2.540  11.302  0.00  0.00    +0.000 OA
ATOM     36  C   UNL     1       7.258   3.628  12.194  0.00  0.00    +0.000 C 
ENDBRANCH  31  32
ENDBRANCH  29  31
ENDBRANCH   3  22
TORSDOF 4
ENDMDL
MODEL 3
REMARK VINA RESULT:      -8.8      1.985      2.857
REMARK  Name = 
REMARK  5 active torsions:
REMARK  status: ('A' for Active; 'I' for Inactive)
REMARK    1  A    between atoms: C_1  and  C_2
REMARK    2  A    between atoms: C_13  and  C_14
REMARK    3  A    between atoms: N_16  and  C_17
REMARK    4  A    between atoms: N_24  and  C_25
REMARK    5  A    between atoms: C_25  and  C_26
REMARK                            x       y       z     vdW  Elec       q    Type
REMARK                         _______ _______ _______ _____ _____    ______ ____
ROOT
ATOM      1  C   UNL     1       0.975   9.277  19.868  0.00  0.00    +0.000 C 
ATOM      2  O   UNL     1       0.974   9.540  18.668  0.00  0.00    +0.000 OA
ATOM      3  N   UNL     1       1.472   8.107  20.420  0.00  0.00    +0.000 N 
ATOM      4  H   UNL     1       1.395   8.025  21.429  0.00  0.00    +0.000 HD
ENDROOT
BRANCH   1  17
ATOM      5  C   UNL     1      -0.356  14.909  19.326  0.00  0.00    +0.000 C 
ATOM      6  C   UNL     1       0.651  14.640  20.451  0.00  0.00    +0.000 C 
ATOM      7  C   UNL     1       1.325  15.966  20.875  0.00  0.00    +0.000 C 
ATOM      8  C   UNL     1       1.537  16.138  22.367  0.00  0.00    +0.000 C 
ATOM      9  N   UNL     1       0.278  16.469  22.987  0.00  0.00    +0.000 N 
ATOM     10  C   UNL     1      -0.805  15.644  23.086  0.00  0.00    +0.000 C 
ATOM     11  O   UNL     1      -1.821  16.059  23.642  0.00  0.00    +0.000 OA
ATOM     12  C   UNL     1      -0.652  14.289  22.611  0.00  0.00    +0.000 A 
ATOM     13  C   UNL     1      -1.191  13.181  23.240  0.00  0.00    +0.000 A 
ATOM     14  C   UNL     1      -0.743  12.023  22.572  0.00  0.00    +0.000 A 
ATOM     15  C   UNL     1      -0.910  10.656  22.801  0.00  0.00    +0.000 A 
ATOM     16  C   UNL     1      -0.318   9.785  21.899  0.00  0.00    +0.000 A 
ATOM     17  C   UNL     1       0.400  10.298  20.815  0.00  0.00    +0.000 A 
ATOM     18  N   UNL     1       0.607  11.628  20.551  0.00  0.00    +0.000 NA
ATOM     19  C   UNL     1       0.013  12.437  21.475  0.00  0.00    +0.000 A 
ATOM     20  N   UNL     1       0.040  13.828  21.501  0.00  0.00    +0.000 N 
ATOM     21  H   UNL     1       0.133  17.388  23.387  0.00  0.00    +0.000 HD
ENDBRANCH   1  17
BRANCH   3  22
ATOM     22  C   UNL     1       2.142   7.079  19.698  0.00  0.00    +0.000 A 
ATOM     23  C   UNL     1       2.663   7.234  18.405  0.00  0.00    +0.000 A 
ATOM     24  N   UNL     1       3.393   6.326  17.703  0.00  0.00    +0.000 NA
ATOM     25  C   UNL     1       3.594   5.185  18.383  0.00  0.00    +0.000 A 
ATOM     26  C   UNL     1       3.081   4.858  19.629  0.00  0.00    +0.000 A 
ATOM     27  C   UNL     1       3.518   3.530  19.834  0.00  0.00    +0.000 A 
ATOM     28  N   UNL     1       4.304   3.075  18.849  0.00  0.00    +0.000 NA
ATOM     29  N   UNL     1       4.376   4.127  17.997  0.00  0.00    +0.000 N 
ATOM     30  C   UNL     1       2.328   5.834  20.316  0.00  0.00    +0.000 A 
BRANCH  29  31
ATOM     31  C   UNL     1       5.156   4.029  16.782  0.00  0.00    +0.000 C 
BRANCH  31  32
ATOM     32  C   UNL     1       6.665   4.330  16.872  0.00  0.00    +0.000 C 
ATOM     33  C   UNL     1       7.101   5.114  18.094  0.00  0.00    +0.000 C 
ATOM     34  C   UNL     1       7.201   6.536  17.593  0.00  0.00    +0.000 C 
ATOM     35  O   UNL     1       7.564   6.453  16.213  0.00  0.00    +0.000 OA
ATOM     36  C   UNL     1       7.227   5.151  15.719  0.00  0.00    +0.000 C 
ENDBRANCH  31  32
ENDBRANCH  29  31
ENDBRANCH   3  22
TORSDOF 4
ENDMDL
MODEL 4
REMARK VINA RESULT:      -8.6      1.976      2.718
REMARK  Name = 
REMARK  5 active torsions:
REMARK  status: ('A' for Active; 'I' for Inactive)
REMARK    1  A    between atoms: C_1  and  C_2
REMARK    2  A    between atoms: C_13  and  C_14
REMARK    3  A    between atoms: N_16  and  C_17
REMARK    4  A    between atoms: N_24  and  C_25
REMARK    5  A    between atoms: C_25  and  C_26
REMARK                            x       y       z     vdW  Elec       q    Type
REMARK                         _______ _______ _______ _____ _____    ______ ____
ROOT
ATOM      1  C   UNL     1       1.068   8.238  20.979  0.00  0.00    +0.000 C 
ATOM      2  O   UNL     1       0.810   7.181  21.548  0.00  0.00    +0.000 OA
ATOM      3  N   UNL     1       1.875   8.356  19.857  0.00  0.00    +0.000 N 
ATOM      4  H   UNL     1       2.007   9.298  19.503  0.00  0.00    +0.000 HD
ENDROOT
BRANCH   1  17
ATOM      5  C   UNL     1       0.169  13.526  18.740  0.00  0.00    +0.000 C 
ATOM      6  C   UNL     1       1.033  13.554  20.007  0.00  0.00    +0.000 C 
ATOM      7  C   UNL     1       1.744  14.924  20.123  0.00  0.00    +0.000 C 
ATOM      8  C   UNL     1       1.809  15.504  21.522  0.00  0.00    +0.000 C 
ATOM      9  N   UNL     1       0.516  16.038  21.872  0.00  0.00    +0.000 N 
ATOM     10  C   UNL     1      -0.622  15.311  22.068  0.00  0.00    +0.000 C 
ATOM     11  O   UNL     1      -1.661  15.899  22.361  0.00  0.00    +0.000 OA
ATOM     12  C   UNL     1      -0.508  13.872  22.009  0.00  0.00    +0.000 A 
ATOM     13  C   UNL     1      -1.180  13.006  22.853  0.00  0.00    +0.000 A 
ATOM     14  C   UNL     1      -0.741  11.693  22.590  0.00  0.00    +0.000 A 
ATOM     15  C   UNL     1      -1.019  10.452  23.169  0.00  0.00    +0.000 A 
ATOM     16  C   UNL     1      -0.394   9.343  22.621  0.00  0.00    +0.000 A 
ATOM     17  C   UNL     1       0.465   9.504  21.531  0.00  0.00    +0.000 A 
ATOM     18  N   UNL     1       0.784  10.696  20.934  0.00  0.00    +0.000 NA
ATOM     19  C   UNL     1       0.151  11.754  21.520  0.00  0.00    +0.000 A 
ATOM     20  N   UNL     1       0.264  13.094  21.161  0.00  0.00    +0.000 N 
ATOM     21  H   UNL     1       0.391  17.036  21.981  0.00  0.00    +0.000 HD
ENDBRANCH   1  17
BRANCH   3  22
ATOM     22  C   UNL     1       2.445   7.267  19.140  0.00  0.00    +0.000 A 
ATOM     23  C   UNL     1       3.046   7.381  17.877  0.00  0.00    +0.000 A 
ATOM     24  N   UNL     1       3.691   6.401  17.187  0.00  0.00    +0.000 NA
ATOM     25  C   UNL     1       3.711   5.231  17.845  0.00  0.00    +0.000 A 
ATOM     26  C   UNL     1       3.100   4.946  19.056  0.00  0.00    +0.000 A 
ATOM     27  C   UNL     1       3.354   3.569  19.246  0.00  0.00    +0.000 A 
ATOM     28  N   UNL     1       4.126   3.038  18.287  0.00  0.00    +0.000 NA
ATOM     29  N   UNL     1       4.372   4.090  17.469  0.00  0.00    +0.000 N 
ATOM     30  C   UNL     1       2.442   5.995  19.732  0.00  0.00    +0.000 A 
BRANCH  29  31
ATOM     31  C   UNL     1       5.195   3.919  16.289  0.00  0.00    +0.000 C 
BRANCH  31  32
ATOM     32  C   UNL     1       6.704   4.199  16.421  0.00  0.00    +0.000 C 
ATOM     33  C   UNL     1       7.144   4.792  17.745  0.00  0.00    +0.000 C 
ATOM     34  C   UNL     1       7.246   6.272  17.461  0.00  0.00    +0.000 C 
ATOM     35  O   UNL     1       7.607   6.396  16.084  0.00  0.00    +0.000 OA
ATOM     36  C   UNL     1       7.266   5.182  15.402  0.00  0.00    +0.000 C 
ENDBRANCH  31  32
ENDBRANCH  29  31
ENDBRANCH   3  22
TORSDOF 4
ENDMDL
MODEL 5
REMARK VINA RESULT:      -8.6      5.862      9.517
REMARK  Name = 
REMARK  5 active torsions:
REMARK  status: ('A' for Active; 'I' for Inactive)
REMARK    1  A    between atoms: C_1  and  C_2
REMARK    2  A    between atoms: C_13  and  C_14
REMARK    3  A    between atoms: N_16  and  C_17
REMARK    4  A    between atoms: N_24  and  C_25
REMARK    5  A    between atoms: C_25  and  C_26
REMARK                            x       y       z     vdW  Elec       q    Type
REMARK                         _______ _______ _______ _____ _____    ______ ____
ROOT
ATOM      1  C   UNL     1       7.668   7.712  17.294  0.00  0.00    +0.000 C 
ATOM      2  O   UNL     1       8.595   7.636  16.491  0.00  0.00    +0.000 OA
ATOM      3  N   UNL     1       7.492   8.745  18.203  0.00  0.00    +0.000 N 
ATOM      4  H   UNL     1       6.684   8.666  18.811  0.00  0.00    +0.000 HD
ENDROOT
BRANCH   1  17
ATOM      5  C   UNL     1       1.942   7.607  18.283  0.00  0.00    +0.000 C 
ATOM      6  C   UNL     1       2.726   6.683  19.223  0.00  0.00    +0.000 C 
ATOM      7  C   UNL     1       1.833   6.274  20.418  0.00  0.00    +0.000 C 
ATOM      8  C   UNL     1       1.956   4.828  20.855  0.00  0.00    +0.000 C 
ATOM      9  N   UNL     1       1.250   3.990  19.918  0.00  0.00    +0.000 N 
ATOM     10  C   UNL     1       1.598   3.779  18.616  0.00  0.00    +0.000 C 
ATOM     11  O   UNL     1       0.901   3.038  17.925  0.00  0.00    +0.000 OA
ATOM     12  C   UNL     1       2.830   4.374  18.154  0.00  0.00    +0.000 A 
ATOM     13  C   UNL     1       3.717   3.751  17.294  0.00  0.00    +0.000 A 
ATOM     14  C   UNL     1       4.858   4.568  17.157  0.00  0.00    +0.000 A 
ATOM     15  C   UNL     1       6.072   4.418  16.483  0.00  0.00    +0.000 A 
ATOM     16  C   UNL     1       6.975   5.467  16.564  0.00  0.00    +0.000 A 
ATOM     17  C   UNL     1       6.641   6.610  17.294  0.00  0.00    +0.000 A 
ATOM     18  N   UNL     1       5.472   6.804  17.985  0.00  0.00    +0.000 NA
ATOM     19  C   UNL     1       4.627   5.737  17.880  0.00  0.00    +0.000 A 
ATOM     20  N   UNL     1       3.371   5.612  18.466  0.00  0.00    +0.000 N 
ATOM     21  H   UNL     1       0.409   3.503  20.203  0.00  0.00    +0.000 HD
ENDBRANCH   1  17
BRANCH   3  22
ATOM     22  C   UNL     1       8.298   9.916  18.280  0.00  0.00    +0.000 A 
ATOM     23  C   UNL     1       8.106  11.060  17.492  0.00  0.00    +0.000 A 
ATOM     24  N   UNL     1       8.778  12.239  17.585  0.00  0.00    +0.000 NA
ATOM     25  C   UNL     1       9.708  12.231  18.553  0.00  0.00    +0.000 A 
ATOM     26  C   UNL     1      10.063  11.158  19.357  0.00  0.00    +0.000 A 
ATOM     27  C   UNL     1      11.138  11.657  20.128  0.00  0.00    +0.000 A 
ATOM     28  N   UNL     1      11.394  12.952  19.899  0.00  0.00    +0.000 NA
ATOM     29  N   UNL     1      10.471  13.292  18.967  0.00  0.00    +0.000 N 
ATOM     30  C   UNL     1       9.338   9.956  19.220  0.00  0.00    +0.000 A 
BRANCH  29  31
ATOM     31  C   UNL     1      10.419  14.644  18.451  0.00  0.00    +0.000 C 
BRANCH  31  32
ATOM     32  C   UNL     1       9.654  15.697  19.277  0.00  0.00    +0.000 C 
ATOM     33  C   UNL     1       8.222  15.338  19.624  0.00  0.00    +0.000 C 
ATOM     34  C   UNL     1       7.405  16.066  18.582  0.00  0.00    +0.000 C 
ATOM     35  O   UNL     1       8.139  17.244  18.243  0.00  0.00    +0.000 OA
ATOM     36  C   UNL     1       9.513  17.059  18.608  0.00  0.00    +0.000 C 
ENDBRANCH  31  32
ENDBRANCH  29  31
ENDBRANCH   3  22
TORSDOF 4
ENDMDL
MODEL 6
REMARK VINA RESULT:      -8.5      3.146     11.776
REMARK  Name = 
REMARK  5 active torsions:
REMARK  status: ('A' for Active; 'I' for Inactive)
REMARK    1  A    between atoms: C_1  and  C_2
REMARK    2  A    between atoms: C_13  and  C_14
REMARK    3  A    between atoms: N_16  and  C_17
REMARK    4  A    between atoms: N_24  and  C_25
REMARK    5  A    between atoms: C_25  and  C_26
REMARK                            x       y       z     vdW  Elec       q    Type
REMARK                         _______ _______ _______ _____ _____    ______ ____
ROOT
ATOM      1  C   UNL     1       1.209   8.872  20.987  0.00  0.00    +0.000 C 
ATOM      2  O   UNL     1       1.611   8.889  22.148  0.00  0.00    +0.000 OA
ATOM      3  N   UNL     1       0.272   9.749  20.462  0.00  0.00    +0.000 N 
ATOM      4  H   UNL     1       0.029   9.606  19.487  0.00  0.00    +0.000 HD
ENDROOT
BRANCH   1  17
ATOM      5  C   UNL     1       0.782   3.080  20.773  0.00  0.00    +0.000 C 
ATOM      6  C   UNL     1       2.232   3.567  20.881  0.00  0.00    +0.000 C 
ATOM      7  C   UNL     1       3.149   2.389  21.289  0.00  0.00    +0.000 C 
ATOM      8  C   UNL     1       4.491   2.337  20.584  0.00  0.00    +0.000 C 
ATOM      9  N   UNL     1       4.299   1.848  19.242  0.00  0.00    +0.000 N 
ATOM     10  C   UNL     1       3.634   2.496  18.242  0.00  0.00    +0.000 C 
ATOM     11  O   UNL     1       3.544   1.959  17.140  0.00  0.00    +0.000 OA
ATOM     12  C   UNL     1       3.154   3.829  18.522  0.00  0.00    +0.000 A 
ATOM     13  C   UNL     1       3.190   4.873  17.614  0.00  0.00    +0.000 A 
ATOM     14  C   UNL     1       2.755   6.047  18.262  0.00  0.00    +0.000 A 
ATOM     15  C   UNL     1       2.651   7.382  17.864  0.00  0.00    +0.000 A 
ATOM     16  C   UNL     1       2.153   8.282  18.793  0.00  0.00    +0.000 A 
ATOM     17  C   UNL     1       1.775   7.829  20.059  0.00  0.00    +0.000 A 
ATOM     18  N   UNL     1       1.868   6.535  20.506  0.00  0.00    +0.000 NA
ATOM     19  C   UNL     1       2.375   5.696  19.556  0.00  0.00    +0.000 A 
ATOM     20  N   UNL     1       2.604   4.330  19.692  0.00  0.00    +0.000 N 
ATOM     21  H   UNL     1       4.663   0.942  18.973  0.00  0.00    +0.000 HD
ENDBRANCH   1  17
BRANCH   3  22
ATOM     22  C   UNL     1      -0.293  10.857  21.155  0.00  0.00    +0.000 A 
ATOM     23  C   UNL     1      -0.625  10.849  22.518  0.00  0.00    +0.000 A 
ATOM     24  N   UNL     1      -1.076  11.900  23.256  0.00  0.00    +0.000 NA
ATOM     25  C   UNL     1      -1.191  13.027  22.536  0.00  0.00    +0.000 A 
ATOM     26  C   UNL     1      -0.975  13.170  21.173  0.00  0.00    +0.000 A 
ATOM     27  C   UNL     1      -1.320  14.517  20.918  0.00  0.00    +0.000 A 
ATOM     28  N   UNL     1      -1.648  15.197  22.025  0.00  0.00    +0.000 NA
ATOM     29  N   UNL     1      -1.512  14.274  23.008  0.00  0.00    +0.000 N 
ATOM     30  C   UNL     1      -0.510  12.051  20.452  0.00  0.00    +0.000 A 
BRANCH  29  31
ATOM     31  C   UNL     1      -1.780  14.631  24.386  0.00  0.00    +0.000 C 
BRANCH  31  32
ATOM     32  C   UNL     1      -3.246  14.609  24.860  0.00  0.00    +0.000 C 
ATOM     33  C   UNL     1      -4.151  13.634  24.134  0.00  0.00    +0.000 C 
ATOM     34  C   UNL     1      -4.858  14.492  23.110  0.00  0.00    +0.000 C 
ATOM     35  O   UNL     1      -4.964  15.798  23.681  0.00  0.00    +0.000 OA
ATOM     36  C   UNL     1      -3.986  15.934  24.720  0.00  0.00    +0.000 C 
ENDBRANCH  31  32
ENDBRANCH  29  31
ENDBRANCH   3  22
TORSDOF 4
ENDMDL
MODEL 7
REMARK VINA RESULT:      -8.5      1.947      3.024
REMARK  Name = 
REMARK  5 active torsions:
REMARK  status: ('A' for Active; 'I' for Inactive)
REMARK    1  A    between atoms: C_1  and  C_2
REMARK    2  A    between atoms: C_13  and  C_14
REMARK    3  A    between atoms: N_16  and  C_17
REMARK    4  A    between atoms: N_24  and  C_25
REMARK    5  A    between atoms: C_25  and  C_26
REMARK                            x       y       z     vdW  Elec       q    Type
REMARK                         _______ _______ _______ _____ _____    ______ ____
ROOT
ATOM      1  C   UNL     1       0.613   9.513  20.179  0.00  0.00    +0.000 C 
ATOM      2  O   UNL     1       0.452   9.647  18.969  0.00  0.00    +0.000 OA
ATOM      3  N   UNL     1       1.213   8.416  20.780  0.00  0.00    +0.000 N 
ATOM      4  H   UNL     1       1.267   8.440  21.793  0.00  0.00    +0.000 HD
ENDROOT
BRANCH   1  17
ATOM      5  C   UNL     1      -0.249  15.207  19.396  0.00  0.00    +0.000 C 
ATOM      6  C   UNL     1       0.741  14.904  20.527  0.00  0.00    +0.000 C 
ATOM      7  C   UNL     1       1.526  16.187  20.890  0.00  0.00    +0.000 C 
ATOM      8  C   UNL     1       1.763  16.405  22.372  0.00  0.00    +0.000 C 
ATOM      9  N   UNL     1       0.540  16.866  22.982  0.00  0.00    +0.000 N 
ATOM     10  C   UNL     1      -0.606  16.140  23.122  0.00  0.00    +0.000 C 
ATOM     11  O   UNL     1      -1.580  16.662  23.662  0.00  0.00    +0.000 OA
ATOM     12  C   UNL     1      -0.570  14.757  22.705  0.00  0.00    +0.000 A 
ATOM     13  C   UNL     1      -1.194  13.727  23.385  0.00  0.00    +0.000 A 
ATOM     14  C   UNL     1      -0.849  12.507  22.767  0.00  0.00    +0.000 A 
ATOM     15  C   UNL     1      -1.128  11.170  23.056  0.00  0.00    +0.000 A 
ATOM     16  C   UNL     1      -0.618  10.215  22.191  0.00  0.00    +0.000 A 
ATOM     17  C   UNL     1       0.132  10.618  21.083  0.00  0.00    +0.000 A 
ATOM     18  N   UNL     1       0.447  11.913  20.760  0.00  0.00    +0.000 NA
ATOM     19  C   UNL     1      -0.070  12.808  21.650  0.00  0.00    +0.000 A 
ATOM     20  N   UNL     1       0.072  14.193  21.614  0.00  0.00    +0.000 N 
ATOM     21  H   UNL     1       0.476  17.810  23.342  0.00  0.00    +0.000 HD
ENDBRANCH   1  17
BRANCH   3  22
ATOM     22  C   UNL     1       1.816   7.329  20.086  0.00  0.00    +0.000 A 
ATOM     23  C   UNL     1       2.412   7.434  18.821  0.00  0.00    +0.000 A 
ATOM     24  N   UNL     1       3.086   6.460  18.151  0.00  0.00    +0.000 NA
ATOM     25  C   UNL     1       3.144   5.306  18.835  0.00  0.00    +0.000 A 
ATOM     26  C   UNL     1       2.543   5.029  20.053  0.00  0.00    +0.000 A 
ATOM     27  C   UNL     1       2.841   3.665  20.273  0.00  0.00    +0.000 A 
ATOM     28  N   UNL     1       3.627   3.138  19.325  0.00  0.00    +0.000 NA
ATOM     29  N   UNL     1       3.840   4.178  18.483  0.00  0.00    +0.000 N 
ATOM     30  C   UNL     1       1.853   6.072  20.707  0.00  0.00    +0.000 A 
BRANCH  29  31
ATOM     31  C   UNL     1       4.666   4.006  17.306  0.00  0.00    +0.000 C 
BRANCH  31  32
ATOM     32  C   UNL     1       5.735   5.079  17.018  0.00  0.00    +0.000 C 
ATOM     33  C   UNL     1       5.845   5.515  15.570  0.00  0.00    +0.000 C 
ATOM     34  C   UNL     1       7.007   4.710  15.038  0.00  0.00    +0.000 C 
ATOM     35  O   UNL     1       7.890   4.498  16.141  0.00  0.00    +0.000 OA
ATOM     36  C   UNL     1       7.161   4.673  17.363  0.00  0.00    +0.000 C 
ENDBRANCH  31  32
ENDBRANCH  29  31
ENDBRANCH   3  22
TORSDOF 4
ENDMDL
MODEL 8
REMARK VINA RESULT:      -8.5      3.032     11.259
REMARK  Name = 
REMARK  5 active torsions:
REMARK  status: ('A' for Active; 'I' for Inactive)
REMARK    1  A    between atoms: C_1  and  C_2
REMARK    2  A    between atoms: C_13  and  C_14
REMARK    3  A    between atoms: N_16  and  C_17
REMARK    4  A    between atoms: N_24  and  C_25
REMARK    5  A    between atoms: C_25  and  C_26
REMARK                            x       y       z     vdW  Elec       q    Type
REMARK                         _______ _______ _______ _____ _____    ______ ____
ROOT
ATOM      1  C   UNL     1       1.282   9.113  20.090  0.00  0.00    +0.000 C 
ATOM      2  O   UNL     1       1.197   9.052  21.314  0.00  0.00    +0.000 OA
ATOM      3  N   UNL     1       0.794  10.153  19.314  0.00  0.00    +0.000 N 
ATOM      4  H   UNL     1       0.929  10.060  18.312  0.00  0.00    +0.000 HD
ENDROOT
BRANCH   1  17
ATOM      5  C   UNL     1       0.647   3.337  20.230  0.00  0.00    +0.000 C 
ATOM      6  C   UNL     1       2.068   3.789  20.586  0.00  0.00    +0.000 C 
ATOM      7  C   UNL     1       2.834   2.623  21.255  0.00  0.00    +0.000 C 
ATOM      8  C   UNL     1       4.284   2.474  20.835  0.00  0.00    +0.000 C 
ATOM      9  N   UNL     1       4.337   1.882  19.522  0.00  0.00    +0.000 N 
ATOM     10  C   UNL     1       3.909   2.465  18.365  0.00  0.00    +0.000 C 
ATOM     11  O   UNL     1       4.013   1.842  17.310  0.00  0.00    +0.000 OA
ATOM     12  C   UNL     1       3.444   3.830  18.443  0.00  0.00    +0.000 A 
ATOM     13  C   UNL     1       3.703   4.794  17.485  0.00  0.00    +0.000 A 
ATOM     14  C   UNL     1       3.203   6.030  17.944  0.00  0.00    +0.000 A 
ATOM     15  C   UNL     1       3.238   7.330  17.435  0.00  0.00    +0.000 A 
ATOM     16  C   UNL     1       2.609   8.318  18.177  0.00  0.00    +0.000 A 
ATOM     17  C   UNL     1       1.971   7.981  19.373  0.00  0.00    +0.000 A 
ATOM     18  N   UNL     1       1.918   6.726  19.925  0.00  0.00    +0.000 NA
ATOM     19  C   UNL     1       2.562   5.798  19.160  0.00  0.00    +0.000 A 
ATOM     20  N   UNL     1       2.699   4.441  19.440  0.00  0.00    +0.000 N 
ATOM     21  H   UNL     1       4.706   0.947  19.400  0.00  0.00    +0.000 HD
ENDBRANCH   1  17
BRANCH   3  22
ATOM     22  C   UNL     1       0.209  11.349  19.819  0.00  0.00    +0.000 A 
ATOM     23  C   UNL     1      -1.146  11.684  19.681  0.00  0.00    +0.000 A 
ATOM     24  N   UNL     1      -1.782  12.758  20.221  0.00  0.00    +0.000 NA
ATOM     25  C   UNL     1      -0.962  13.534  20.949  0.00  0.00    +0.000 A 
ATOM     26  C   UNL     1       0.406  13.375  21.114  0.00  0.00    +0.000 A 
ATOM     27  C   UNL     1       0.785  14.497  21.884  0.00  0.00    +0.000 A 
ATOM     28  N   UNL     1      -0.254  15.262  22.249  0.00  0.00    +0.000 NA
ATOM     29  N   UNL     1      -1.317  14.621  21.705  0.00  0.00    +0.000 N 
ATOM     30  C   UNL     1       1.019  12.246  20.531  0.00  0.00    +0.000 A 
BRANCH  29  31
ATOM     31  C   UNL     1      -2.655  15.147  21.884  0.00  0.00    +0.000 C 
BRANCH  31  32
ATOM     32  C   UNL     1      -3.485  14.608  23.066  0.00  0.00    +0.000 C 
ATOM     33  C   UNL     1      -2.778  13.604  23.954  0.00  0.00    +0.000 C 
ATOM     34  C   UNL     1      -3.269  12.267  23.450  0.00  0.00    +0.000 C 
ATOM     35  O   UNL     1      -4.592  12.484  22.956  0.00  0.00    +0.000 OA
ATOM     36  C   UNL     1      -4.762  13.878  22.673  0.00  0.00    +0.000 C 
ENDBRANCH  31  32
ENDBRANCH  29  31
ENDBRANCH   3  22
TORSDOF 4
ENDMDL
MODEL 9
REMARK VINA RESULT:      -8.4      3.115     11.747
REMARK  Name = 
REMARK  5 active torsions:
REMARK  status: ('A' for Active; 'I' for Inactive)
REMARK    1  A    between atoms: C_1  and  C_2
REMARK    2  A    between atoms: C_13  and  C_14
REMARK    3  A    between atoms: N_16  and  C_17
REMARK    4  A    between atoms: N_24  and  C_25
REMARK    5  A    between atoms: C_25  and  C_26
REMARK                            x       y       z     vdW  Elec       q    Type
REMARK                         _______ _______ _______ _____ _____    ______ ____
ROOT
ATOM      1  C   UNL     1       1.229   8.908  20.843  0.00  0.00    +0.000 C 
ATOM      2  O   UNL     1       1.227   8.697  22.053  0.00  0.00    +0.000 OA
ATOM      3  N   UNL     1       0.735  10.055  20.239  0.00  0.00    +0.000 N 
ATOM      4  H   UNL     1       0.795  10.083  19.226  0.00  0.00    +0.000 HD
ENDROOT
BRANCH   1  17
ATOM      5  C   UNL     1       0.764   3.117  20.673  0.00  0.00    +0.000 C 
ATOM      6  C   UNL     1       2.214   3.595  20.820  0.00  0.00    +0.000 C 
ATOM      7  C   UNL     1       3.109   2.414  21.268  0.00  0.00    +0.000 C 
ATOM      8  C   UNL     1       4.471   2.346  20.605  0.00  0.00    +0.000 C 
ATOM      9  N   UNL     1       4.317   1.844  19.262  0.00  0.00    +0.000 N 
ATOM     10  C   UNL     1       3.688   2.488  18.236  0.00  0.00    +0.000 C 
ATOM     11  O   UNL     1       3.627   1.939  17.137  0.00  0.00    +0.000 OA
ATOM     12  C   UNL     1       3.209   3.827  18.488  0.00  0.00    +0.000 A 
ATOM     13  C   UNL     1       3.282   4.861  17.571  0.00  0.00    +0.000 A 
ATOM     14  C   UNL     1       2.836   6.044  18.194  0.00  0.00    +0.000 A 
ATOM     15  C   UNL     1       2.755   7.376  17.780  0.00  0.00    +0.000 A 
ATOM     16  C   UNL     1       2.235   8.289  18.684  0.00  0.00    +0.000 A 
ATOM     17  C   UNL     1       1.815   7.852  19.943  0.00  0.00    +0.000 A 
ATOM     18  N   UNL     1       1.885   6.562  20.405  0.00  0.00    +0.000 NA
ATOM     19  C   UNL     1       2.414   5.710  19.480  0.00  0.00    +0.000 A 
ATOM     20  N   UNL     1       2.628   4.343  19.636  0.00  0.00    +0.000 N 
ATOM     21  H   UNL     1       4.682   0.933  19.014  0.00  0.00    +0.000 HD
ENDBRANCH   1  17
BRANCH   3  22
ATOM     22  C   UNL     1       0.240  11.197  20.930  0.00  0.00    +0.000 A 
ATOM     23  C   UNL     1      -0.944  11.214  21.682  0.00  0.00    +0.000 A 
ATOM     24  N   UNL     1      -1.417  12.240  22.439  0.00  0.00    +0.000 NA
ATOM     25  C   UNL     1      -0.614  13.316  22.414  0.00  0.00    +0.000 A 
ATOM     26  C   UNL     1       0.541  13.475  21.664  0.00  0.00    +0.000 A 
ATOM     27  C   UNL     1       0.938  14.804  21.936  0.00  0.00    +0.000 A 
ATOM     28  N   UNL     1       0.158  15.413  22.839  0.00  0.00    +0.000 NA
ATOM     29  N   UNL     1      -0.755  14.462  23.153  0.00  0.00    +0.000 N 
ATOM     30  C   UNL     1       0.989  12.382  20.892  0.00  0.00    +0.000 A 
BRANCH  29  31
ATOM     31  C   UNL     1      -1.794  14.740  24.123  0.00  0.00    +0.000 C 
BRANCH  31  32
ATOM     32  C   UNL     1      -2.640  16.012  23.922  0.00  0.00    +0.000 C 
ATOM     33  C   UNL     1      -3.796  16.185  24.888  0.00  0.00    +0.000 C 
ATOM     34  C   UNL     1      -4.992  15.685  24.112  0.00  0.00    +0.000 C 
ATOM     35  O   UNL     1      -4.724  15.959  22.735  0.00  0.00    +0.000 OA
ATOM     36  C   UNL     1      -3.312  16.128  22.560  0.00  0.00    +0.000 C 
ENDBRANCH  31  32
ENDBRANCH  29  31
ENDBRANCH   3  22
TORSDOF 4
ENDMDL
