MODEL 1
REMARK VINA RESULT:      -7.4      0.000      0.000
REMARK  Name = 
REMARK  12 active torsions:
REMARK  status: ('A' for Active; 'I' for Inactive)
REMARK    1  A    between atoms: C_1  and  N_2
REMARK    2  A    between atoms: N_2  and  C_3
REMARK    3  A    between atoms: N_2  and  C_4
REMARK    4  A    between atoms: C_4  and  C_5
REMARK    5  A    between atoms: C_5  and  C_6
REMARK    6  A    between atoms: C_6  and  C_7
REMARK    7  A    between atoms: C_7  and  N_8
REMARK    8  A    between atoms: C_9  and  N_10
REMARK    9  A    between atoms: C_11  and  C_12
REMARK   10  A    between atoms: N_20  and  C_21
REMARK   11  A    between atoms: C_24  and  C_25
REMARK   12  A    between atoms: C_27  and  C_28
REMARK                            x       y       z     vdW  Elec       q    Type
REMARK                         _______ _______ _______ _____ _____    ______ ____
ROOT
ATOM      1  N   UNL     1       3.561   6.898  17.877  0.00  0.00    +0.000 N 
ATOM      2  C   UNL     1       2.860   8.007  18.318  0.00  0.00    +0.000 A 
ATOM      3  C   UNL     1       2.093   7.641  19.424  0.00  0.00    +0.000 A 
ATOM      4  C   UNL     1       2.346   6.254  19.644  0.00  0.00    +0.000 A 
ATOM      5  N   UNL     1       1.871   5.374  20.570  0.00  0.00    +0.000 NA
ATOM      6  C   UNL     1       2.330   4.101  20.443  0.00  0.00    +0.000 A 
ATOM      7  C   UNL     1       3.208   3.705  19.448  0.00  0.00    +0.000 A 
ATOM      8  N   UNL     1       3.704   4.557  18.515  0.00  0.00    +0.000 NA
ATOM      9  C   UNL     1       3.239   5.821  18.665  0.00  0.00    +0.000 A 
ENDROOT
BRANCH   3  10
ATOM     10  C   UNL     1       1.171   8.595  20.177  0.00  0.00    +0.000 A 
ATOM     11  N   UNL     1       1.031   8.572  21.498  0.00  0.00    +0.000 NA
ATOM     12  C   UNL     1       0.172   9.603  21.827  0.00  0.00    +0.000 A 
ATOM     13  C   UNL     1      -0.296  10.051  23.078  0.00  0.00    +0.000 A 
ATOM     14  C   UNL     1      -1.191  11.135  23.129  0.00  0.00    +0.000 A 
ATOM     15  C   UNL     1      -1.615  11.766  21.961  0.00  0.00    +0.000 A 
ATOM     16  C   UNL     1      -1.153  11.342  20.714  0.00  0.00    +0.000 A 
ATOM     17  C   UNL     1      -0.261  10.260  20.683  0.00  0.00    +0.000 A 
ATOM     18  N   UNL     1       0.374   9.598  19.656  0.00  0.00    +0.000 N 
ATOM     19  C   UNL     1       0.161   9.925  18.267  0.00  0.00    +0.000 C 
ENDBRANCH   3  10
BRANCH   2  20
ATOM     20  N   UNL     1       2.990   9.207  17.721  0.00  0.00    +0.000 N 
ATOM     21  H   UNL     1       2.402  10.018  17.883  0.00  0.00    +0.000 HD
ATOM     22  H   UNL     1       3.837   9.400  17.179  0.00  0.00    +0.000 HD
ENDBRANCH   2  20
BRANCH   6  23
ATOM     23  C   UNL     1       1.843   3.185  21.433  0.00  0.00    +0.000 C 
ATOM     24  N   UNL     1       1.438   2.443  22.230  0.00  0.00    +0.000 NA
ENDBRANCH   6  23
BRANCH   7  25
ATOM     25  C   UNL     1       3.658   2.348  19.328  0.00  0.00    +0.000 C 
ATOM     26  N   UNL     1       4.018   1.252  19.208  0.00  0.00    +0.000 NA
ENDBRANCH   7  25
BRANCH   1  27
ATOM     27  C   UNL     1       4.468   6.809  16.741  0.00  0.00    +0.000 C 
BRANCH  27  28
ATOM     28  C   UNL     1       5.957   6.943  17.073  0.00  0.00    +0.000 C 
BRANCH  28  29
ATOM     29  C   UNL     1       6.796   5.688  16.807  0.00  0.00    +0.000 C 
BRANCH  29  30
ATOM     30  C   UNL     1       6.987   5.346  15.322  0.00  0.00    +0.000 C 
BRANCH  30  32
ATOM     31  C   UNL     1       5.607   3.427  15.902  0.00  0.00    +0.000 C 
ATOM     32  N   UNL     1       6.605   3.969  14.977  0.00  0.00    +0.000 NA
ATOM     33  C   UNL     1       6.083   3.922  13.607  0.00  0.00    +0.000 C 
ENDBRANCH  30  32
ENDBRANCH  29  30
ENDBRANCH  28  29
ENDBRANCH  27  28
ENDBRANCH   1  27
TORSDOF 9
ENDMDL
MODEL 2
REMARK VINA RESULT:      -7.4      2.017      7.914
REMARK  Name = 
REMARK  12 active torsions:
REMARK  status: ('A' for Active; 'I' for Inactive)
REMARK    1  A    between atoms: C_1  and  N_2
REMARK    2  A    between atoms: N_2  and  C_3
REMARK    3  A    between atoms: N_2  and  C_4
REMARK    4  A    between atoms: C_4  and  C_5
REMARK    5  A    between atoms: C_5  and  C_6
REMARK    6  A    between atoms: C_6  and  C_7
REMARK    7  A    between atoms: C_7  and  N_8
REMARK    8  A    between atoms: C_9  and  N_10
REMARK    9  A    between atoms: C_11  and  C_12
REMARK   10  A    between atoms: N_20  and  C_21
REMARK   11  A    between atoms: C_24  and  C_25
REMARK   12  A    between atoms: C_27  and  C_28
REMARK                            x       y       z     vdW  Elec       q    Type
REMARK                         _______ _______ _______ _____ _____    ______ ____
ROOT
ATOM      1  N   UNL     1       3.724   4.565  20.027  0.00  0.00    +0.000 N 
ATOM      2  C   UNL     1       4.507   4.103  18.983  0.00  0.00    +0.000 A 
ATOM      3  C   UNL     1       4.496   5.053  17.960  0.00  0.00    +0.000 A 
ATOM      4  C   UNL     1       3.665   6.119  18.416  0.00  0.00    +0.000 A 
ATOM      5  N   UNL     1       3.289   7.296  17.838  0.00  0.00    +0.000 NA
ATOM      6  C   UNL     1       2.448   8.060  18.584  0.00  0.00    +0.000 A 
ATOM      7  C   UNL     1       1.986   7.684  19.835  0.00  0.00    +0.000 A 
ATOM      8  N   UNL     1       2.345   6.524  20.439  0.00  0.00    +0.000 NA
ATOM      9  C   UNL     1       3.190   5.782  19.682  0.00  0.00    +0.000 A 
ENDROOT
BRANCH   3  10
ATOM     10  C   UNL     1       5.235   4.890  16.636  0.00  0.00    +0.000 A 
ATOM     11  N   UNL     1       4.829   4.065  15.678  0.00  0.00    +0.000 NA
ATOM     12  C   UNL     1       5.698   4.225  14.617  0.00  0.00    +0.000 A 
ATOM     13  C   UNL     1       5.720   3.625  13.342  0.00  0.00    +0.000 A 
ATOM     14  C   UNL     1       6.745   3.963  12.441  0.00  0.00    +0.000 A 
ATOM     15  C   UNL     1       7.732   4.881  12.794  0.00  0.00    +0.000 A 
ATOM     16  C   UNL     1       7.720   5.492  14.048  0.00  0.00    +0.000 A 
ATOM     17  C   UNL     1       6.690   5.142  14.934  0.00  0.00    +0.000 A 
ATOM     18  N   UNL     1       6.382   5.539  16.216  0.00  0.00    +0.000 N 
ATOM     19  C   UNL     1       7.201   6.461  16.966  0.00  0.00    +0.000 C 
ENDBRANCH   3  10
BRANCH   2  20
ATOM     20  N   UNL     1       5.156   2.926  19.055  0.00  0.00    +0.000 N 
ATOM     21  H   UNL     1       5.498   2.386  18.267  0.00  0.00    +0.000 HD
ATOM     22  H   UNL     1       5.492   2.601  19.967  0.00  0.00    +0.000 HD
ENDBRANCH   2  20
BRANCH   6  23
ATOM     23  C   UNL     1       2.074   9.305  17.980  0.00  0.00    +0.000 C 
ATOM     24  N   UNL     1       1.775  10.320  17.499  0.00  0.00    +0.000 NA
ENDBRANCH   6  23
BRANCH   7  25
ATOM     25  C   UNL     1       1.081   8.504  20.587  0.00  0.00    +0.000 C 
ATOM     26  N   UNL     1       0.350   9.152  21.214  0.00  0.00    +0.000 NA
ENDBRANCH   7  25
BRANCH   1  27
ATOM     27  C   UNL     1       3.433   3.897  21.287  0.00  0.00    +0.000 C 
BRANCH  27  28
ATOM     28  C   UNL     1       2.012   3.348  21.431  0.00  0.00    +0.000 C 
BRANCH  28  29
ATOM     29  C   UNL     1       1.594   2.340  20.354  0.00  0.00    +0.000 C 
BRANCH  29  30
ATOM     30  C   UNL     1       0.539   2.856  19.366  0.00  0.00    +0.000 C 
BRANCH  30  32
ATOM     31  C   UNL     1       1.159   4.108  17.372  0.00  0.00    +0.000 C 
ATOM     32  N   UNL     1       0.959   2.781  17.958  0.00  0.00    +0.000 NA
ATOM     33  C   UNL     1       2.196   2.001  17.845  0.00  0.00    +0.000 C 
ENDBRANCH  30  32
ENDBRANCH  29  30
ENDBRANCH  28  29
ENDBRANCH  27  28
ENDBRANCH   1  27
TORSDOF 9
ENDMDL
MODEL 3
REMARK VINA RESULT:      -7.1      3.103      9.673
REMARK  Name = 
REMARK  12 active torsions:
REMARK  status: ('A' for Active; 'I' for Inactive)
REMARK    1  A    between atoms: C_1  and  N_2
REMARK    2  A    between atoms: N_2  and  C_3
REMARK    3  A    between atoms: N_2  and  C_4
REMARK    4  A    between atoms: C_4  and  C_5
REMARK    5  A    between atoms: C_5  and  C_6
REMARK    6  A    between atoms: C_6  and  C_7
REMARK    7  A    between atoms: C_7  and  N_8
REMARK    8  A    between atoms: C_9  and  N_10
REMARK    9  A    between atoms: C_11  and  C_12
REMARK   10  A    between atoms: N_20  and  C_21
REMARK   11  A    between atoms: C_24  and  C_25
REMARK   12  A    between atoms: C_27  and  C_28
REMARK                            x       y       z     vdW  Elec       q    Type
REMARK                         _______ _______ _______ _____ _____    ______ ____
ROOT
ATOM      1  N   UNL     1      -0.752  11.378  20.507  0.00  0.00    +0.000 N 
ATOM      2  C   UNL     1       0.366  10.563  20.499  0.00  0.00    +0.000 A 
ATOM      3  C   UNL     1       0.371   9.821  19.317  0.00  0.00    +0.000 A 
ATOM      4  C   UNL     1      -0.798  10.209  18.598  0.00  0.00    +0.000 A 
ATOM      5  N   UNL     1      -1.306   9.812  17.397  0.00  0.00    +0.000 NA
ATOM      6  C   UNL     1      -2.481  10.399  17.046  0.00  0.00    +0.000 A 
ATOM      7  C   UNL     1      -3.135  11.326  17.841  0.00  0.00    +0.000 A 
ATOM      8  N   UNL     1      -2.653  11.746  19.038  0.00  0.00    +0.000 NA
ATOM      9  C   UNL     1      -1.478  11.154  19.364  0.00  0.00    +0.000 A 
ENDROOT
BRANCH   3  10
ATOM     10  C   UNL     1       1.443   8.797  18.956  0.00  0.00    +0.000 A 
ATOM     11  N   UNL     1       2.165   8.869  17.845  0.00  0.00    +0.000 NA
ATOM     12  C   UNL     1       3.064   7.821  17.882  0.00  0.00    +0.000 A 
ATOM     13  C   UNL     1       4.079   7.442  16.982  0.00  0.00    +0.000 A 
ATOM     14  C   UNL     1       4.855   6.303  17.261  0.00  0.00    +0.000 A 
ATOM     15  C   UNL     1       4.631   5.551  18.413  0.00  0.00    +0.000 A 
ATOM     16  C   UNL     1       3.637   5.918  19.320  0.00  0.00    +0.000 A 
ATOM     17  C   UNL     1       2.873   7.057  19.025  0.00  0.00    +0.000 A 
ATOM     18  N   UNL     1       1.839   7.687  19.680  0.00  0.00    +0.000 N 
ATOM     19  C   UNL     1       1.271   7.185  20.908  0.00  0.00    +0.000 C 
ENDBRANCH   3  10
BRANCH   2  20
ATOM     20  N   UNL     1       1.259  10.579  21.507  0.00  0.00    +0.000 N 
ATOM     21  H   UNL     1       2.043  11.216  21.597  0.00  0.00    +0.000 HD
ATOM     22  H   UNL     1       1.066  10.025  22.347  0.00  0.00    +0.000 HD
ENDBRANCH   2  20
BRANCH   6  23
ATOM     23  C   UNL     1      -2.998   9.992  15.772  0.00  0.00    +0.000 C 
ATOM     24  N   UNL     1      -3.407   9.665  14.735  0.00  0.00    +0.000 NA
ENDBRANCH   6  23
BRANCH   7  25
ATOM     25  C   UNL     1      -4.385  11.911  17.452  0.00  0.00    +0.000 C 
ATOM     26  N   UNL     1      -5.408  12.366  17.145  0.00  0.00    +0.000 NA
ENDBRANCH   7  25
BRANCH   1  27
ATOM     27  C   UNL     1      -1.174  12.305  21.548  0.00  0.00    +0.000 C 
BRANCH  27  28
ATOM     28  C   UNL     1      -1.729  11.661  22.821  0.00  0.00    +0.000 C 
BRANCH  28  29
ATOM     29  C   UNL     1      -3.052  12.250  23.322  0.00  0.00    +0.000 C 
BRANCH  29  30
ATOM     30  C   UNL     1      -3.958  12.821  22.223  0.00  0.00    +0.000 C 
BRANCH  30  32
ATOM     31  C   UNL     1      -6.151  12.975  23.269  0.00  0.00    +0.000 C 
ATOM     32  N   UNL     1      -5.333  12.300  22.257  0.00  0.00    +0.000 NA
ATOM     33  C   UNL     1      -5.959  12.449  20.940  0.00  0.00    +0.000 C 
ENDBRANCH  30  32
ENDBRANCH  29  30
ENDBRANCH  28  29
ENDBRANCH  27  28
ENDBRANCH   1  27
TORSDOF 9
ENDMDL
MODEL 4
REMARK VINA RESULT:      -7.1      1.036      1.631
REMARK  Name = 
REMARK  12 active torsions:
REMARK  status: ('A' for Active; 'I' for Inactive)
REMARK    1  A    between atoms: C_1  and  N_2
REMARK    2  A    between atoms: N_2  and  C_3
REMARK    3  A    between atoms: N_2  and  C_4
REMARK    4  A    between atoms: C_4  and  C_5
REMARK    5  A    between atoms: C_5  and  C_6
REMARK    6  A    between atoms: C_6  and  C_7
REMARK    7  A    between atoms: C_7  and  N_8
REMARK    8  A    between atoms: C_9  and  N_10
REMARK    9  A    between atoms: C_11  and  C_12
REMARK   10  A    between atoms: N_20  and  C_21
REMARK   11  A    between atoms: C_24  and  C_25
REMARK   12  A    between atoms: C_27  and  C_28
REMARK                            x       y       z     vdW  Elec       q    Type
REMARK                         _______ _______ _______ _____ _____    ______ ____
ROOT
ATOM      1  N   UNL     1       3.481   6.953  17.802  0.00  0.00    +0.000 N 
ATOM      2  C   UNL     1       2.784   8.055  18.266  0.00  0.00    +0.000 A 
ATOM      3  C   UNL     1       2.040   7.677  19.383  0.00  0.00    +0.000 A 
ATOM      4  C   UNL     1       2.302   6.289  19.585  0.00  0.00    +0.000 A 
ATOM      5  N   UNL     1       1.847   5.399  20.513  0.00  0.00    +0.000 NA
ATOM      6  C   UNL     1       2.309   4.129  20.366  0.00  0.00    +0.000 A 
ATOM      7  C   UNL     1       3.169   3.745  19.351  0.00  0.00    +0.000 A 
ATOM      8  N   UNL     1       3.644   4.607  18.417  0.00  0.00    +0.000 NA
ATOM      9  C   UNL     1       3.178   5.868  18.586  0.00  0.00    +0.000 A 
ENDROOT
BRANCH   3  10
ATOM     10  C   UNL     1       1.129   8.620  20.162  0.00  0.00    +0.000 A 
ATOM     11  N   UNL     1       1.011   8.584  21.484  0.00  0.00    +0.000 NA
ATOM     12  C   UNL     1       0.156   9.609  21.839  0.00  0.00    +0.000 A 
ATOM     13  C   UNL     1      -0.292  10.042  23.102  0.00  0.00    +0.000 A 
ATOM     14  C   UNL     1      -1.187  11.124  23.180  0.00  0.00    +0.000 A 
ATOM     15  C   UNL     1      -1.632  11.767  22.027  0.00  0.00    +0.000 A 
ATOM     16  C   UNL     1      -1.190  11.357  20.768  0.00  0.00    +0.000 A 
ATOM     17  C   UNL     1      -0.297  10.277  20.710  0.00  0.00    +0.000 A 
ATOM     18  N   UNL     1       0.322   9.628  19.665  0.00  0.00    +0.000 N 
ATOM     19  C   UNL     1       0.084   9.970  18.284  0.00  0.00    +0.000 C 
ENDBRANCH   3  10
BRANCH   2  20
ATOM     20  N   UNL     1       2.899   9.261  17.678  0.00  0.00    +0.000 N 
ATOM     21  H   UNL     1       2.279  10.052  17.817  0.00  0.00    +0.000 HD
ATOM     22  H   UNL     1       3.760   9.483  17.169  0.00  0.00    +0.000 HD
ENDBRANCH   2  20
BRANCH   6  23
ATOM     23  C   UNL     1       1.844   3.203  21.357  0.00  0.00    +0.000 C 
ATOM     24  N   UNL     1       1.478   2.447  22.160  0.00  0.00    +0.000 NA
ENDBRANCH   6  23
BRANCH   7  25
ATOM     25  C   UNL     1       3.621   2.391  19.210  0.00  0.00    +0.000 C 
ATOM     26  N   UNL     1       3.985   1.293  19.120  0.00  0.00    +0.000 NA
ENDBRANCH   7  25
BRANCH   1  27
ATOM     27  C   UNL     1       4.367   6.877  16.649  0.00  0.00    +0.000 C 
BRANCH  27  28
ATOM     28  C   UNL     1       4.947   5.492  16.352  0.00  0.00    +0.000 C 
BRANCH  28  29
ATOM     29  C   UNL     1       6.464   5.457  16.133  0.00  0.00    +0.000 C 
BRANCH  29  30
ATOM     30  C   UNL     1       7.254   4.726  17.227  0.00  0.00    +0.000 C 
BRANCH  30  32
ATOM     31  C   UNL     1       7.760   7.010  17.900  0.00  0.00    +0.000 C 
ATOM     32  N   UNL     1       7.716   5.604  18.312  0.00  0.00    +0.000 NA
ATOM     33  C   UNL     1       6.841   5.462  19.480  0.00  0.00    +0.000 C 
ENDBRANCH  30  32
ENDBRANCH  29  30
ENDBRANCH  28  29
ENDBRANCH  27  28
ENDBRANCH   1  27
TORSDOF 9
ENDMDL
MODEL 5
REMARK VINA RESULT:      -6.7      0.674      1.496
REMARK  Name = 
REMARK  12 active torsions:
REMARK  status: ('A' for Active; 'I' for Inactive)
REMARK    1  A    between atoms: C_1  and  N_2
REMARK    2  A    between atoms: N_2  and  C_3
REMARK    3  A    between atoms: N_2  and  C_4
REMARK    4  A    between atoms: C_4  and  C_5
REMARK    5  A    between atoms: C_5  and  C_6
REMARK    6  A    between atoms: C_6  and  C_7
REMARK    7  A    between atoms: C_7  and  N_8
REMARK    8  A    between atoms: C_9  and  N_10
REMARK    9  A    between atoms: C_11  and  C_12
REMARK   10  A    between atoms: N_20  and  C_21
REMARK   11  A    between atoms: C_24  and  C_25
REMARK   12  A    between atoms: C_27  and  C_28
REMARK                            x       y       z     vdW  Elec       q    Type
REMARK                         _______ _______ _______ _____ _____    ______ ____
ROOT
ATOM      1  N   UNL     1       3.680   6.987  17.725  0.00  0.00    +0.000 N 
ATOM      2  C   UNL     1       2.976   8.128  18.067  0.00  0.00    +0.000 A 
ATOM      3  C   UNL     1       2.160   7.841  19.162  0.00  0.00    +0.000 A 
ATOM      4  C   UNL     1       2.386   6.468  19.478  0.00  0.00    +0.000 A 
ATOM      5  N   UNL     1       1.863   5.653  20.438  0.00  0.00    +0.000 NA
ATOM      6  C   UNL     1       2.311   4.370  20.410  0.00  0.00    +0.000 A 
ATOM      7  C   UNL     1       3.222   3.903  19.478  0.00  0.00    +0.000 A 
ATOM      8  N   UNL     1       3.765   4.689  18.515  0.00  0.00    +0.000 NA
ATOM      9  C   UNL     1       3.312   5.965  18.566  0.00  0.00    +0.000 A 
ENDROOT
BRANCH   3  10
ATOM     10  C   UNL     1       1.222   8.850  19.816  0.00  0.00    +0.000 A 
ATOM     11  N   UNL     1       0.395   9.624  19.122  0.00  0.00    +0.000 NA
ATOM     12  C   UNL     1      -0.332  10.358  20.038  0.00  0.00    +0.000 A 
ATOM     13  C   UNL     1      -1.360  11.304  19.857  0.00  0.00    +0.000 A 
ATOM     14  C   UNL     1      -1.931  11.923  20.983  0.00  0.00    +0.000 A 
ATOM     15  C   UNL     1      -1.492  11.612  22.269  0.00  0.00    +0.000 A 
ATOM     16  C   UNL     1      -0.481  10.669  22.467  0.00  0.00    +0.000 A 
ATOM     17  C   UNL     1       0.075  10.062  21.331  0.00  0.00    +0.000 A 
ATOM     18  N   UNL     1       1.063   9.117  21.164  0.00  0.00    +0.000 N 
ATOM     19  C   UNL     1       1.811   8.565  22.267  0.00  0.00    +0.000 C 
ENDBRANCH   3  10
BRANCH   2  20
ATOM     20  N   UNL     1       3.145   9.287  17.402  0.00  0.00    +0.000 N 
ATOM     21  H   UNL     1       3.760  10.046  17.676  0.00  0.00    +0.000 HD
ATOM     22  H   UNL     1       2.761   9.375  16.456  0.00  0.00    +0.000 HD
ENDBRANCH   2  20
BRANCH   6  23
ATOM     23  C   UNL     1       1.772   3.524  21.435  0.00  0.00    +0.000 C 
ATOM     24  N   UNL     1       1.331   2.832  22.257  0.00  0.00    +0.000 NA
ENDBRANCH   6  23
BRANCH   7  25
ATOM     25  C   UNL     1       3.659   2.537  19.462  0.00  0.00    +0.000 C 
ATOM     26  N   UNL     1       4.033   1.438  19.440  0.00  0.00    +0.000 NA
ENDBRANCH   7  25
BRANCH   1  27
ATOM     27  C   UNL     1       4.630   6.817  16.636  0.00  0.00    +0.000 C 
BRANCH  27  28
ATOM     28  C   UNL     1       6.105   6.958  17.018  0.00  0.00    +0.000 C 
BRANCH  28  29
ATOM     29  C   UNL     1       7.008   5.808  16.558  0.00  0.00    +0.000 C 
BRANCH  29  30
ATOM     30  C   UNL     1       6.261   4.537  16.130  0.00  0.00    +0.000 C 
BRANCH  30  32
ATOM     31  C   UNL     1       5.309   3.998  13.956  0.00  0.00    +0.000 C 
ATOM     32  N   UNL     1       6.536   4.125  14.745  0.00  0.00    +0.000 NA
ATOM     33  C   UNL     1       7.435   5.090  14.105  0.00  0.00    +0.000 C 
ENDBRANCH  30  32
ENDBRANCH  29  30
ENDBRANCH  28  29
ENDBRANCH  27  28
ENDBRANCH   1  27
TORSDOF 9
ENDMDL
MODEL 6
REMARK VINA RESULT:      -6.6      3.419      7.006
REMARK  Name = 
REMARK  12 active torsions:
REMARK  status: ('A' for Active; 'I' for Inactive)
REMARK    1  A    between atoms: C_1  and  N_2
REMARK    2  A    between atoms: N_2  and  C_3
REMARK    3  A    between atoms: N_2  and  C_4
REMARK    4  A    between atoms: C_4  and  C_5
REMARK    5  A    between atoms: C_5  and  C_6
REMARK    6  A    between atoms: C_6  and  C_7
REMARK    7  A    between atoms: C_7  and  N_8
REMARK    8  A    between atoms: C_9  and  N_10
REMARK    9  A    between atoms: C_11  and  C_12
REMARK   10  A    between atoms: N_20  and  C_21
REMARK   11  A    between atoms: C_24  and  C_25
REMARK   12  A    between atoms: C_27  and  C_28
REMARK                            x       y       z     vdW  Elec       q    Type
REMARK                         _______ _______ _______ _____ _____    ______ ____
ROOT
ATOM      1  N   UNL     1       0.209  10.738  18.979  0.00  0.00    +0.000 N 
ATOM      2  C   UNL     1       0.192  11.362  20.214  0.00  0.00    +0.000 A 
ATOM      3  C   UNL     1      -1.069  11.923  20.416  0.00  0.00    +0.000 A 
ATOM      4  C   UNL     1      -1.830  11.623  19.247  0.00  0.00    +0.000 A 
ATOM      5  N   UNL     1      -3.111  11.923  18.888  0.00  0.00    +0.000 NA
ATOM      6  C   UNL     1      -3.483  11.480  17.658  0.00  0.00    +0.000 A 
ATOM      7  C   UNL     1      -2.635  10.785  16.812  0.00  0.00    +0.000 A 
ATOM      8  N   UNL     1      -1.358  10.466  17.141  0.00  0.00    +0.000 NA
ATOM      9  C   UNL     1      -1.011  10.909  18.374  0.00  0.00    +0.000 A 
ENDROOT
BRANCH   3  10
ATOM     10  C   UNL     1      -1.465  12.709  21.661  0.00  0.00    +0.000 A 
ATOM     11  N   UNL     1      -2.550  12.432  22.377  0.00  0.00    +0.000 NA
ATOM     12  C   UNL     1      -2.554  13.300  23.450  0.00  0.00    +0.000 A 
ATOM     13  C   UNL     1      -3.448  13.427  24.532  0.00  0.00    +0.000 A 
ATOM     14  C   UNL     1      -3.222  14.424  25.497  0.00  0.00    +0.000 A 
ATOM     15  C   UNL     1      -2.127  15.281  25.396  0.00  0.00    +0.000 A 
ATOM     16  C   UNL     1      -1.226  15.163  24.337  0.00  0.00    +0.000 A 
ATOM     17  C   UNL     1      -1.469  14.163  23.384  0.00  0.00    +0.000 A 
ATOM     18  N   UNL     1      -0.804  13.777  22.241  0.00  0.00    +0.000 N 
ATOM     19  C   UNL     1       0.373  14.455  21.755  0.00  0.00    +0.000 C 
ENDBRANCH   3  10
BRANCH   2  20
ATOM     20  N   UNL     1       1.266  11.349  21.026  0.00  0.00    +0.000 N 
ATOM     21  H   UNL     1       2.226  11.185  20.742  0.00  0.00    +0.000 HD
ATOM     22  H   UNL     1       1.163  11.688  21.988  0.00  0.00    +0.000 HD
ENDBRANCH   2  20
BRANCH   6  23
ATOM     23  C   UNL     1      -4.837  11.780  17.296  0.00  0.00    +0.000 C 
ATOM     24  N   UNL     1      -5.933  12.035  17.004  0.00  0.00    +0.000 NA
ENDBRANCH   6  23
BRANCH   7  25
ATOM     25  C   UNL     1      -3.051  10.351  15.510  0.00  0.00    +0.000 C 
ATOM     26  N   UNL     1      -3.409  10.000  14.463  0.00  0.00    +0.000 NA
ENDBRANCH   7  25
BRANCH   1  27
ATOM     27  C   UNL     1       1.320  10.041  18.346  0.00  0.00    +0.000 C 
BRANCH  27  28
ATOM     28  C   UNL     1       1.610   8.637  18.883  0.00  0.00    +0.000 C 
BRANCH  28  29
ATOM     29  C   UNL     1       2.564   7.798  18.024  0.00  0.00    +0.000 C 
BRANCH  29  30
ATOM     30  C   UNL     1       2.495   6.286  18.278  0.00  0.00    +0.000 C 
BRANCH  30  32
ATOM     31  C   UNL     1       4.660   6.350  17.168  0.00  0.00    +0.000 C 
ATOM     32  N   UNL     1       3.769   5.587  18.044  0.00  0.00    +0.000 NA
ATOM     33  C   UNL     1       4.440   5.327  19.322  0.00  0.00    +0.000 C 
ENDBRANCH  30  32
ENDBRANCH  29  30
ENDBRANCH  28  29
ENDBRANCH  27  28
ENDBRANCH   1  27
TORSDOF 9
ENDMDL
MODEL 7
REMARK VINA RESULT:      -6.6      3.157      8.869
REMARK  Name = 
REMARK  12 active torsions:
REMARK  status: ('A' for Active; 'I' for Inactive)
REMARK    1  A    between atoms: C_1  and  N_2
REMARK    2  A    between atoms: N_2  and  C_3
REMARK    3  A    between atoms: N_2  and  C_4
REMARK    4  A    between atoms: C_4  and  C_5
REMARK    5  A    between atoms: C_5  and  C_6
REMARK    6  A    between atoms: C_6  and  C_7
REMARK    7  A    between atoms: C_7  and  N_8
REMARK    8  A    between atoms: C_9  and  N_10
REMARK    9  A    between atoms: C_11  and  C_12
REMARK   10  A    between atoms: N_20  and  C_21
REMARK   11  A    between atoms: C_24  and  C_25
REMARK   12  A    between atoms: C_27  and  C_28
REMARK                            x       y       z     vdW  Elec       q    Type
REMARK                         _______ _______ _______ _____ _____    ______ ____
ROOT
ATOM      1  N   UNL     1      -0.859  11.427  20.359  0.00  0.00    +0.000 N 
ATOM      2  C   UNL     1       0.272  10.629  20.361  0.00  0.00    +0.000 A 
ATOM      3  C   UNL     1       0.296   9.883  19.182  0.00  0.00    +0.000 A 
ATOM      4  C   UNL     1      -0.874  10.251  18.454  0.00  0.00    +0.000 A 
ATOM      5  N   UNL     1      -1.367   9.842  17.250  0.00  0.00    +0.000 NA
ATOM      6  C   UNL     1      -2.548  10.410  16.889  0.00  0.00    +0.000 A 
ATOM      7  C   UNL     1      -3.222  11.329  17.676  0.00  0.00    +0.000 A 
ATOM      8  N   UNL     1      -2.755  11.761  18.875  0.00  0.00    +0.000 NA
ATOM      9  C   UNL     1      -1.574  11.189  19.211  0.00  0.00    +0.000 A 
ENDROOT
BRANCH   3  10
ATOM     10  C   UNL     1       1.386   8.875  18.832  0.00  0.00    +0.000 A 
ATOM     11  N   UNL     1       2.090   8.934  17.708  0.00  0.00    +0.000 NA
ATOM     12  C   UNL     1       3.014   7.907  17.760  0.00  0.00    +0.000 A 
ATOM     13  C   UNL     1       4.024   7.528  16.854  0.00  0.00    +0.000 A 
ATOM     14  C   UNL     1       4.830   6.414  17.152  0.00  0.00    +0.000 A 
ATOM     15  C   UNL     1       4.640   5.689  18.327  0.00  0.00    +0.000 A 
ATOM     16  C   UNL     1       3.651   6.057  19.239  0.00  0.00    +0.000 A 
ATOM     17  C   UNL     1       2.857   7.171  18.925  0.00  0.00    +0.000 A 
ATOM     18  N   UNL     1       1.818   7.794  19.579  0.00  0.00    +0.000 N 
ATOM     19  C   UNL     1       1.281   7.313  20.829  0.00  0.00    +0.000 C 
ENDBRANCH   3  10
BRANCH   2  20
ATOM     20  N   UNL     1       1.157  10.663  21.375  0.00  0.00    +0.000 N 
ATOM     21  H   UNL     1       1.067  11.208  22.226  0.00  0.00    +0.000 HD
ATOM     22  H   UNL     1       1.913   9.971  21.394  0.00  0.00    +0.000 HD
ENDBRANCH   2  20
BRANCH   6  23
ATOM     23  C   UNL     1      -3.051   9.991  15.613  0.00  0.00    +0.000 C 
ATOM     24  N   UNL     1      -3.457   9.663  14.575  0.00  0.00    +0.000 NA
ENDBRANCH   6  23
BRANCH   7  25
ATOM     25  C   UNL     1      -4.478  11.894  17.277  0.00  0.00    +0.000 C 
ATOM     26  N   UNL     1      -5.494  12.366  16.972  0.00  0.00    +0.000 NA
ENDBRANCH   7  25
BRANCH   1  27
ATOM     27  C   UNL     1      -1.302  12.351  21.393  0.00  0.00    +0.000 C 
BRANCH  27  28
ATOM     28  C   UNL     1      -0.930  13.819  21.171  0.00  0.00    +0.000 C 
BRANCH  28  29
ATOM     29  C   UNL     1       0.285  14.309  21.968  0.00  0.00    +0.000 C 
BRANCH  29  30
ATOM     30  C   UNL     1       1.620  14.230  21.216  0.00  0.00    +0.000 C 
BRANCH  30  32
ATOM     31  C   UNL     1       1.749  15.630  19.228  0.00  0.00    +0.000 C 
ATOM     32  N   UNL     1       1.481  14.288  19.753  0.00  0.00    +0.000 NA
ATOM     33  C   UNL     1       2.390  13.324  19.124  0.00  0.00    +0.000 C 
ENDBRANCH  30  32
ENDBRANCH  29  30
ENDBRANCH  28  29
ENDBRANCH  27  28
ENDBRANCH   1  27
TORSDOF 9
ENDMDL
MODEL 8
REMARK VINA RESULT:      -6.6      1.328      1.505
REMARK  Name = 
REMARK  12 active torsions:
REMARK  status: ('A' for Active; 'I' for Inactive)
REMARK    1  A    between atoms: C_1  and  N_2
REMARK    2  A    between atoms: N_2  and  C_3
REMARK    3  A    between atoms: N_2  and  C_4
REMARK    4  A    between atoms: C_4  and  C_5
REMARK    5  A    between atoms: C_5  and  C_6
REMARK    6  A    between atoms: C_6  and  C_7
REMARK    7  A    between atoms: C_7  and  N_8
REMARK    8  A    between atoms: C_9  and  N_10
REMARK    9  A    between atoms: C_11  and  C_12
REMARK   10  A    between atoms: N_20  and  C_21
REMARK   11  A    between atoms: C_24  and  C_25
REMARK   12  A    between atoms: C_27  and  C_28
REMARK                            x       y       z     vdW  Elec       q    Type
REMARK                         _______ _______ _______ _____ _____    ______ ____
ROOT
ATOM      1  N   UNL     1       3.540   6.700  17.611  0.00  0.00    +0.000 N 
ATOM      2  C   UNL     1       2.881   7.820  18.088  0.00  0.00    +0.000 A 
ATOM      3  C   UNL     1       2.169   7.468  19.235  0.00  0.00    +0.000 A 
ATOM      4  C   UNL     1       2.411   6.077  19.442  0.00  0.00    +0.000 A 
ATOM      5  N   UNL     1       1.972   5.206  20.394  0.00  0.00    +0.000 NA
ATOM      6  C   UNL     1       2.403   3.925  20.245  0.00  0.00    +0.000 A 
ATOM      7  C   UNL     1       3.220   3.514  19.204  0.00  0.00    +0.000 A 
ATOM      8  N   UNL     1       3.678   4.358  18.245  0.00  0.00    +0.000 NA
ATOM      9  C   UNL     1       3.243   5.629  18.418  0.00  0.00    +0.000 A 
ENDROOT
BRANCH   3  10
ATOM     10  C   UNL     1       1.305   8.437  20.034  0.00  0.00    +0.000 A 
ATOM     11  N   UNL     1       1.183   8.375  21.355  0.00  0.00    +0.000 NA
ATOM     12  C   UNL     1       0.379   9.433  21.734  0.00  0.00    +0.000 A 
ATOM     13  C   UNL     1      -0.049   9.859  23.007  0.00  0.00    +0.000 A 
ATOM     14  C   UNL     1      -0.890  10.981  23.109  0.00  0.00    +0.000 A 
ATOM     15  C   UNL     1      -1.300  11.673  21.970  0.00  0.00    +0.000 A 
ATOM     16  C   UNL     1      -0.876  11.271  20.703  0.00  0.00    +0.000 A 
ATOM     17  C   UNL     1      -0.038  10.150  20.621  0.00  0.00    +0.000 A 
ATOM     18  N   UNL     1       0.550   9.496  19.561  0.00  0.00    +0.000 N 
ATOM     19  C   UNL     1       0.333   9.880  18.188  0.00  0.00    +0.000 C 
ENDBRANCH   3  10
BRANCH   2  20
ATOM     20  N   UNL     1       2.998   9.018  17.483  0.00  0.00    +0.000 N 
ATOM     21  H   UNL     1       3.232   9.894  17.938  0.00  0.00    +0.000 HD
ATOM     22  H   UNL     1       3.020   9.055  16.459  0.00  0.00    +0.000 HD
ENDBRANCH   2  20
BRANCH   6  23
ATOM     23  C   UNL     1       1.955   3.019  21.261  0.00  0.00    +0.000 C 
ATOM     24  N   UNL     1       1.602   2.285  22.091  0.00  0.00    +0.000 NA
ENDBRANCH   6  23
BRANCH   7  25
ATOM     25  C   UNL     1       3.640   2.151  19.062  0.00  0.00    +0.000 C 
ATOM     26  N   UNL     1       3.972   1.042  18.969  0.00  0.00    +0.000 NA
ENDBRANCH   7  25
BRANCH   1  27
ATOM     27  C   UNL     1       4.383   6.595  16.429  0.00  0.00    +0.000 C 
BRANCH  27  28
ATOM     28  C   UNL     1       5.793   7.174  16.569  0.00  0.00    +0.000 C 
BRANCH  28  29
ATOM     29  C   UNL     1       6.312   7.275  18.008  0.00  0.00    +0.000 C 
BRANCH  29  30
ATOM     30  C   UNL     1       7.736   6.741  18.216  0.00  0.00    +0.000 C 
BRANCH  30  32
ATOM     31  C   UNL     1       6.696   5.031  19.601  0.00  0.00    +0.000 C 
ATOM     32  N   UNL     1       7.784   5.343  18.671  0.00  0.00    +0.000 NA
ATOM     33  C   UNL     1       7.722   4.438  17.519  0.00  0.00    +0.000 C 
ENDBRANCH  30  32
ENDBRANCH  29  30
ENDBRANCH  28  29
ENDBRANCH  27  28
ENDBRANCH   1  27
TORSDOF 9
ENDMDL
MODEL 9
REMARK VINA RESULT:      -6.5      3.685     10.130
REMARK  Name = 
REMARK  12 active torsions:
REMARK  status: ('A' for Active; 'I' for Inactive)
REMARK    1  A    between atoms: C_1  and  N_2
REMARK    2  A    between atoms: N_2  and  C_3
REMARK    3  A    between atoms: N_2  and  C_4
REMARK    4  A    between atoms: C_4  and  C_5
REMARK    5  A    between atoms: C_5  and  C_6
REMARK    6  A    between atoms: C_6  and  C_7
REMARK    7  A    between atoms: C_7  and  N_8
REMARK    8  A    between atoms: C_9  and  N_10
REMARK    9  A    between atoms: C_11  and  C_12
REMARK   10  A    between atoms: N_20  and  C_21
REMARK   11  A    between atoms: C_24  and  C_25
REMARK   12  A    between atoms: C_27  and  C_28
REMARK                            x       y       z     vdW  Elec       q    Type
REMARK                         _______ _______ _______ _____ _____    ______ ____
ROOT
ATOM      1  N   UNL     1      -0.652  12.522  19.039  0.00  0.00    +0.000 N 
ATOM      2  C   UNL     1      -0.400  11.162  19.007  0.00  0.00    +0.000 A 
ATOM      3  C   UNL     1       0.964  10.963  18.793  0.00  0.00    +0.000 A 
ATOM      4  C   UNL     1       1.544  12.263  18.688  0.00  0.00    +0.000 A 
ATOM      5  N   UNL     1       2.826  12.677  18.473  0.00  0.00    +0.000 NA
ATOM      6  C   UNL     1       2.991  14.024  18.407  0.00  0.00    +0.000 A 
ATOM      7  C   UNL     1       1.948  14.926  18.535  0.00  0.00    +0.000 A 
ATOM      8  N   UNL     1       0.664  14.546  18.754  0.00  0.00    +0.000 NA
ATOM      9  C   UNL     1       0.523  13.201  18.825  0.00  0.00    +0.000 A 
ENDROOT
BRANCH   3  10
ATOM     10  C   UNL     1       1.621   9.591  18.682  0.00  0.00    +0.000 A 
ATOM     11  N   UNL     1       2.280   9.191  17.601  0.00  0.00    +0.000 NA
ATOM     12  C   UNL     1       2.781   7.934  17.880  0.00  0.00    +0.000 A 
ATOM     13  C   UNL     1       3.576   7.065  17.107  0.00  0.00    +0.000 A 
ATOM     14  C   UNL     1       3.941   5.814  17.637  0.00  0.00    +0.000 A 
ATOM     15  C   UNL     1       3.528   5.430  18.911  0.00  0.00    +0.000 A 
ATOM     16  C   UNL     1       2.749   6.284  19.694  0.00  0.00    +0.000 A 
ATOM     17  C   UNL     1       2.395   7.527  19.149  0.00  0.00    +0.000 A 
ATOM     18  N   UNL     1       1.655   8.584  19.630  0.00  0.00    +0.000 N 
ATOM     19  C   UNL     1       1.004   8.560  20.917  0.00  0.00    +0.000 C 
ENDBRANCH   3  10
BRANCH   2  20
ATOM     20  N   UNL     1      -1.381  10.258  19.191  0.00  0.00    +0.000 N 
ATOM     21  H   UNL     1      -1.565   9.746  20.047  0.00  0.00    +0.000 HD
ATOM     22  H   UNL     1      -2.118  10.177  18.483  0.00  0.00    +0.000 HD
ENDBRANCH   2  20
BRANCH   6  23
ATOM     23  C   UNL     1       4.344  14.454  18.202  0.00  0.00    +0.000 C 
ATOM     24  N   UNL     1       5.444  14.790  18.036  0.00  0.00    +0.000 NA
ENDBRANCH   6  23
BRANCH   7  25
ATOM     25  C   UNL     1       2.152  16.342  18.438  0.00  0.00    +0.000 C 
ATOM     26  N   UNL     1       2.309  17.488  18.338  0.00  0.00    +0.000 NA
ENDBRANCH   7  25
BRANCH   1  27
ATOM     27  C   UNL     1      -1.934  13.189  19.216  0.00  0.00    +0.000 C 
BRANCH  27  28
ATOM     28  C   UNL     1      -2.291  13.562  20.657  0.00  0.00    +0.000 C 
BRANCH  28  29
ATOM     29  C   UNL     1      -3.405  12.719  21.288  0.00  0.00    +0.000 C 
BRANCH  29  30
ATOM     30  C   UNL     1      -3.303  12.557  22.811  0.00  0.00    +0.000 C 
BRANCH  30  32
ATOM     31  C   UNL     1      -4.491  12.375  24.928  0.00  0.00    +0.000 C 
ATOM     32  N   UNL     1      -4.594  12.304  23.468  0.00  0.00    +0.000 NA
ATOM     33  C   UNL     1      -5.593  13.269  22.998  0.00  0.00    +0.000 C 
ENDBRANCH  30  32
ENDBRANCH  29  30
ENDBRANCH  28  29
ENDBRANCH  27  28
ENDBRANCH   1  27
TORSDOF 9
ENDMDL
