MODEL 1
REMARK VINA RESULT:      -8.4      0.000      0.000
REMARK  Name = 
REMARK  5 active torsions:
REMARK  status: ('A' for Active; 'I' for Inactive)
REMARK    1  A    between atoms: C_1  and  C_2
REMARK    2  A    between atoms: C_11  and  S_12
REMARK    3  A    between atoms: S_12  and  N_15
REMARK    4  A    between atoms: N_15  and  C_16
REMARK    5  A    between atoms: C_16  and  C_17
REMARK                            x       y       z     vdW  Elec       q    Type
REMARK                         _______ _______ _______ _____ _____    ______ ____
ROOT
ATOM      1  C   UNL     1       1.862   2.807  21.628  0.00  0.00    +0.000 C 
ATOM      2  C   UNL     1       1.544   3.310  20.231  0.00  0.00    +0.000 C 
ATOM      3  C   UNL     1       2.577   2.756  19.212  0.00  0.00    +0.000 C 
ATOM      4  O   UNL     1       2.805   1.580  18.984  0.00  0.00    +0.000 OA
ATOM      5  N   UNL     1       3.192   3.857  18.626  0.00  0.00    +0.000 N 
ATOM      6  C   UNL     1       4.273   3.867  17.664  0.00  0.00    +0.000 C 
ATOM      7  C   UNL     1       4.306   5.186  16.881  0.00  0.00    +0.000 C 
ATOM      8  C   UNL     1       4.301   6.405  17.822  0.00  0.00    +0.000 C 
ATOM      9  C   UNL     1       3.178   6.300  18.814  0.00  0.00    +0.000 A 
ATOM     10  C   UNL     1       2.582   7.382  19.460  0.00  0.00    +0.000 A 
ATOM     11  C   UNL     1       1.533   7.168  20.386  0.00  0.00    +0.000 A 
ATOM     12  C   UNL     1       1.094   5.869  20.720  0.00  0.00    +0.000 A 
ATOM     13  C   UNL     1       1.723   4.803  20.099  0.00  0.00    +0.000 A 
ATOM     14  C   UNL     1       2.722   5.045  19.166  0.00  0.00    +0.000 A 
ENDROOT
BRANCH  11  15
ATOM     15  S   UNL     1       0.834   8.595  21.213  0.00  0.00    +0.000 S 
ATOM     16  O   UNL     1      -0.543   8.299  21.519  0.00  0.00    +0.000 OA
ATOM     17  O   UNL     1       1.789   8.996  22.232  0.00  0.00    +0.000 OA
BRANCH  15  18
ATOM     18  N   UNL     1       0.864   9.775  19.984  0.00  0.00    +0.000 NA
ATOM     19  H   UNL     1       0.790   9.342  19.060  0.00  0.00    +0.000 HD
BRANCH  18  20
ATOM     20  C   UNL     1      -0.178  10.809  20.160  0.00  0.00    +0.000 C 
BRANCH  20  21
ATOM     21  C   UNL     1      -1.207  10.856  19.054  0.00  0.00    +0.000 A 
ATOM     22  C   UNL     1      -1.042  10.008  17.944  0.00  0.00    +0.000 A 
ATOM     23  C   UNL     1      -2.005   9.957  16.934  0.00  0.00    +0.000 A 
ATOM     24  C   UNL     1      -3.133  10.760  17.028  0.00  0.00    +0.000 A 
ATOM     25  F   UNL     1      -4.062  10.705  16.064  0.00  0.00    +0.000 F 
ATOM     26  C   UNL     1      -3.319  11.608  18.112  0.00  0.00    +0.000 A 
ATOM     27  C   UNL     1      -2.364  11.647  19.133  0.00  0.00    +0.000 A 
ENDBRANCH  20  21
ENDBRANCH  18  20
ENDBRANCH  15  18
ENDBRANCH  11  15
TORSDOF 4
ENDMDL
MODEL 2
REMARK VINA RESULT:      -8.3      5.188      7.917
REMARK  Name = 
REMARK  5 active torsions:
REMARK  status: ('A' for Active; 'I' for Inactive)
REMARK    1  A    between atoms: C_1  and  C_2
REMARK    2  A    between atoms: C_11  and  S_12
REMARK    3  A    between atoms: S_12  and  N_15
REMARK    4  A    between atoms: N_15  and  C_16
REMARK    5  A    between atoms: C_16  and  C_17
REMARK                            x       y       z     vdW  Elec       q    Type
REMARK                         _______ _______ _______ _____ _____    ______ ____
ROOT
ATOM      1  C   UNL     1       3.532   1.349  18.703  0.00  0.00    +0.000 C 
ATOM      2  C   UNL     1       3.729   2.354  19.824  0.00  0.00    +0.000 C 
ATOM      3  C   UNL     1       2.357   2.787  20.406  0.00  0.00    +0.000 C 
ATOM      4  O   UNL     1       1.522   2.052  20.905  0.00  0.00    +0.000 OA
ATOM      5  N   UNL     1       2.266   4.164  20.237  0.00  0.00    +0.000 N 
ATOM      6  C   UNL     1       1.151   5.029  20.555  0.00  0.00    +0.000 C 
ATOM      7  C   UNL     1       1.610   6.484  20.730  0.00  0.00    +0.000 C 
ATOM      8  C   UNL     1       2.445   6.963  19.528  0.00  0.00    +0.000 C 
ATOM      9  C   UNL     1       3.554   5.993  19.236  0.00  0.00    +0.000 A 
ATOM     10  C   UNL     1       4.744   6.316  18.586  0.00  0.00    +0.000 A 
ATOM     11  C   UNL     1       5.721   5.319  18.355  0.00  0.00    +0.000 A 
ATOM     12  C   UNL     1       5.508   3.973  18.724  0.00  0.00    +0.000 A 
ATOM     13  C   UNL     1       4.305   3.661  19.333  0.00  0.00    +0.000 A 
ATOM     14  C   UNL     1       3.381   4.667  19.583  0.00  0.00    +0.000 A 
ENDROOT
BRANCH  11  15
ATOM     15  S   UNL     1       7.213   5.786  17.480  0.00  0.00    +0.000 S 
ATOM     16  O   UNL     1       7.831   6.866  18.205  0.00  0.00    +0.000 OA
ATOM     17  O   UNL     1       7.917   4.553  17.169  0.00  0.00    +0.000 OA
BRANCH  15  18
ATOM     18  N   UNL     1       6.594   6.410  16.020  0.00  0.00    +0.000 NA
ATOM     19  H   UNL     1       7.347   6.592  15.353  0.00  0.00    +0.000 HD
BRANCH  18  20
ATOM     20  C   UNL     1       5.563   5.537  15.419  0.00  0.00    +0.000 C 
BRANCH  20  21
ATOM     21  C   UNL     1       6.005   4.819  14.165  0.00  0.00    +0.000 A 
ATOM     22  C   UNL     1       7.278   5.103  13.639  0.00  0.00    +0.000 A 
ATOM     23  C   UNL     1       7.764   4.409  12.529  0.00  0.00    +0.000 A 
ATOM     24  C   UNL     1       6.976   3.433  11.937  0.00  0.00    +0.000 A 
ATOM     25  F   UNL     1       7.444   2.761  10.877  0.00  0.00    +0.000 F 
ATOM     26  C   UNL     1       5.713   3.135  12.435  0.00  0.00    +0.000 A 
ATOM     27  C   UNL     1       5.232   3.816  13.557  0.00  0.00    +0.000 A 
ENDBRANCH  20  21
ENDBRANCH  18  20
ENDBRANCH  15  18
ENDBRANCH  11  15
TORSDOF 4
ENDMDL
MODEL 3
REMARK VINA RESULT:      -8.1      3.719      7.443
REMARK  Name = 
REMARK  5 active torsions:
REMARK  status: ('A' for Active; 'I' for Inactive)
REMARK    1  A    between atoms: C_1  and  C_2
REMARK    2  A    between atoms: C_11  and  S_12
REMARK    3  A    between atoms: S_12  and  N_15
REMARK    4  A    between atoms: N_15  and  C_16
REMARK    5  A    between atoms: C_16  and  C_17
REMARK                            x       y       z     vdW  Elec       q    Type
REMARK                         _______ _______ _______ _____ _____    ______ ____
ROOT
ATOM      1  C   UNL     1      -0.602   8.499  22.444  0.00  0.00    +0.000 C 
ATOM      2  C   UNL     1       0.787   8.937  22.015  0.00  0.00    +0.000 C 
ATOM      3  C   UNL     1       0.735  10.360  21.397  0.00  0.00    +0.000 C 
ATOM      4  O   UNL     1       0.340  11.372  21.950  0.00  0.00    +0.000 OA
ATOM      5  N   UNL     1       1.216  10.250  20.097  0.00  0.00    +0.000 N 
ATOM      6  C   UNL     1       1.302  11.285  19.089  0.00  0.00    +0.000 C 
ATOM      7  C   UNL     1       2.342  10.929  18.016  0.00  0.00    +0.000 C 
ATOM      8  C   UNL     1       2.104   9.519  17.443  0.00  0.00    +0.000 C 
ATOM      9  C   UNL     1       1.984   8.512  18.550  0.00  0.00    +0.000 A 
ATOM     10  C   UNL     1       2.252   7.150  18.421  0.00  0.00    +0.000 A 
ATOM     11  C   UNL     1       2.099   6.287  19.531  0.00  0.00    +0.000 A 
ATOM     12  C   UNL     1       1.629   6.757  20.776  0.00  0.00    +0.000 A 
ATOM     13  C   UNL     1       1.330   8.105  20.878  0.00  0.00    +0.000 A 
ATOM     14  C   UNL     1       1.527   8.936  19.783  0.00  0.00    +0.000 A 
ENDROOT
BRANCH  11  15
ATOM     15  S   UNL     1       2.420   4.541  19.293  0.00  0.00    +0.000 S 
ATOM     16  O   UNL     1       1.573   3.807  20.199  0.00  0.00    +0.000 OA
ATOM     17  O   UNL     1       2.411   4.307  17.858  0.00  0.00    +0.000 OA
BRANCH  15  18
ATOM     18  N   UNL     1       4.030   4.393  19.831  0.00  0.00    +0.000 NA
ATOM     19  H   UNL     1       4.112   3.662  20.541  0.00  0.00    +0.000 HD
BRANCH  18  20
ATOM     20  C   UNL     1       4.982   4.156  18.724  0.00  0.00    +0.000 C 
BRANCH  20  21
ATOM     21  C   UNL     1       5.853   5.343  18.383  0.00  0.00    +0.000 A 
ATOM     22  C   UNL     1       7.068   5.507  19.073  0.00  0.00    +0.000 A 
ATOM     23  C   UNL     1       7.944   6.542  18.740  0.00  0.00    +0.000 A 
ATOM     24  C   UNL     1       7.604   7.421  17.721  0.00  0.00    +0.000 A 
ATOM     25  F   UNL     1       8.448   8.409  17.396  0.00  0.00    +0.000 F 
ATOM     26  C   UNL     1       6.409   7.283  17.027  0.00  0.00    +0.000 A 
ATOM     27  C   UNL     1       5.539   6.236  17.346  0.00  0.00    +0.000 A 
ENDBRANCH  20  21
ENDBRANCH  18  20
ENDBRANCH  15  18
ENDBRANCH  11  15
TORSDOF 4
ENDMDL
MODEL 4
REMARK VINA RESULT:      -8.1      5.125      8.517
REMARK  Name = 
REMARK  5 active torsions:
REMARK  status: ('A' for Active; 'I' for Inactive)
REMARK    1  A    between atoms: C_1  and  C_2
REMARK    2  A    between atoms: C_11  and  S_12
REMARK    3  A    between atoms: S_12  and  N_15
REMARK    4  A    between atoms: N_15  and  C_16
REMARK    5  A    between atoms: C_16  and  C_17
REMARK                            x       y       z     vdW  Elec       q    Type
REMARK                         _______ _______ _______ _____ _____    ______ ____
ROOT
ATOM      1  C   UNL     1       3.608   1.651  19.210  0.00  0.00    +0.000 C 
ATOM      2  C   UNL     1       3.988   2.901  19.984  0.00  0.00    +0.000 C 
ATOM      3  C   UNL     1       2.733   3.521  20.654  0.00  0.00    +0.000 C 
ATOM      4  O   UNL     1       1.999   2.971  21.458  0.00  0.00    +0.000 OA
ATOM      5  N   UNL     1       2.607   4.812  20.152  0.00  0.00    +0.000 N 
ATOM      6  C   UNL     1       1.558   5.772  20.416  0.00  0.00    +0.000 C 
ATOM      7  C   UNL     1       2.032   7.204  20.130  0.00  0.00    +0.000 C 
ATOM      8  C   UNL     1       2.647   7.327  18.724  0.00  0.00    +0.000 C 
ATOM      9  C   UNL     1       3.696   6.272  18.513  0.00  0.00    +0.000 A 
ATOM     10  C   UNL     1       4.756   6.372  17.614  0.00  0.00    +0.000 A 
ATOM     11  C   UNL     1       5.685   5.311  17.489  0.00  0.00    +0.000 A 
ATOM     12  C   UNL     1       5.545   4.114  18.224  0.00  0.00    +0.000 A 
ATOM     13  C   UNL     1       4.465   4.015  19.084  0.00  0.00    +0.000 A 
ATOM     14  C   UNL     1       3.591   5.087  19.215  0.00  0.00    +0.000 A 
ENDROOT
BRANCH  11  15
ATOM     15  S   UNL     1       7.003   5.481  16.288  0.00  0.00    +0.000 S 
ATOM     16  O   UNL     1       7.541   6.813  16.407  0.00  0.00    +0.000 OA
ATOM     17  O   UNL     1       7.832   4.293  16.409  0.00  0.00    +0.000 OA
BRANCH  15  18
ATOM     18  N   UNL     1       6.161   5.376  14.811  0.00  0.00    +0.000 NA
ATOM     19  H   UNL     1       5.565   6.195  14.672  0.00  0.00    +0.000 HD
BRANCH  18  20
ATOM     20  C   UNL     1       7.060   5.182  13.654  0.00  0.00    +0.000 C 
BRANCH  20  21
ATOM     21  C   UNL     1       6.684   4.026  12.756  0.00  0.00    +0.000 A 
ATOM     22  C   UNL     1       7.705   3.356  12.057  0.00  0.00    +0.000 A 
ATOM     23  C   UNL     1       7.418   2.233  11.277  0.00  0.00    +0.000 A 
ATOM     24  C   UNL     1       6.110   1.781  11.188  0.00  0.00    +0.000 A 
ATOM     25  F   UNL     1       5.835   0.699  10.447  0.00  0.00    +0.000 F 
ATOM     26  C   UNL     1       5.083   2.427  11.866  0.00  0.00    +0.000 A 
ATOM     27  C   UNL     1       5.370   3.540  12.663  0.00  0.00    +0.000 A 
ENDBRANCH  20  21
ENDBRANCH  18  20
ENDBRANCH  15  18
ENDBRANCH  11  15
TORSDOF 4
ENDMDL
MODEL 5
REMARK VINA RESULT:      -8.1      3.748      7.541
REMARK  Name = 
REMARK  5 active torsions:
REMARK  status: ('A' for Active; 'I' for Inactive)
REMARK    1  A    between atoms: C_1  and  C_2
REMARK    2  A    between atoms: C_11  and  S_12
REMARK    3  A    between atoms: S_12  and  N_15
REMARK    4  A    between atoms: N_15  and  C_16
REMARK    5  A    between atoms: C_16  and  C_17
REMARK                            x       y       z     vdW  Elec       q    Type
REMARK                         _______ _______ _______ _____ _____    ______ ____
ROOT
ATOM      1  C   UNL     1      -0.623   8.571  22.460  0.00  0.00    +0.000 C 
ATOM      2  C   UNL     1       0.754   9.048  22.035  0.00  0.00    +0.000 C 
ATOM      3  C   UNL     1       0.666  10.476  21.432  0.00  0.00    +0.000 C 
ATOM      4  O   UNL     1       0.245  11.472  21.996  0.00  0.00    +0.000 OA
ATOM      5  N   UNL     1       1.147  10.392  20.130  0.00  0.00    +0.000 N 
ATOM      6  C   UNL     1       1.206  11.439  19.133  0.00  0.00    +0.000 C 
ATOM      7  C   UNL     1       2.253  11.120  18.056  0.00  0.00    +0.000 C 
ATOM      8  C   UNL     1       2.051   9.712  17.468  0.00  0.00    +0.000 C 
ATOM      9  C   UNL     1       1.957   8.690  18.565  0.00  0.00    +0.000 A 
ATOM     10  C   UNL     1       2.259   7.337  18.420  0.00  0.00    +0.000 A 
ATOM     11  C   UNL     1       2.129   6.458  19.522  0.00  0.00    +0.000 A 
ATOM     12  C   UNL     1       1.649   6.904  20.772  0.00  0.00    +0.000 A 
ATOM     13  C   UNL     1       1.316   8.242  20.888  0.00  0.00    +0.000 A 
ATOM     14  C   UNL     1       1.491   9.089  19.802  0.00  0.00    +0.000 A 
ENDROOT
BRANCH  11  15
ATOM     15  S   UNL     1       2.493   4.723  19.264  0.00  0.00    +0.000 S 
ATOM     16  O   UNL     1       3.424   4.310  20.284  0.00  0.00    +0.000 OA
ATOM     17  O   UNL     1       1.219   4.056  19.057  0.00  0.00    +0.000 OA
BRANCH  15  18
ATOM     18  N   UNL     1       3.315   4.745  17.772  0.00  0.00    +0.000 NA
ATOM     19  H   UNL     1       3.336   5.689  17.380  0.00  0.00    +0.000 HD
BRANCH  18  20
ATOM     20  C   UNL     1       4.681   4.188  17.864  0.00  0.00    +0.000 C 
BRANCH  20  21
ATOM     21  C   UNL     1       5.778   5.226  17.923  0.00  0.00    +0.000 A 
ATOM     22  C   UNL     1       5.647   6.389  17.142  0.00  0.00    +0.000 A 
ATOM     23  C   UNL     1       6.593   7.413  17.221  0.00  0.00    +0.000 A 
ATOM     24  C   UNL     1       7.678   7.274  18.075  0.00  0.00    +0.000 A 
ATOM     25  F   UNL     1       8.582   8.259  18.157  0.00  0.00    +0.000 F 
ATOM     26  C   UNL     1       7.832   6.134  18.854  0.00  0.00    +0.000 A 
ATOM     27  C   UNL     1       6.876   5.116  18.791  0.00  0.00    +0.000 A 
ENDBRANCH  20  21
ENDBRANCH  18  20
ENDBRANCH  15  18
ENDBRANCH  11  15
TORSDOF 4
ENDMDL
MODEL 6
REMARK VINA RESULT:      -8.0      5.102      7.539
REMARK  Name = 
REMARK  5 active torsions:
REMARK  status: ('A' for Active; 'I' for Inactive)
REMARK    1  A    between atoms: C_1  and  C_2
REMARK    2  A    between atoms: C_11  and  S_12
REMARK    3  A    between atoms: S_12  and  N_15
REMARK    4  A    between atoms: N_15  and  C_16
REMARK    5  A    between atoms: C_16  and  C_17
REMARK                            x       y       z     vdW  Elec       q    Type
REMARK                         _______ _______ _______ _____ _____    ______ ____
ROOT
ATOM      1  C   UNL     1       3.372   1.576  18.271  0.00  0.00    +0.000 C 
ATOM      2  C   UNL     1       3.696   2.559  19.382  0.00  0.00    +0.000 C 
ATOM      3  C   UNL     1       2.412   2.913  20.179  0.00  0.00    +0.000 C 
ATOM      4  O   UNL     1       1.694   2.128  20.774  0.00  0.00    +0.000 OA
ATOM      5  N   UNL     1       2.240   4.289  20.071  0.00  0.00    +0.000 N 
ATOM      6  C   UNL     1       1.151   5.093  20.582  0.00  0.00    +0.000 C 
ATOM      7  C   UNL     1       1.571   6.562  20.732  0.00  0.00    +0.000 C 
ATOM      8  C   UNL     1       2.193   7.110  19.434  0.00  0.00    +0.000 C 
ATOM      9  C   UNL     1       3.283   6.200  18.947  0.00  0.00    +0.000 A 
ATOM     10  C   UNL     1       4.346   6.594  18.136  0.00  0.00    +0.000 A 
ATOM     11  C   UNL     1       5.317   5.649  17.727  0.00  0.00    +0.000 A 
ATOM     12  C   UNL     1       5.218   4.286  18.080  0.00  0.00    +0.000 A 
ATOM     13  C   UNL     1       4.136   3.903  18.853  0.00  0.00    +0.000 A 
ATOM     14  C   UNL     1       3.220   4.859  19.272  0.00  0.00    +0.000 A 
ENDROOT
BRANCH  11  15
ATOM     15  S   UNL     1       6.637   6.207  16.653  0.00  0.00    +0.000 S 
ATOM     16  O   UNL     1       7.818   5.443  16.969  0.00  0.00    +0.000 OA
ATOM     17  O   UNL     1       6.085   6.265  15.309  0.00  0.00    +0.000 OA
BRANCH  15  18
ATOM     18  N   UNL     1       6.881   7.808  17.182  0.00  0.00    +0.000 NA
ATOM     19  H   UNL     1       6.090   8.132  17.742  0.00  0.00    +0.000 HD
BRANCH  18  20
ATOM     20  C   UNL     1       8.149   7.977  17.923  0.00  0.00    +0.000 C 
BRANCH  20  21
ATOM     21  C   UNL     1       8.484   9.409  18.271  0.00  0.00    +0.000 A 
ATOM     22  C   UNL     1       9.249   9.661  19.424  0.00  0.00    +0.000 A 
ATOM     23  C   UNL     1       9.651  10.959  19.746  0.00  0.00    +0.000 A 
ATOM     24  C   UNL     1       9.283  12.011  18.920  0.00  0.00    +0.000 A 
ATOM     25  F   UNL     1       9.675  13.255  19.223  0.00  0.00    +0.000 F 
ATOM     26  C   UNL     1       8.524  11.790  17.776  0.00  0.00    +0.000 A 
ATOM     27  C   UNL     1       8.137  10.488  17.442  0.00  0.00    +0.000 A 
ENDBRANCH  20  21
ENDBRANCH  18  20
ENDBRANCH  15  18
ENDBRANCH  11  15
TORSDOF 4
ENDMDL
MODEL 7
REMARK VINA RESULT:      -8.0      5.156      7.664
REMARK  Name = 
REMARK  5 active torsions:
REMARK  status: ('A' for Active; 'I' for Inactive)
REMARK    1  A    between atoms: C_1  and  C_2
REMARK    2  A    between atoms: C_11  and  S_12
REMARK    3  A    between atoms: S_12  and  N_15
REMARK    4  A    between atoms: N_15  and  C_16
REMARK    5  A    between atoms: C_16  and  C_17
REMARK                            x       y       z     vdW  Elec       q    Type
REMARK                         _______ _______ _______ _____ _____    ______ ____
ROOT
ATOM      1  C   UNL     1       3.286   1.535  18.825  0.00  0.00    +0.000 C 
ATOM      2  C   UNL     1       3.567   2.611  19.859  0.00  0.00    +0.000 C 
ATOM      3  C   UNL     1       2.236   3.160  20.440  0.00  0.00    +0.000 C 
ATOM      4  O   UNL     1       1.379   2.511  21.016  0.00  0.00    +0.000 OA
ATOM      5  N   UNL     1       2.211   4.523  20.166  0.00  0.00    +0.000 N 
ATOM      6  C   UNL     1       1.150   5.468  20.443  0.00  0.00    +0.000 C 
ATOM      7  C   UNL     1       1.687   6.905  20.492  0.00  0.00    +0.000 C 
ATOM      8  C   UNL     1       2.511   7.245  19.235  0.00  0.00    +0.000 C 
ATOM      9  C   UNL     1       3.560   6.198  18.993  0.00  0.00    +0.000 A 
ATOM     10  C   UNL     1       4.745   6.407  18.290  0.00  0.00    +0.000 A 
ATOM     11  C   UNL     1       5.663   5.345  18.113  0.00  0.00    +0.000 A 
ATOM     12  C   UNL     1       5.393   4.045  18.592  0.00  0.00    +0.000 A 
ATOM     13  C   UNL     1       4.194   3.845  19.253  0.00  0.00    +0.000 A 
ATOM     14  C   UNL     1       3.330   4.914  19.446  0.00  0.00    +0.000 A 
ENDROOT
BRANCH  11  15
ATOM     15  S   UNL     1       7.151   5.664  17.167  0.00  0.00    +0.000 S 
ATOM     16  O   UNL     1       7.998   4.503  17.270  0.00  0.00    +0.000 OA
ATOM     17  O   UNL     1       6.723   6.204  15.887  0.00  0.00    +0.000 OA
BRANCH  15  18
ATOM     18  N   UNL     1       7.873   6.931  18.047  0.00  0.00    +0.000 NA
ATOM     19  H   UNL     1       8.888   6.814  18.090  0.00  0.00    +0.000 HD
BRANCH  18  20
ATOM     20  C   UNL     1       7.523   8.266  17.517  0.00  0.00    +0.000 C 
BRANCH  20  21
ATOM     21  C   UNL     1       8.321   9.405  18.110  0.00  0.00    +0.000 A 
ATOM     22  C   UNL     1       8.333  10.640  17.439  0.00  0.00    +0.000 A 
ATOM     23  C   UNL     1       8.991  11.744  17.986  0.00  0.00    +0.000 A 
ATOM     24  C   UNL     1       9.643  11.614  19.204  0.00  0.00    +0.000 A 
ATOM     25  F   UNL     1      10.266  12.675  19.734  0.00  0.00    +0.000 F 
ATOM     26  C   UNL     1       9.648  10.404  19.886  0.00  0.00    +0.000 A 
ATOM     27  C   UNL     1       8.975   9.302  19.348  0.00  0.00    +0.000 A 
ENDBRANCH  20  21
ENDBRANCH  18  20
ENDBRANCH  15  18
ENDBRANCH  11  15
TORSDOF 4
ENDMDL
MODEL 8
REMARK VINA RESULT:      -7.9      0.876      2.689
REMARK  Name = 
REMARK  5 active torsions:
REMARK  status: ('A' for Active; 'I' for Inactive)
REMARK    1  A    between atoms: C_1  and  C_2
REMARK    2  A    between atoms: C_11  and  S_12
REMARK    3  A    between atoms: S_12  and  N_15
REMARK    4  A    between atoms: N_15  and  C_16
REMARK    5  A    between atoms: C_16  and  C_17
REMARK                            x       y       z     vdW  Elec       q    Type
REMARK                         _______ _______ _______ _____ _____    ______ ____
ROOT
ATOM      1  C   UNL     1       4.209   6.708  16.843  0.00  0.00    +0.000 C 
ATOM      2  C   UNL     1       4.422   6.048  18.193  0.00  0.00    +0.000 C 
ATOM      3  C   UNL     1       4.436   4.503  18.040  0.00  0.00    +0.000 C 
ATOM      4  O   UNL     1       5.202   3.854  17.348  0.00  0.00    +0.000 OA
ATOM      5  N   UNL     1       3.406   4.012  18.834  0.00  0.00    +0.000 N 
ATOM      6  C   UNL     1       2.967   2.640  18.977  0.00  0.00    +0.000 C 
ATOM      7  C   UNL     1       2.202   2.438  20.293  0.00  0.00    +0.000 C 
ATOM      8  C   UNL     1       1.073   3.472  20.458  0.00  0.00    +0.000 C 
ATOM      9  C   UNL     1       1.599   4.864  20.254  0.00  0.00    +0.000 A 
ATOM     10  C   UNL     1       1.025   6.018  20.784  0.00  0.00    +0.000 A 
ATOM     11  C   UNL     1       1.600   7.284  20.521  0.00  0.00    +0.000 A 
ATOM     12  C   UNL     1       2.729   7.425  19.687  0.00  0.00    +0.000 A 
ATOM     13  C   UNL     1       3.265   6.273  19.136  0.00  0.00    +0.000 A 
ATOM     14  C   UNL     1       2.703   5.041  19.442  0.00  0.00    +0.000 A 
ENDROOT
BRANCH  11  15
ATOM     15  S   UNL     1       0.794   8.734  21.197  0.00  0.00    +0.000 S 
ATOM     16  O   UNL     1      -0.560   8.371  21.533  0.00  0.00    +0.000 OA
ATOM     17  O   UNL     1       1.711   9.305  22.170  0.00  0.00    +0.000 OA
BRANCH  15  18
ATOM     18  N   UNL     1       0.748   9.780  19.853  0.00  0.00    +0.000 NA
ATOM     19  H   UNL     1       0.646   9.253  18.984  0.00  0.00    +0.000 HD
BRANCH  18  20
ATOM     20  C   UNL     1      -0.308  10.809  19.968  0.00  0.00    +0.000 C 
BRANCH  20  21
ATOM     21  C   UNL     1      -1.367  10.741  18.892  0.00  0.00    +0.000 A 
ATOM     22  C   UNL     1      -2.501  11.565  19.010  0.00  0.00    +0.000 A 
ATOM     23  C   UNL     1      -3.469  11.597  18.004  0.00  0.00    +0.000 A 
ATOM     24  C   UNL     1      -3.310  10.799  16.880  0.00  0.00    +0.000 A 
ATOM     25  F   UNL     1      -4.234  10.835  15.911  0.00  0.00    +0.000 F 
ATOM     26  C   UNL     1      -2.201   9.974  16.741  0.00  0.00    +0.000 A 
ATOM     27  C   UNL     1      -1.221   9.955  17.738  0.00  0.00    +0.000 A 
ENDBRANCH  20  21
ENDBRANCH  18  20
ENDBRANCH  15  18
ENDBRANCH  11  15
TORSDOF 4
ENDMDL
MODEL 9
REMARK VINA RESULT:      -7.8      2.022      2.507
REMARK  Name = 
REMARK  5 active torsions:
REMARK  status: ('A' for Active; 'I' for Inactive)
REMARK    1  A    between atoms: C_1  and  C_2
REMARK    2  A    between atoms: C_11  and  S_12
REMARK    3  A    between atoms: S_12  and  N_15
REMARK    4  A    between atoms: N_15  and  C_16
REMARK    5  A    between atoms: C_16  and  C_17
REMARK                            x       y       z     vdW  Elec       q    Type
REMARK                         _______ _______ _______ _____ _____    ______ ____
ROOT
ATOM      1  C   UNL     1       1.994   2.669  21.531  0.00  0.00    +0.000 C 
ATOM      2  C   UNL     1       1.650   3.204  20.152  0.00  0.00    +0.000 C 
ATOM      3  C   UNL     1       2.697   2.722  19.111  0.00  0.00    +0.000 C 
ATOM      4  O   UNL     1       2.966   1.563  18.844  0.00  0.00    +0.000 OA
ATOM      5  N   UNL     1       3.267   3.863  18.558  0.00  0.00    +0.000 N 
ATOM      6  C   UNL     1       4.342   3.943  17.592  0.00  0.00    +0.000 C 
ATOM      7  C   UNL     1       4.322   5.288  16.852  0.00  0.00    +0.000 C 
ATOM      8  C   UNL     1       4.277   6.475  17.832  0.00  0.00    +0.000 C 
ATOM      9  C   UNL     1       3.165   6.297  18.825  0.00  0.00    +0.000 A 
ATOM     10  C   UNL     1       2.534   7.335  19.508  0.00  0.00    +0.000 A 
ATOM     11  C   UNL     1       1.498   7.053  20.431  0.00  0.00    +0.000 A 
ATOM     12  C   UNL     1       1.109   5.729  20.725  0.00  0.00    +0.000 A 
ATOM     13  C   UNL     1       1.773   4.707  20.068  0.00  0.00    +0.000 A 
ATOM     14  C   UNL     1       2.757   5.015  19.139  0.00  0.00    +0.000 A 
ENDROOT
BRANCH  11  15
ATOM     15  S   UNL     1       0.752   8.426  21.307  0.00  0.00    +0.000 S 
ATOM     16  O   UNL     1      -0.590   8.044  21.668  0.00  0.00    +0.000 OA
ATOM     17  O   UNL     1       1.726   8.871  22.291  0.00  0.00    +0.000 OA
BRANCH  15  18
ATOM     18  N   UNL     1       0.659   9.619  20.095  0.00  0.00    +0.000 NA
ATOM     19  H   UNL     1      -0.176   9.491  19.519  0.00  0.00    +0.000 HD
BRANCH  18  20
ATOM     20  C   UNL     1       0.710  10.993  20.641  0.00  0.00    +0.000 C 
BRANCH  20  21
ATOM     21  C   UNL     1      -0.614  11.512  21.154  0.00  0.00    +0.000 A 
ATOM     22  C   UNL     1      -0.848  11.504  22.540  0.00  0.00    +0.000 A 
ATOM     23  C   UNL     1      -2.022  12.045  23.069  0.00  0.00    +0.000 A 
ATOM     24  C   UNL     1      -2.968  12.589  22.212  0.00  0.00    +0.000 A 
ATOM     25  F   UNL     1      -4.091  13.116  22.719  0.00  0.00    +0.000 F 
ATOM     26  C   UNL     1      -2.762  12.606  20.838  0.00  0.00    +0.000 A 
ATOM     27  C   UNL     1      -1.579  12.082  20.308  0.00  0.00    +0.000 A 
ENDBRANCH  20  21
ENDBRANCH  18  20
ENDBRANCH  15  18
ENDBRANCH  11  15
TORSDOF 4
ENDMDL
