MODEL 1
REMARK VINA RESULT:      -6.7      0.000      0.000
REMARK  Name = 
REMARK  4 active torsions:
REMARK  status: ('A' for Active; 'I' for Inactive)
REMARK    1  A    between atoms: C_1  and  C_2
REMARK    2  A    between atoms: C_2  and  N_3
REMARK    3  A    between atoms: C_7  and  C_8
REMARK    4  A    between atoms: C_12  and  O_13
REMARK                            x       y       z     vdW  Elec       q    Type
REMARK                         _______ _______ _______ _____ _____    ______ ____
ROOT
ATOM      1  N   UNL     1       5.912   6.290  16.112  0.00  0.00    +0.000 NA
ATOM      2  C   UNL     1       7.119   6.076  16.930  0.00  0.00    +0.000 C 
ATOM      3  C   UNL     1       6.921   5.140  18.131  0.00  0.00    +0.000 C 
ATOM      4  O   UNL     1       5.844   5.532  18.985  0.00  0.00    +0.000 OA
ATOM      5  C   UNL     1       4.603   5.758  18.295  0.00  0.00    +0.000 C 
ATOM      6  C   UNL     1       4.801   6.642  17.025  0.00  0.00    +0.000 C 
ENDROOT
BRANCH   5   7
ATOM      7  C   UNL     1       3.724   4.518  18.143  0.00  0.00    +0.000 A 
ATOM      8  C   UNL     1       2.327   4.670  18.034  0.00  0.00    +0.000 A 
ATOM      9  C   UNL     1       1.468   3.563  18.013  0.00  0.00    +0.000 A 
ATOM     10  C   UNL     1       1.989   2.279  18.097  0.00  0.00    +0.000 A 
ATOM     11  C   UNL     1       3.364   2.112  18.210  0.00  0.00    +0.000 A 
ATOM     12  C   UNL     1       4.227   3.211  18.242  0.00  0.00    +0.000 A 
BRANCH  11  13
ATOM     13  O   UNL     1       3.907   0.863  18.315  0.00  0.00    +0.000 OA
ATOM     14  H   UNL     1       4.149   0.560  17.426  0.00  0.00    +0.000 HD
ENDBRANCH  11  13
ENDBRANCH   5   7
BRANCH   1  16
ATOM     15  C   UNL     1       6.771   4.675  14.428  0.00  0.00    +0.000 C 
ATOM     16  C   UNL     1       5.571   5.161  15.239  0.00  0.00    +0.000 C 
ENDBRANCH   1  16
TORSDOF 3
ENDMDL
MODEL 2
REMARK VINA RESULT:      -6.5      2.144      4.948
REMARK  Name = 
REMARK  4 active torsions:
REMARK  status: ('A' for Active; 'I' for Inactive)
REMARK    1  A    between atoms: C_1  and  C_2
REMARK    2  A    between atoms: C_2  and  N_3
REMARK    3  A    between atoms: C_7  and  C_8
REMARK    4  A    between atoms: C_12  and  O_13
REMARK                            x       y       z     vdW  Elec       q    Type
REMARK                         _______ _______ _______ _____ _____    ______ ____
ROOT
ATOM      1  N   UNL     1       2.029   5.016  18.830  0.00  0.00    +0.000 NA
ATOM      2  C   UNL     1       2.025   3.799  19.663  0.00  0.00    +0.000 C 
ATOM      3  C   UNL     1       3.413   3.198  19.925  0.00  0.00    +0.000 C 
ATOM      4  O   UNL     1       4.156   2.942  18.731  0.00  0.00    +0.000 OA
ATOM      5  C   UNL     1       4.239   4.069  17.841  0.00  0.00    +0.000 C 
ATOM      6  C   UNL     1       2.847   4.741  17.628  0.00  0.00    +0.000 C 
ENDROOT
BRANCH   5   7
ATOM      7  C   UNL     1       5.422   4.999  18.100  0.00  0.00    +0.000 A 
ATOM      8  C   UNL     1       5.806   5.923  17.107  0.00  0.00    +0.000 A 
ATOM      9  C   UNL     1       6.954   6.714  17.246  0.00  0.00    +0.000 A 
ATOM     10  C   UNL     1       7.742   6.600  18.383  0.00  0.00    +0.000 A 
ATOM     11  C   UNL     1       7.381   5.690  19.370  0.00  0.00    +0.000 A 
ATOM     12  C   UNL     1       6.243   4.890  19.235  0.00  0.00    +0.000 A 
BRANCH  11  13
ATOM     13  O   UNL     1       8.145   5.540  20.492  0.00  0.00    +0.000 OA
ATOM     14  H   UNL     1       7.901   4.704  20.919  0.00  0.00    +0.000 HD
ENDBRANCH  11  13
ENDBRANCH   5   7
BRANCH   1  16
ATOM     15  C   UNL     1       2.577   7.431  18.603  0.00  0.00    +0.000 C 
ATOM     16  C   UNL     1       2.472   6.224  19.534  0.00  0.00    +0.000 C 
ENDBRANCH   1  16
TORSDOF 3
ENDMDL
MODEL 3
REMARK VINA RESULT:      -6.4      2.282      5.020
REMARK  Name = 
REMARK  4 active torsions:
REMARK  status: ('A' for Active; 'I' for Inactive)
REMARK    1  A    between atoms: C_1  and  C_2
REMARK    2  A    between atoms: C_2  and  N_3
REMARK    3  A    between atoms: C_7  and  C_8
REMARK    4  A    between atoms: C_12  and  O_13
REMARK                            x       y       z     vdW  Elec       q    Type
REMARK                         _______ _______ _______ _____ _____    ______ ____
ROOT
ATOM      1  N   UNL     1       1.529   3.619  19.566  0.00  0.00    +0.000 NA
ATOM      2  C   UNL     1       1.874   2.187  19.624  0.00  0.00    +0.000 C 
ATOM      3  C   UNL     1       3.133   1.800  18.836  0.00  0.00    +0.000 C 
ATOM      4  O   UNL     1       3.098   2.215  17.469  0.00  0.00    +0.000 OA
ATOM      5  C   UNL     1       2.782   3.606  17.288  0.00  0.00    +0.000 C 
ATOM      6  C   UNL     1       1.551   4.035  18.145  0.00  0.00    +0.000 C 
ENDROOT
BRANCH   5   7
ATOM      7  C   UNL     1       3.989   4.540  17.298  0.00  0.00    +0.000 A 
ATOM      8  C   UNL     1       3.789   5.929  17.435  0.00  0.00    +0.000 A 
ATOM      9  C   UNL     1       4.851   6.837  17.331  0.00  0.00    +0.000 A 
ATOM     10  C   UNL     1       6.137   6.376  17.090  0.00  0.00    +0.000 A 
ATOM     11  C   UNL     1       6.352   5.009  16.947  0.00  0.00    +0.000 A 
ATOM     12  C   UNL     1       5.297   4.097  17.039  0.00  0.00    +0.000 A 
BRANCH  11  13
ATOM     13  O   UNL     1       7.602   4.525  16.691  0.00  0.00    +0.000 OA
ATOM     14  H   UNL     1       7.575   3.557  16.754  0.00  0.00    +0.000 HD
ENDBRANCH  11  13
ENDBRANCH   5   7
BRANCH   1  16
ATOM     15  C   UNL     1       1.809   5.887  20.546  0.00  0.00    +0.000 C 
ATOM     16  C   UNL     1       2.375   4.475  20.404  0.00  0.00    +0.000 C 
ENDBRANCH   1  16
TORSDOF 3
ENDMDL
MODEL 4
REMARK VINA RESULT:      -6.4      2.314      4.638
REMARK  Name = 
REMARK  4 active torsions:
REMARK  status: ('A' for Active; 'I' for Inactive)
REMARK    1  A    between atoms: C_1  and  C_2
REMARK    2  A    between atoms: C_2  and  N_3
REMARK    3  A    between atoms: C_7  and  C_8
REMARK    4  A    between atoms: C_12  and  O_13
REMARK                            x       y       z     vdW  Elec       q    Type
REMARK                         _______ _______ _______ _____ _____    ______ ____
ROOT
ATOM      1  N   UNL     1       3.080   3.679  19.861  0.00  0.00    +0.000 NA
ATOM      2  C   UNL     1       1.798   3.837  19.151  0.00  0.00    +0.000 C 
ATOM      3  C   UNL     1       1.901   4.560  17.800  0.00  0.00    +0.000 C 
ATOM      4  O   UNL     1       2.545   5.833  17.885  0.00  0.00    +0.000 OA
ATOM      5  C   UNL     1       3.819   5.800  18.552  0.00  0.00    +0.000 C 
ATOM      6  C   UNL     1       3.750   4.998  19.889  0.00  0.00    +0.000 C 
ENDROOT
BRANCH   5   7
ATOM      7  C   UNL     1       5.009   5.519  17.639  0.00  0.00    +0.000 A 
ATOM      8  C   UNL     1       4.876   5.715  16.249  0.00  0.00    +0.000 A 
ATOM      9  C   UNL     1       5.897   5.360  15.357  0.00  0.00    +0.000 A 
ATOM     10  C   UNL     1       7.074   4.802  15.836  0.00  0.00    +0.000 A 
ATOM     11  C   UNL     1       7.219   4.596  17.203  0.00  0.00    +0.000 A 
ATOM     12  C   UNL     1       6.203   4.939  18.099  0.00  0.00    +0.000 A 
BRANCH  11  13
ATOM     13  O   UNL     1       8.357   4.032  17.705  0.00  0.00    +0.000 OA
ATOM     14  H   UNL     1       8.131   3.166  18.078  0.00  0.00    +0.000 HD
ENDBRANCH  11  13
ENDBRANCH   5   7
BRANCH   1  16
ATOM     15  C   UNL     1       3.161   1.588  18.519  0.00  0.00    +0.000 C 
ATOM     16  C   UNL     1       3.947   2.631  19.311  0.00  0.00    +0.000 C 
ENDBRANCH   1  16
TORSDOF 3
ENDMDL
MODEL 5
REMARK VINA RESULT:      -6.3      1.130      1.229
REMARK  Name = 
REMARK  4 active torsions:
REMARK  status: ('A' for Active; 'I' for Inactive)
REMARK    1  A    between atoms: C_1  and  C_2
REMARK    2  A    between atoms: C_2  and  N_3
REMARK    3  A    between atoms: C_7  and  C_8
REMARK    4  A    between atoms: C_12  and  O_13
REMARK                            x       y       z     vdW  Elec       q    Type
REMARK                         _______ _______ _______ _____ _____    ______ ____
ROOT
ATOM      1  N   UNL     1       6.518   5.870  15.860  0.00  0.00    +0.000 NA
ATOM      2  C   UNL     1       7.283   6.519  16.940  0.00  0.00    +0.000 C 
ATOM      3  C   UNL     1       6.832   6.142  18.359  0.00  0.00    +0.000 C 
ATOM      4  O   UNL     1       5.437   6.351  18.586  0.00  0.00    +0.000 OA
ATOM      5  C   UNL     1       4.586   5.748  17.595  0.00  0.00    +0.000 C 
ATOM      6  C   UNL     1       5.078   6.056  16.147  0.00  0.00    +0.000 C 
ENDROOT
BRANCH   5   7
ATOM      7  C   UNL     1       4.182   4.306  17.895  0.00  0.00    +0.000 A 
ATOM      8  C   UNL     1       3.046   3.761  17.263  0.00  0.00    +0.000 A 
ATOM      9  C   UNL     1       2.564   2.487  17.592  0.00  0.00    +0.000 A 
ATOM     10  C   UNL     1       3.210   1.730  18.560  0.00  0.00    +0.000 A 
ATOM     11  C   UNL     1       4.328   2.255  19.197  0.00  0.00    +0.000 A 
ATOM     12  C   UNL     1       4.810   3.528  18.882  0.00  0.00    +0.000 A 
BRANCH  11  13
ATOM     13  O   UNL     1       4.975   1.544  20.167  0.00  0.00    +0.000 OA
ATOM     14  H   UNL     1       5.919   1.514  19.946  0.00  0.00    +0.000 HD
ENDBRANCH  11  13
ENDBRANCH   5   7
BRANCH   1  16
ATOM     15  C   UNL     1       6.086   3.847  14.480  0.00  0.00    +0.000 C 
ATOM     16  C   UNL     1       6.861   4.460  15.646  0.00  0.00    +0.000 C 
ENDBRANCH   1  16
TORSDOF 3
ENDMDL
MODEL 6
REMARK VINA RESULT:      -6.2      2.170      5.107
REMARK  Name = 
REMARK  4 active torsions:
REMARK  status: ('A' for Active; 'I' for Inactive)
REMARK    1  A    between atoms: C_1  and  C_2
REMARK    2  A    between atoms: C_2  and  N_3
REMARK    3  A    between atoms: C_7  and  C_8
REMARK    4  A    between atoms: C_12  and  O_13
REMARK                            x       y       z     vdW  Elec       q    Type
REMARK                         _______ _______ _______ _____ _____    ______ ____
ROOT
ATOM      1  N   UNL     1       1.585   3.563  19.178  0.00  0.00    +0.000 NA
ATOM      2  C   UNL     1       1.982   2.147  19.281  0.00  0.00    +0.000 C 
ATOM      3  C   UNL     1       3.406   1.844  18.793  0.00  0.00    +0.000 C 
ATOM      4  O   UNL     1       3.661   2.303  17.464  0.00  0.00    +0.000 OA
ATOM      5  C   UNL     1       3.322   3.684  17.247  0.00  0.00    +0.000 C 
ATOM      6  C   UNL     1       1.908   4.027  17.810  0.00  0.00    +0.000 C 
ENDROOT
BRANCH   5   7
ATOM      7  C   UNL     1       4.446   4.671  17.554  0.00  0.00    +0.000 A 
ATOM      8  C   UNL     1       4.754   5.681  16.620  0.00  0.00    +0.000 A 
ATOM      9  C   UNL     1       5.850   6.535  16.798  0.00  0.00    +0.000 A 
ATOM     10  C   UNL     1       6.661   6.400  17.917  0.00  0.00    +0.000 A 
ATOM     11  C   UNL     1       6.373   5.407  18.846  0.00  0.00    +0.000 A 
ATOM     12  C   UNL     1       5.288   4.544  18.671  0.00  0.00    +0.000 A 
BRANCH  11  13
ATOM     13  O   UNL     1       7.162   5.235  19.948  0.00  0.00    +0.000 OA
ATOM     14  H   UNL     1       7.678   6.044  20.083  0.00  0.00    +0.000 HD
ENDBRANCH  11  13
ENDBRANCH   5   7
BRANCH   1  16
ATOM     15  C   UNL     1       2.134   3.786  21.593  0.00  0.00    +0.000 C 
ATOM     16  C   UNL     1       2.173   4.427  20.207  0.00  0.00    +0.000 C 
ENDBRANCH   1  16
TORSDOF 3
ENDMDL
MODEL 7
REMARK VINA RESULT:      -6.1      2.017      4.834
REMARK  Name = 
REMARK  4 active torsions:
REMARK  status: ('A' for Active; 'I' for Inactive)
REMARK    1  A    between atoms: C_1  and  C_2
REMARK    2  A    between atoms: C_2  and  N_3
REMARK    3  A    between atoms: C_7  and  C_8
REMARK    4  A    between atoms: C_12  and  O_13
REMARK                            x       y       z     vdW  Elec       q    Type
REMARK                         _______ _______ _______ _____ _____    ______ ____
ROOT
ATOM      1  N   UNL     1       1.651   4.407  18.859  0.00  0.00    +0.000 NA
ATOM      2  C   UNL     1       1.651   3.275  19.804  0.00  0.00    +0.000 C 
ATOM      3  C   UNL     1       2.999   2.552  19.934  0.00  0.00    +0.000 C 
ATOM      4  O   UNL     1       3.531   2.113  18.682  0.00  0.00    +0.000 OA
ATOM      5  C   UNL     1       3.591   3.142  17.679  0.00  0.00    +0.000 C 
ATOM      6  C   UNL     1       2.254   3.941  17.591  0.00  0.00    +0.000 C 
ENDROOT
BRANCH   5   7
ATOM      7  C   UNL     1       4.883   3.955  17.678  0.00  0.00    +0.000 A 
ATOM      8  C   UNL     1       5.572   4.157  16.465  0.00  0.00    +0.000 A 
ATOM      9  C   UNL     1       6.820   4.793  16.428  0.00  0.00    +0.000 A 
ATOM     10  C   UNL     1       7.405   5.243  17.604  0.00  0.00    +0.000 A 
ATOM     11  C   UNL     1       6.741   5.047  18.809  0.00  0.00    +0.000 A 
ATOM     12  C   UNL     1       5.501   4.405  18.857  0.00  0.00    +0.000 A 
BRANCH  11  13
ATOM     13  O   UNL     1       7.298   5.461  19.986  0.00  0.00    +0.000 OA
ATOM     14  H   UNL     1       7.261   4.726  20.617  0.00  0.00    +0.000 HD
ENDBRANCH  11  13
ENDBRANCH   5   7
BRANCH   1  16
ATOM     15  C   UNL     1       2.502   6.671  18.282  0.00  0.00    +0.000 C 
ATOM     16  C   UNL     1       2.306   5.616  19.370  0.00  0.00    +0.000 C 
ENDBRANCH   1  16
TORSDOF 3
ENDMDL
MODEL 8
REMARK VINA RESULT:      -6.1      2.202      4.862
REMARK  Name = 
REMARK  4 active torsions:
REMARK  status: ('A' for Active; 'I' for Inactive)
REMARK    1  A    between atoms: C_1  and  C_2
REMARK    2  A    between atoms: C_2  and  N_3
REMARK    3  A    between atoms: C_7  and  C_8
REMARK    4  A    between atoms: C_12  and  O_13
REMARK                            x       y       z     vdW  Elec       q    Type
REMARK                         _______ _______ _______ _____ _____    ______ ____
ROOT
ATOM      1  N   UNL     1       1.934   4.947  18.948  0.00  0.00    +0.000 NA
ATOM      2  C   UNL     1       1.871   3.902  19.985  0.00  0.00    +0.000 C 
ATOM      3  C   UNL     1       3.190   3.152  20.220  0.00  0.00    +0.000 C 
ATOM      4  O   UNL     1       3.744   2.591  19.028  0.00  0.00    +0.000 OA
ATOM      5  C   UNL     1       3.867   3.528  17.944  0.00  0.00    +0.000 C 
ATOM      6  C   UNL     1       2.560   4.356  17.744  0.00  0.00    +0.000 C 
ENDROOT
BRANCH   5   7
ATOM      7  C   UNL     1       5.184   4.300  17.915  0.00  0.00    +0.000 A 
ATOM      8  C   UNL     1       5.739   4.766  19.124  0.00  0.00    +0.000 A 
ATOM      9  C   UNL     1       6.880   5.579  19.143  0.00  0.00    +0.000 A 
ATOM     10  C   UNL     1       7.493   5.942  17.951  0.00  0.00    +0.000 A 
ATOM     11  C   UNL     1       6.955   5.494  16.749  0.00  0.00    +0.000 A 
ATOM     12  C   UNL     1       5.812   4.692  16.721  0.00  0.00    +0.000 A 
BRANCH  11  13
ATOM     13  O   UNL     1       7.523   5.849  15.559  0.00  0.00    +0.000 OA
ATOM     14  H   UNL     1       8.221   6.499  15.734  0.00  0.00    +0.000 HD
ENDBRANCH  11  13
ENDBRANCH   5   7
BRANCH   1  16
ATOM     15  C   UNL     1       2.811   7.158  18.222  0.00  0.00    +0.000 C 
ATOM     16  C   UNL     1       2.613   6.176  19.375  0.00  0.00    +0.000 C 
ENDBRANCH   1  16
TORSDOF 3
ENDMDL
MODEL 9
REMARK VINA RESULT:      -6.1      1.341      1.794
REMARK  Name = 
REMARK  4 active torsions:
REMARK  status: ('A' for Active; 'I' for Inactive)
REMARK    1  A    between atoms: C_1  and  C_2
REMARK    2  A    between atoms: C_2  and  N_3
REMARK    3  A    between atoms: C_7  and  C_8
REMARK    4  A    between atoms: C_12  and  O_13
REMARK                            x       y       z     vdW  Elec       q    Type
REMARK                         _______ _______ _______ _____ _____    ______ ____
ROOT
ATOM      1  N   UNL     1       6.157   6.266  16.321  0.00  0.00    +0.000 NA
ATOM      2  C   UNL     1       7.459   5.713  16.739  0.00  0.00    +0.000 C 
ATOM      3  C   UNL     1       7.373   4.610  17.803  0.00  0.00    +0.000 C 
ATOM      4  O   UNL     1       6.638   4.998  18.965  0.00  0.00    +0.000 OA
ATOM      5  C   UNL     1       5.338   5.543  18.680  0.00  0.00    +0.000 C 
ATOM      6  C   UNL     1       5.396   6.610  17.543  0.00  0.00    +0.000 C 
ENDROOT
BRANCH   5   7
ATOM      7  C   UNL     1       4.217   4.510  18.601  0.00  0.00    +0.000 A 
ATOM      8  C   UNL     1       4.462   3.190  19.031  0.00  0.00    +0.000 A 
ATOM      9  C   UNL     1       3.508   2.177  18.869  0.00  0.00    +0.000 A 
ATOM     10  C   UNL     1       2.285   2.463  18.277  0.00  0.00    +0.000 A 
ATOM     11  C   UNL     1       2.030   3.759  17.843  0.00  0.00    +0.000 A 
ATOM     12  C   UNL     1       2.979   4.773  17.991  0.00  0.00    +0.000 A 
BRANCH  11  13
ATOM     13  O   UNL     1       0.844   4.069  17.240  0.00  0.00    +0.000 OA
ATOM     14  H   UNL     1       0.124   3.688  17.765  0.00  0.00    +0.000 HD
ENDBRANCH  11  13
ENDBRANCH   5   7
BRANCH   1  16
ATOM     15  C   UNL     1       6.283   4.716  14.380  0.00  0.00    +0.000 C 
ATOM     16  C   UNL     1       5.394   5.391  15.423  0.00  0.00    +0.000 C 
ENDBRANCH   1  16
TORSDOF 3
ENDMDL
