MODEL 1
REMARK VINA RESULT:      -7.2      0.000      0.000
REMARK  Name = 
REMARK  4 active torsions:
REMARK  status: ('A' for Active; 'I' for Inactive)
REMARK    1  A    between atoms: C_1  and  C_2
REMARK    2  A    between atoms: C_5  and  C_6
REMARK    3  A    between atoms: C_6  and  C_7
REMARK    4  A    between atoms: C_10  and  O_11
REMARK                            x       y       z     vdW  Elec       q    Type
REMARK                         _______ _______ _______ _____ _____    ______ ____
ROOT
ATOM      1  C   UNL     1       3.363   6.046  17.517  0.00  0.00    +0.000 C 
ENDROOT
BRANCH   1   6
ATOM      2  C   UNL     1       1.510   2.600  21.424  0.00  0.00    +0.000 C 
ATOM      3  C   UNL     1       0.927   3.596  20.415  0.00  0.00    +0.000 C 
ATOM      4  C   UNL     1       1.382   5.029  20.732  0.00  0.00    +0.000 C 
ATOM      5  C   UNL     1       2.224   5.724  19.715  0.00  0.00    +0.000 C 
ATOM      6  C   UNL     1       2.518   5.247  18.498  0.00  0.00    +0.000 C 
ATOM      7  C   UNL     1       2.063   3.891  18.043  0.00  0.00    +0.000 C 
ATOM      8  C   UNL     1       1.134   3.103  18.973  0.00  0.00    +0.000 C 
ENDBRANCH   1   6
BRANCH   1   9
ATOM      9  C   UNL     1       4.809   5.600  17.513  0.00  0.00    +0.000 A 
ATOM     10  C   UNL     1       5.338   4.924  16.402  0.00  0.00    +0.000 A 
ATOM     11  C   UNL     1       6.626   4.384  16.442  0.00  0.00    +0.000 A 
ATOM     12  C   UNL     1       7.391   4.532  17.594  0.00  0.00    +0.000 A 
ATOM     13  C   UNL     1       6.908   5.246  18.683  0.00  0.00    +0.000 A 
ATOM     14  C   UNL     1       5.619   5.780  18.644  0.00  0.00    +0.000 A 
BRANCH  12  15
ATOM     15  O   UNL     1       8.628   3.967  17.699  0.00  0.00    +0.000 OA
ATOM     16  H   UNL     1       8.640   3.156  17.165  0.00  0.00    +0.000 HD
ENDBRANCH  12  15
ENDBRANCH   1   9
TORSDOF 3
ENDMDL
MODEL 2
REMARK VINA RESULT:      -7.0      2.614      5.761
REMARK  Name = 
REMARK  4 active torsions:
REMARK  status: ('A' for Active; 'I' for Inactive)
REMARK    1  A    between atoms: C_1  and  C_2
REMARK    2  A    between atoms: C_5  and  C_6
REMARK    3  A    between atoms: C_6  and  C_7
REMARK    4  A    between atoms: C_10  and  O_11
REMARK                            x       y       z     vdW  Elec       q    Type
REMARK                         _______ _______ _______ _____ _____    ______ ____
ROOT
ATOM      1  C   UNL     1       3.250   3.597  17.084  0.00  0.00    +0.000 C 
ENDROOT
BRANCH   1   6
ATOM      2  C   UNL     1       7.716   6.687  18.121  0.00  0.00    +0.000 C 
ATOM      3  C   UNL     1       6.792   6.383  16.936  0.00  0.00    +0.000 C 
ATOM      4  C   UNL     1       6.892   4.907  16.523  0.00  0.00    +0.000 C 
ATOM      5  C   UNL     1       5.664   4.070  16.660  0.00  0.00    +0.000 C 
ATOM      6  C   UNL     1       4.451   4.527  17.000  0.00  0.00    +0.000 C 
ATOM      7  C   UNL     1       4.211   5.967  17.347  0.00  0.00    +0.000 C 
ATOM      8  C   UNL     1       5.380   6.943  17.183  0.00  0.00    +0.000 C 
ENDBRANCH   1   6
BRANCH   1   9
ATOM      9  C   UNL     1       2.754   3.429  18.503  0.00  0.00    +0.000 A 
ATOM     10  C   UNL     1       3.615   2.946  19.501  0.00  0.00    +0.000 A 
ATOM     11  C   UNL     1       3.133   2.654  20.779  0.00  0.00    +0.000 A 
ATOM     12  C   UNL     1       1.787   2.857  21.063  0.00  0.00    +0.000 A 
ATOM     13  C   UNL     1       0.930   3.387  20.107  0.00  0.00    +0.000 A 
ATOM     14  C   UNL     1       1.412   3.674  18.828  0.00  0.00    +0.000 A 
BRANCH  12  15
ATOM     15  O   UNL     1       1.261   2.526  22.277  0.00  0.00    +0.000 OA
ATOM     16  H   UNL     1       0.474   3.074  22.428  0.00  0.00    +0.000 HD
ENDBRANCH  12  15
ENDBRANCH   1   9
TORSDOF 3
ENDMDL
MODEL 3
REMARK VINA RESULT:      -7.0      2.460      5.698
REMARK  Name = 
REMARK  4 active torsions:
REMARK  status: ('A' for Active; 'I' for Inactive)
REMARK    1  A    between atoms: C_1  and  C_2
REMARK    2  A    between atoms: C_5  and  C_6
REMARK    3  A    between atoms: C_6  and  C_7
REMARK    4  A    between atoms: C_10  and  O_11
REMARK                            x       y       z     vdW  Elec       q    Type
REMARK                         _______ _______ _______ _____ _____    ______ ____
ROOT
ATOM      1  C   UNL     1       2.290   5.669  17.881  0.00  0.00    +0.000 C 
ENDROOT
BRANCH   1   6
ATOM      2  C   UNL     1       7.708   4.620  17.544  0.00  0.00    +0.000 C 
ATOM      3  C   UNL     1       6.576   5.070  16.614  0.00  0.00    +0.000 C 
ATOM      4  C   UNL     1       5.515   3.968  16.465  0.00  0.00    +0.000 C 
ATOM      5  C   UNL     1       4.141   4.267  16.963  0.00  0.00    +0.000 C 
ATOM      6  C   UNL     1       3.725   5.455  17.421  0.00  0.00    +0.000 C 
ATOM      7  C   UNL     1       4.650   6.631  17.538  0.00  0.00    +0.000 C 
ATOM      8  C   UNL     1       6.075   6.473  16.997  0.00  0.00    +0.000 C 
ENDBRANCH   1   6
BRANCH   1   9
ATOM      9  C   UNL     1       1.944   4.822  19.085  0.00  0.00    +0.000 A 
ATOM     10  C   UNL     1       2.458   5.147  20.350  0.00  0.00    +0.000 A 
ATOM     11  C   UNL     1       2.262   4.295  21.440  0.00  0.00    +0.000 A 
ATOM     12  C   UNL     1       1.538   3.120  21.266  0.00  0.00    +0.000 A 
ATOM     13  C   UNL     1       0.973   2.808  20.036  0.00  0.00    +0.000 A 
ATOM     14  C   UNL     1       1.174   3.657  18.946  0.00  0.00    +0.000 A 
BRANCH  12  15
ATOM     15  O   UNL     1       1.376   2.231  22.286  0.00  0.00    +0.000 OA
ATOM     16  H   UNL     1       0.459   1.912  22.271  0.00  0.00    +0.000 HD
ENDBRANCH  12  15
ENDBRANCH   1   9
TORSDOF 3
ENDMDL
MODEL 4
REMARK VINA RESULT:      -7.0      1.639      2.153
REMARK  Name = 
REMARK  4 active torsions:
REMARK  status: ('A' for Active; 'I' for Inactive)
REMARK    1  A    between atoms: C_1  and  C_2
REMARK    2  A    between atoms: C_5  and  C_6
REMARK    3  A    between atoms: C_6  and  C_7
REMARK    4  A    between atoms: C_10  and  O_11
REMARK                            x       y       z     vdW  Elec       q    Type
REMARK                         _______ _______ _______ _____ _____    ______ ____
ROOT
ATOM      1  C   UNL     1       4.677   4.184  16.379  0.00  0.00    +0.000 C 
ENDROOT
BRANCH   1   6
ATOM      2  C   UNL     1       1.867   3.139  21.024  0.00  0.00    +0.000 C 
ATOM      3  C   UNL     1       1.618   3.110  19.512  0.00  0.00    +0.000 C 
ATOM      4  C   UNL     1       1.715   4.520  18.911  0.00  0.00    +0.000 C 
ATOM      5  C   UNL     1       2.800   4.769  17.916  0.00  0.00    +0.000 C 
ATOM      6  C   UNL     1       3.620   3.836  17.415  0.00  0.00    +0.000 C 
ATOM      7  C   UNL     1       3.566   2.405  17.866  0.00  0.00    +0.000 C 
ATOM      8  C   UNL     1       2.452   2.006  18.839  0.00  0.00    +0.000 C 
ENDBRANCH   1   6
BRANCH   1   9
ATOM      9  C   UNL     1       5.784   5.039  16.957  0.00  0.00    +0.000 A 
ATOM     10  C   UNL     1       6.708   4.486  17.857  0.00  0.00    +0.000 A 
ATOM     11  C   UNL     1       7.645   5.296  18.504  0.00  0.00    +0.000 A 
ATOM     12  C   UNL     1       7.664   6.661  18.241  0.00  0.00    +0.000 A 
ATOM     13  C   UNL     1       6.795   7.219  17.312  0.00  0.00    +0.000 A 
ATOM     14  C   UNL     1       5.856   6.410  16.669  0.00  0.00    +0.000 A 
BRANCH  12  15
ATOM     15  O   UNL     1       8.518   7.497  18.897  0.00  0.00    +0.000 OA
ATOM     16  H   UNL     1       9.014   8.007  18.236  0.00  0.00    +0.000 HD
ENDBRANCH  12  15
ENDBRANCH   1   9
TORSDOF 3
ENDMDL
MODEL 5
REMARK VINA RESULT:      -6.9      2.548      5.654
REMARK  Name = 
REMARK  4 active torsions:
REMARK  status: ('A' for Active; 'I' for Inactive)
REMARK    1  A    between atoms: C_1  and  C_2
REMARK    2  A    between atoms: C_5  and  C_6
REMARK    3  A    between atoms: C_6  and  C_7
REMARK    4  A    between atoms: C_10  and  O_11
REMARK                            x       y       z     vdW  Elec       q    Type
REMARK                         _______ _______ _______ _____ _____    ______ ____
ROOT
ATOM      1  C   UNL     1       3.256   3.525  16.896  0.00  0.00    +0.000 C 
ENDROOT
BRANCH   1   6
ATOM      2  C   UNL     1       7.674   6.568  18.234  0.00  0.00    +0.000 C 
ATOM      3  C   UNL     1       6.768   6.351  17.016  0.00  0.00    +0.000 C 
ATOM      4  C   UNL     1       6.890   4.913  16.490  0.00  0.00    +0.000 C 
ATOM      5  C   UNL     1       5.670   4.056  16.543  0.00  0.00    +0.000 C 
ATOM      6  C   UNL     1       4.447   4.471  16.902  0.00  0.00    +0.000 C 
ATOM      7  C   UNL     1       4.188   5.877  17.359  0.00  0.00    +0.000 C 
ATOM      8  C   UNL     1       5.347   6.875  17.288  0.00  0.00    +0.000 C 
ENDBRANCH   1   6
BRANCH   1   9
ATOM      9  C   UNL     1       2.762   3.219  18.293  0.00  0.00    +0.000 A 
ATOM     10  C   UNL     1       1.451   3.554  18.668  0.00  0.00    +0.000 A 
ATOM     11  C   UNL     1       1.030   3.406  19.992  0.00  0.00    +0.000 A 
ATOM     12  C   UNL     1       1.919   2.912  20.940  0.00  0.00    +0.000 A 
ATOM     13  C   UNL     1       3.202   2.522  20.578  0.00  0.00    +0.000 A 
ATOM     14  C   UNL     1       3.624   2.675  19.256  0.00  0.00    +0.000 A 
BRANCH  12  15
ATOM     15  O   UNL     1       1.569   2.811  22.254  0.00  0.00    +0.000 OA
ATOM     16  H   UNL     1       0.811   2.208  22.323  0.00  0.00    +0.000 HD
ENDBRANCH  12  15
ENDBRANCH   1   9
TORSDOF 3
ENDMDL
MODEL 6
REMARK VINA RESULT:      -6.9      1.524      1.780
REMARK  Name = 
REMARK  4 active torsions:
REMARK  status: ('A' for Active; 'I' for Inactive)
REMARK    1  A    between atoms: C_1  and  C_2
REMARK    2  A    between atoms: C_5  and  C_6
REMARK    3  A    between atoms: C_6  and  C_7
REMARK    4  A    between atoms: C_10  and  O_11
REMARK                            x       y       z     vdW  Elec       q    Type
REMARK                         _______ _______ _______ _____ _____    ______ ____
ROOT
ATOM      1  C   UNL     1       4.327   4.247  16.796  0.00  0.00    +0.000 C 
ENDROOT
BRANCH   1   6
ATOM      2  C   UNL     1       1.475   2.805  21.308  0.00  0.00    +0.000 C 
ATOM      3  C   UNL     1       1.228   2.946  19.801  0.00  0.00    +0.000 C 
ATOM      4  C   UNL     1       1.374   4.409  19.355  0.00  0.00    +0.000 C 
ATOM      5  C   UNL     1       2.467   4.727  18.390  0.00  0.00    +0.000 C 
ATOM      6  C   UNL     1       3.256   3.825  17.790  0.00  0.00    +0.000 C 
ATOM      7  C   UNL     1       3.154   2.357  18.085  0.00  0.00    +0.000 C 
ATOM      8  C   UNL     1       2.025   1.894  19.012  0.00  0.00    +0.000 C 
ENDBRANCH   1   6
BRANCH   1   9
ATOM      9  C   UNL     1       5.391   5.114  17.434  0.00  0.00    +0.000 A 
ATOM     10  C   UNL     1       5.984   6.157  16.705  0.00  0.00    +0.000 A 
ATOM     11  C   UNL     1       7.062   6.871  17.233  0.00  0.00    +0.000 A 
ATOM     12  C   UNL     1       7.542   6.547  18.497  0.00  0.00    +0.000 A 
ATOM     13  C   UNL     1       6.933   5.556  19.257  0.00  0.00    +0.000 A 
ATOM     14  C   UNL     1       5.858   4.840  18.727  0.00  0.00    +0.000 A 
BRANCH  12  15
ATOM     15  O   UNL     1       8.631   7.176  19.024  0.00  0.00    +0.000 OA
ATOM     16  H   UNL     1       8.947   6.656  19.780  0.00  0.00    +0.000 HD
ENDBRANCH  12  15
ENDBRANCH   1   9
TORSDOF 3
ENDMDL
MODEL 7
REMARK VINA RESULT:      -6.8      2.559      5.690
REMARK  Name = 
REMARK  4 active torsions:
REMARK  status: ('A' for Active; 'I' for Inactive)
REMARK    1  A    between atoms: C_1  and  C_2
REMARK    2  A    between atoms: C_5  and  C_6
REMARK    3  A    between atoms: C_6  and  C_7
REMARK    4  A    between atoms: C_10  and  O_11
REMARK                            x       y       z     vdW  Elec       q    Type
REMARK                         _______ _______ _______ _____ _____    ______ ____
ROOT
ATOM      1  C   UNL     1       2.263   5.306  17.878  0.00  0.00    +0.000 C 
ENDROOT
BRANCH   1   6
ATOM      2  C   UNL     1       7.716   4.634  17.265  0.00  0.00    +0.000 C 
ATOM      3  C   UNL     1       6.526   5.109  16.423  0.00  0.00    +0.000 C 
ATOM      4  C   UNL     1       5.526   3.966  16.190  0.00  0.00    +0.000 C 
ATOM      5  C   UNL     1       4.156   4.125  16.759  0.00  0.00    +0.000 C 
ATOM      6  C   UNL     1       3.689   5.231  17.354  0.00  0.00    +0.000 C 
ATOM      7  C   UNL     1       4.548   6.443  17.568  0.00  0.00    +0.000 C 
ATOM      8  C   UNL     1       5.959   6.430  16.970  0.00  0.00    +0.000 C 
ENDBRANCH   1   6
BRANCH   1   9
ATOM      9  C   UNL     1       2.051   4.427  19.091  0.00  0.00    +0.000 A 
ATOM     10  C   UNL     1       1.260   3.271  18.997  0.00  0.00    +0.000 A 
ATOM     11  C   UNL     1       0.943   2.531  20.139  0.00  0.00    +0.000 A 
ATOM     12  C   UNL     1       1.427   2.942  21.375  0.00  0.00    +0.000 A 
ATOM     13  C   UNL     1       2.258   4.051  21.482  0.00  0.00    +0.000 A 
ATOM     14  C   UNL     1       2.571   4.793  20.341  0.00  0.00    +0.000 A 
BRANCH  12  15
ATOM     15  O   UNL     1       1.090   2.286  22.522  0.00  0.00    +0.000 OA
ATOM     16  H   UNL     1       0.654   1.453  22.280  0.00  0.00    +0.000 HD
ENDBRANCH  12  15
ENDBRANCH   1   9
TORSDOF 3
ENDMDL
MODEL 8
REMARK VINA RESULT:      -6.7      1.632      1.904
REMARK  Name = 
REMARK  4 active torsions:
REMARK  status: ('A' for Active; 'I' for Inactive)
REMARK    1  A    between atoms: C_1  and  C_2
REMARK    2  A    between atoms: C_5  and  C_6
REMARK    3  A    between atoms: C_6  and  C_7
REMARK    4  A    between atoms: C_10  and  O_11
REMARK                            x       y       z     vdW  Elec       q    Type
REMARK                         _______ _______ _______ _____ _____    ______ ____
ROOT
ATOM      1  C   UNL     1       4.352   3.552  17.235  0.00  0.00    +0.000 C 
ENDROOT
BRANCH   1   6
ATOM      2  C   UNL     1       1.262   2.575  21.715  0.00  0.00    +0.000 C 
ATOM      3  C   UNL     1       1.183   3.423  20.440  0.00  0.00    +0.000 C 
ATOM      4  C   UNL     1       2.287   4.492  20.421  0.00  0.00    +0.000 C 
ATOM      5  C   UNL     1       3.308   4.404  19.336  0.00  0.00    +0.000 C 
ATOM      6  C   UNL     1       3.276   3.544  18.310  0.00  0.00    +0.000 C 
ATOM      7  C   UNL     1       2.201   2.504  18.177  0.00  0.00    +0.000 C 
ATOM      8  C   UNL     1       1.055   2.531  19.194  0.00  0.00    +0.000 C 
ENDBRANCH   1   6
BRANCH   1   9
ATOM      9  C   UNL     1       5.247   4.768  17.331  0.00  0.00    +0.000 A 
ATOM     10  C   UNL     1       4.860   5.980  16.739  0.00  0.00    +0.000 A 
ATOM     11  C   UNL     1       5.738   7.066  16.699  0.00  0.00    +0.000 A 
ATOM     12  C   UNL     1       7.003   6.942  17.264  0.00  0.00    +0.000 A 
ATOM     13  C   UNL     1       7.384   5.770  17.904  0.00  0.00    +0.000 A 
ATOM     14  C   UNL     1       6.508   4.684  17.939  0.00  0.00    +0.000 A 
BRANCH  12  15
ATOM     15  O   UNL     1       7.913   7.955  17.192  0.00  0.00    +0.000 OA
ATOM     16  H   UNL     1       8.750   7.590  16.862  0.00  0.00    +0.000 HD
ENDBRANCH  12  15
ENDBRANCH   1   9
TORSDOF 3
ENDMDL
MODEL 9
REMARK VINA RESULT:      -6.6      2.619      5.750
REMARK  Name = 
REMARK  4 active torsions:
REMARK  status: ('A' for Active; 'I' for Inactive)
REMARK    1  A    between atoms: C_1  and  C_2
REMARK    2  A    between atoms: C_5  and  C_6
REMARK    3  A    between atoms: C_6  and  C_7
REMARK    4  A    between atoms: C_10  and  O_11
REMARK                            x       y       z     vdW  Elec       q    Type
REMARK                         _______ _______ _______ _____ _____    ______ ____
ROOT
ATOM      1  C   UNL     1       4.889   5.394  19.400  0.00  0.00    +0.000 C 
ENDROOT
BRANCH   1   6
ATOM      2  C   UNL     1       6.080   4.017  14.179  0.00  0.00    +0.000 C 
ATOM      3  C   UNL     1       6.461   5.111  15.183  0.00  0.00    +0.000 C 
ATOM      4  C   UNL     1       5.242   5.972  15.548  0.00  0.00    +0.000 C 
ATOM      5  C   UNL     1       4.785   5.949  16.968  0.00  0.00    +0.000 C 
ATOM      6  C   UNL     1       5.420   5.335  17.976  0.00  0.00    +0.000 C 
ATOM      7  C   UNL     1       6.667   4.529  17.756  0.00  0.00    +0.000 C 
ATOM      8  C   UNL     1       7.276   4.527  16.350  0.00  0.00    +0.000 C 
ENDBRANCH   1   6
BRANCH   1   9
ATOM      9  C   UNL     1       3.621   4.588  19.572  0.00  0.00    +0.000 A 
ATOM     10  C   UNL     1       3.523   3.298  19.026  0.00  0.00    +0.000 A 
ATOM     11  C   UNL     1       2.312   2.602  19.056  0.00  0.00    +0.000 A 
ATOM     12  C   UNL     1       1.199   3.194  19.642  0.00  0.00    +0.000 A 
ATOM     13  C   UNL     1       1.289   4.446  20.238  0.00  0.00    +0.000 A 
ATOM     14  C   UNL     1       2.498   5.143  20.204  0.00  0.00    +0.000 A 
BRANCH  12  15
ATOM     15  O   UNL     1      -0.017   2.577  19.637  0.00  0.00    +0.000 OA
ATOM     16  H   UNL     1      -0.650   3.153  19.178  0.00  0.00    +0.000 HD
ENDBRANCH  12  15
ENDBRANCH   1   9
TORSDOF 3
ENDMDL
