MODEL 1
REMARK VINA RESULT:      -8.1      0.000      0.000
REMARK  Name = 
REMARK  11 active torsions:
REMARK  status: ('A' for Active; 'I' for Inactive)
REMARK    1  A    between atoms: C_2  and  C_3
REMARK    2  A    between atoms: C_3  and  O_4
REMARK    3  A    between atoms: O_4  and  C_5
REMARK    4  A    between atoms: C_8  and  C_9
REMARK    5  A    between atoms: C_10  and  C_11
REMARK    6  A    between atoms: C_11  and  C_13
REMARK    7  A    between atoms: N_24  and  CA_25
REMARK    8  A    between atoms: CA_25  and  CB_26
REMARK    9  A    between atoms: CA_25  and  C_32
REMARK   10  A    between atoms: CB_26  and  CG_27
REMARK   11  A    between atoms: C_32  and  OXT_34
REMARK                            x       y       z     vdW  Elec       q    Type
REMARK                         _______ _______ _______ _____ _____    ______ ____
ROOT
ATOM      1  C   UNK A   0      -0.133  10.608  19.841  0.00  0.00    +0.000 A 
ATOM      2  C   UNK A   0       0.437   9.666  20.684  0.00  0.00    +0.000 A 
ATOM      3  C   UNK A   0       1.335   8.697  20.206  0.00  0.00    +0.000 A 
ATOM      4  C   UNK A   0       1.707   8.642  18.862  0.00  0.00    +0.000 A 
ATOM      5  C   UNK A   0       1.144   9.604  18.003  0.00  0.00    +0.000 A 
ATOM      6  C   UNK A   0       0.229  10.574  18.483  0.00  0.00    +0.000 A 
ENDROOT
BRANCH   4   7
ATOM      7  C   UNK A   0       2.668   7.620  18.354  0.00  0.00    +0.000 C 
ATOM      8  C   UNK A   0       3.693   7.793  17.482  0.00  0.00    +0.000 C 
BRANCH   8   9
ATOM      9  C   UNK A   0       4.497   6.612  17.054  0.00  0.00    +0.000 C 
ATOM     10  O   UNK A   0       5.235   6.713  16.071  0.00  0.00    +0.000 OA
BRANCH   9  11
ATOM     11  C   UNK A   0       4.403   5.325  17.777  0.00  0.00    +0.000 A 
ATOM     12  C   UNK A   0       5.504   4.941  18.545  0.00  0.00    +0.000 A 
ATOM     13  N   UNK A   0       5.457   3.590  18.689  0.00  0.00    +0.000 N 
ATOM     14  C   UNK A   0       4.143   3.217  18.665  0.00  0.00    +0.000 A 
ATOM     15  C   UNK A   0       3.566   2.040  19.163  0.00  0.00    +0.000 A 
ATOM     16  C   UNK A   0       2.194   1.894  19.017  0.00  0.00    +0.000 A 
ATOM     17  C   UNK A   0       1.462   2.847  18.311  0.00  0.00    +0.000 A 
ATOM     18  C   UNK A   0       2.073   4.007  17.777  0.00  0.00    +0.000 A 
ATOM     19  C   UNK A   0       3.442   4.253  18.008  0.00  0.00    +0.000 A 
ATOM     20  H   UNK A   0       6.234   2.991  18.932  0.00  0.00    +0.000 HD
ENDBRANCH   9  11
ENDBRANCH   8   9
ENDBRANCH   4   7
BRANCH   1  21
ATOM     21  O   UNK A   0      -1.069  11.527  20.231  0.00  0.00    +0.000 OA
BRANCH  21  22
ATOM     22  C   UNK A   0      -0.668  12.427  21.263  0.00  0.00    +0.000 C 
BRANCH  22  24
ATOM     23  O   UNK A   0      -1.002  11.411  23.445  0.00  0.00    +0.000 OA
ATOM     24  C   UNK A   0      -1.319  12.304  22.660  0.00  0.00    +0.000 C 
ATOM     25  N   HIS A   1      -2.212  13.289  22.994  0.00  0.00    +0.000 N 
ATOM     26  H   HIS A   1      -2.554  13.905  22.256  0.00  0.00    +0.000 HD
BRANCH  25  27
ATOM     27  CA  HIS A   1      -2.991  13.295  24.253  0.00  0.00    +0.000 C 
BRANCH  27  28
ATOM     28  C   HIS A   1      -4.312  12.552  23.998  0.00  0.00    +0.000 C 
ATOM     29  O   HIS A   1      -4.842  12.529  22.882  0.00  0.00    +0.000 OA
BRANCH  28  30
ATOM     30  OXT HIS A   1      -4.803  11.822  25.016  0.00  0.00    +0.000 OA
ATOM     31  HXT HIS A   1      -5.267  12.314  25.716  0.00  0.00    +0.000 HD
ENDBRANCH  28  30
ENDBRANCH  27  28
BRANCH  27  32
ATOM     32  CB  HIS A   1      -3.185  14.682  24.881  0.00  0.00    +0.000 C 
BRANCH  32  33
ATOM     33  CG  HIS A   1      -1.929  15.452  25.076  0.00  0.00    +0.000 A 
ATOM     34  CD2 HIS A   1      -1.257  15.750  26.245  0.00  0.00    +0.000 A 
ATOM     35  NE2 HIS A   1      -0.182  16.500  25.855  0.00  0.00    +0.000 N 
ATOM     36  CE1 HIS A   1      -0.255  16.662  24.503  0.00  0.00    +0.000 A 
ATOM     37  ND1 HIS A   1      -1.288  16.020  24.001  0.00  0.00    +0.000 NA
ATOM     38  HE2 HIS A   1       0.525  16.887  26.466  0.00  0.00    +0.000 HD
ENDBRANCH  32  33
ENDBRANCH  27  32
ENDBRANCH  25  27
ENDBRANCH  22  24
ENDBRANCH  21  22
ENDBRANCH   1  21
TORSDOF 11
ENDMDL
MODEL 2
REMARK VINA RESULT:      -8.0      2.492      3.927
REMARK  Name = 
REMARK  11 active torsions:
REMARK  status: ('A' for Active; 'I' for Inactive)
REMARK    1  A    between atoms: C_2  and  C_3
REMARK    2  A    between atoms: C_3  and  O_4
REMARK    3  A    between atoms: O_4  and  C_5
REMARK    4  A    between atoms: C_8  and  C_9
REMARK    5  A    between atoms: C_10  and  C_11
REMARK    6  A    between atoms: C_11  and  C_13
REMARK    7  A    between atoms: N_24  and  CA_25
REMARK    8  A    between atoms: CA_25  and  CB_26
REMARK    9  A    between atoms: CA_25  and  C_32
REMARK   10  A    between atoms: CB_26  and  CG_27
REMARK   11  A    between atoms: C_32  and  OXT_34
REMARK                            x       y       z     vdW  Elec       q    Type
REMARK                         _______ _______ _______ _____ _____    ______ ____
ROOT
ATOM      1  C   UNK A   0      -0.690  10.749  19.979  0.00  0.00    +0.000 A 
ATOM      2  C   UNK A   0      -0.183   9.871  20.926  0.00  0.00    +0.000 A 
ATOM      3  C   UNK A   0       0.820   8.941  20.604  0.00  0.00    +0.000 A 
ATOM      4  C   UNK A   0       1.365   8.863  19.322  0.00  0.00    +0.000 A 
ATOM      5  C   UNK A   0       0.865   9.760  18.360  0.00  0.00    +0.000 A 
ATOM      6  C   UNK A   0      -0.155  10.691  18.681  0.00  0.00    +0.000 A 
ENDROOT
BRANCH   4   7
ATOM      7  C   UNK A   0       2.437   7.883  18.981  0.00  0.00    +0.000 C 
ATOM      8  C   UNK A   0       2.900   7.541  17.753  0.00  0.00    +0.000 C 
BRANCH   8   9
ATOM      9  C   UNK A   0       3.942   6.481  17.633  0.00  0.00    +0.000 C 
ATOM     10  O   UNK A   0       4.783   6.564  16.733  0.00  0.00    +0.000 OA
BRANCH   9  11
ATOM     11  C   UNK A   0       3.965   5.328  18.559  0.00  0.00    +0.000 A 
ATOM     12  C   UNK A   0       5.213   4.789  18.878  0.00  0.00    +0.000 A 
ATOM     13  N   UNK A   0       5.019   3.505  19.279  0.00  0.00    +0.000 N 
ATOM     14  C   UNK A   0       3.781   3.432  19.853  0.00  0.00    +0.000 A 
ATOM     15  C   UNK A   0       3.296   2.471  20.750  0.00  0.00    +0.000 A 
ATOM     16  C   UNK A   0       1.990   2.619  21.196  0.00  0.00    +0.000 A 
ATOM     17  C   UNK A   0       1.187   3.635  20.678  0.00  0.00    +0.000 A 
ATOM     18  C   UNK A   0       1.685   4.568  19.738  0.00  0.00    +0.000 A 
ATOM     19  C   UNK A   0       3.041   4.526  19.351  0.00  0.00    +0.000 A 
ATOM     20  H   UNK A   0       5.719   2.776  19.297  0.00  0.00    +0.000 HD
ENDBRANCH   9  11
ENDBRANCH   8   9
ENDBRANCH   4   7
BRANCH   1  21
ATOM     21  O   UNK A   0      -1.717  11.623  20.210  0.00  0.00    +0.000 OA
BRANCH  21  22
ATOM     22  C   UNK A   0      -1.630  12.385  21.413  0.00  0.00    +0.000 C 
BRANCH  22  24
ATOM     23  O   UNK A   0      -2.714  14.524  21.807  0.00  0.00    +0.000 OA
ATOM     24  C   UNK A   0      -2.814  13.297  21.810  0.00  0.00    +0.000 C 
ATOM     25  N   HIS A   1      -3.995  12.660  22.091  0.00  0.00    +0.000 N 
ATOM     26  H   HIS A   1      -3.978  11.650  22.232  0.00  0.00    +0.000 HD
BRANCH  25  27
ATOM     27  CA  HIS A   1      -5.211  13.359  22.563  0.00  0.00    +0.000 C 
BRANCH  27  28
ATOM     28  C   HIS A   1      -5.625  12.736  23.906  0.00  0.00    +0.000 C 
ATOM     29  O   HIS A   1      -6.783  12.811  24.329  0.00  0.00    +0.000 OA
BRANCH  28  30
ATOM     30  OXT HIS A   1      -4.699  11.996  24.542  0.00  0.00    +0.000 OA
ATOM     31  HXT HIS A   1      -4.604  11.073  24.245  0.00  0.00    +0.000 HD
ENDBRANCH  28  30
ENDBRANCH  27  28
BRANCH  27  32
ATOM     32  CB  HIS A   1      -6.354  13.419  21.542  0.00  0.00    +0.000 C 
BRANCH  32  33
ATOM     33  CG  HIS A   1      -6.577  12.156  20.790  0.00  0.00    +0.000 A 
ATOM     34  CD2 HIS A   1      -6.134  11.795  19.534  0.00  0.00    +0.000 A 
ATOM     35  NE2 HIS A   1      -6.645  10.545  19.322  0.00  0.00    +0.000 N 
ATOM     36  CE1 HIS A   1      -7.392  10.210  20.413  0.00  0.00    +0.000 A 
ATOM     37  ND1 HIS A   1      -7.351  11.155  21.327  0.00  0.00    +0.000 NA
ATOM     38  HE2 HIS A   1      -6.512   9.981  18.493  0.00  0.00    +0.000 HD
ENDBRANCH  32  33
ENDBRANCH  27  32
ENDBRANCH  25  27
ENDBRANCH  22  24
ENDBRANCH  21  22
ENDBRANCH   1  21
TORSDOF 11
ENDMDL
MODEL 3
REMARK VINA RESULT:      -8.0      3.094      4.897
REMARK  Name = 
REMARK  11 active torsions:
REMARK  status: ('A' for Active; 'I' for Inactive)
REMARK    1  A    between atoms: C_2  and  C_3
REMARK    2  A    between atoms: C_3  and  O_4
REMARK    3  A    between atoms: O_4  and  C_5
REMARK    4  A    between atoms: C_8  and  C_9
REMARK    5  A    between atoms: C_10  and  C_11
REMARK    6  A    between atoms: C_11  and  C_13
REMARK    7  A    between atoms: N_24  and  CA_25
REMARK    8  A    between atoms: CA_25  and  CB_26
REMARK    9  A    between atoms: CA_25  and  C_32
REMARK   10  A    between atoms: CB_26  and  CG_27
REMARK   11  A    between atoms: C_32  and  OXT_34
REMARK                            x       y       z     vdW  Elec       q    Type
REMARK                         _______ _______ _______ _____ _____    ______ ____
ROOT
ATOM      1  C   UNK A   0      -0.054  10.496  20.782  0.00  0.00    +0.000 A 
ATOM      2  C   UNK A   0       0.692  10.270  19.634  0.00  0.00    +0.000 A 
ATOM      3  C   UNK A   0       1.416   9.080  19.449  0.00  0.00    +0.000 A 
ATOM      4  C   UNK A   0       1.411   8.063  20.404  0.00  0.00    +0.000 A 
ATOM      5  C   UNK A   0       0.646   8.279  21.564  0.00  0.00    +0.000 A 
ATOM      6  C   UNK A   0      -0.076   9.484  21.757  0.00  0.00    +0.000 A 
ENDROOT
BRANCH   4   7
ATOM      7  C   UNK A   0       2.173   6.794  20.205  0.00  0.00    +0.000 C 
ATOM      8  C   UNK A   0       1.705   5.522  20.241  0.00  0.00    +0.000 C 
BRANCH   8   9
ATOM      9  C   UNK A   0       2.658   4.386  20.078  0.00  0.00    +0.000 C 
ATOM     10  O   UNK A   0       2.872   3.640  21.037  0.00  0.00    +0.000 OA
BRANCH   9  11
ATOM     11  C   UNK A   0       3.361   4.162  18.797  0.00  0.00    +0.000 A 
ATOM     12  C   UNK A   0       3.359   2.862  18.286  0.00  0.00    +0.000 A 
ATOM     13  N   UNK A   0       4.424   2.745  17.450  0.00  0.00    +0.000 N 
ATOM     14  C   UNK A   0       4.662   3.976  16.906  0.00  0.00    +0.000 A 
ATOM     15  C   UNK A   0       5.356   4.285  15.728  0.00  0.00    +0.000 A 
ATOM     16  C   UNK A   0       5.462   5.625  15.385  0.00  0.00    +0.000 A 
ATOM     17  C   UNK A   0       4.974   6.606  16.247  0.00  0.00    +0.000 A 
ATOM     18  C   UNK A   0       4.316   6.272  17.455  0.00  0.00    +0.000 A 
ATOM     19  C   UNK A   0       4.081   4.920  17.781  0.00  0.00    +0.000 A 
ATOM     20  H   UNK A   0       4.858   1.880  17.158  0.00  0.00    +0.000 HD
ENDBRANCH   9  11
ENDBRANCH   8   9
ENDBRANCH   4   7
BRANCH   1  21
ATOM     21  O   UNK A   0      -0.717  11.661  21.054  0.00  0.00    +0.000 OA
BRANCH  21  22
ATOM     22  C   UNK A   0      -1.758  12.014  20.144  0.00  0.00    +0.000 C 
BRANCH  22  24
ATOM     23  O   UNK A   0      -2.359  14.293  20.735  0.00  0.00    +0.000 OA
ATOM     24  C   UNK A   0      -2.742  13.142  20.532  0.00  0.00    +0.000 C 
ATOM     25  N   HIS A   1      -4.069  12.797  20.561  0.00  0.00    +0.000 N 
ATOM     26  H   HIS A   1      -4.311  11.806  20.542  0.00  0.00    +0.000 HD
BRANCH  25  27
ATOM     27  CA  HIS A   1      -5.146  13.719  20.985  0.00  0.00    +0.000 C 
BRANCH  27  28
ATOM     28  C   HIS A   1      -5.258  13.644  22.517  0.00  0.00    +0.000 C 
ATOM     29  O   HIS A   1      -5.573  14.627  23.196  0.00  0.00    +0.000 OA
BRANCH  28  30
ATOM     30  OXT HIS A   1      -5.120  12.428  23.076  0.00  0.00    +0.000 OA
ATOM     31  HXT HIS A   1      -5.454  11.674  22.558  0.00  0.00    +0.000 HD
ENDBRANCH  28  30
ENDBRANCH  27  28
BRANCH  27  32
ATOM     32  CB  HIS A   1      -6.486  13.514  20.267  0.00  0.00    +0.000 C 
BRANCH  32  33
ATOM     33  CG  HIS A   1      -6.748  12.116  19.836  0.00  0.00    +0.000 A 
ATOM     34  CD2 HIS A   1      -6.969  11.618  18.568  0.00  0.00    +0.000 A 
ATOM     35  NE2 HIS A   1      -7.179  10.278  18.744  0.00  0.00    +0.000 N 
ATOM     36  CE1 HIS A   1      -7.117  10.019  20.081  0.00  0.00    +0.000 A 
ATOM     37  ND1 HIS A   1      -6.835  11.107  20.765  0.00  0.00    +0.000 NA
ATOM     38  HE2 HIS A   1      -7.371   9.606  18.013  0.00  0.00    +0.000 HD
ENDBRANCH  32  33
ENDBRANCH  27  32
ENDBRANCH  25  27
ENDBRANCH  22  24
ENDBRANCH  21  22
ENDBRANCH   1  21
TORSDOF 11
ENDMDL
MODEL 4
REMARK VINA RESULT:      -7.9      3.480     12.075
REMARK  Name = 
REMARK  11 active torsions:
REMARK  status: ('A' for Active; 'I' for Inactive)
REMARK    1  A    between atoms: C_2  and  C_3
REMARK    2  A    between atoms: C_3  and  O_4
REMARK    3  A    between atoms: O_4  and  C_5
REMARK    4  A    between atoms: C_8  and  C_9
REMARK    5  A    between atoms: C_10  and  C_11
REMARK    6  A    between atoms: C_11  and  C_13
REMARK    7  A    between atoms: N_24  and  CA_25
REMARK    8  A    between atoms: CA_25  and  CB_26
REMARK    9  A    between atoms: CA_25  and  C_32
REMARK   10  A    between atoms: CB_26  and  CG_27
REMARK   11  A    between atoms: C_32  and  OXT_34
REMARK                            x       y       z     vdW  Elec       q    Type
REMARK                         _______ _______ _______ _____ _____    ______ ____
ROOT
ATOM      1  C   UNK A   0       1.545   8.643  19.595  0.00  0.00    +0.000 A 
ATOM      2  C   UNK A   0       0.880   8.752  20.807  0.00  0.00    +0.000 A 
ATOM      3  C   UNK A   0      -0.089   9.746  21.029  0.00  0.00    +0.000 A 
ATOM      4  C   UNK A   0      -0.438  10.663  20.037  0.00  0.00    +0.000 A 
ATOM      5  C   UNK A   0       0.222  10.549  18.800  0.00  0.00    +0.000 A 
ATOM      6  C   UNK A   0       1.207   9.554  18.580  0.00  0.00    +0.000 A 
ENDROOT
BRANCH   4   7
ATOM      7  C   UNK A   0      -1.473  11.713  20.267  0.00  0.00    +0.000 C 
ATOM      8  C   UNK A   0      -1.706  12.427  21.396  0.00  0.00    +0.000 C 
BRANCH   8   9
ATOM      9  C   UNK A   0      -2.844  13.390  21.432  0.00  0.00    +0.000 C 
ATOM     10  O   UNK A   0      -2.621  14.572  21.706  0.00  0.00    +0.000 OA
BRANCH   9  11
ATOM     11  C   UNK A   0      -4.229  12.942  21.168  0.00  0.00    +0.000 A 
ATOM     12  C   UNK A   0      -5.135  13.008  22.229  0.00  0.00    +0.000 A 
ATOM     13  N   UNK A   0      -6.134  12.122  21.975  0.00  0.00    +0.000 N 
ATOM     14  C   UNK A   0      -6.269  12.027  20.619  0.00  0.00    +0.000 A 
ATOM     15  C   UNK A   0      -7.378  11.583  19.886  0.00  0.00    +0.000 A 
ATOM     16  C   UNK A   0      -7.267  11.582  18.502  0.00  0.00    +0.000 A 
ATOM     17  C   UNK A   0      -6.057  11.920  17.899  0.00  0.00    +0.000 A 
ATOM     18  C   UNK A   0      -4.935  12.323  18.662  0.00  0.00    +0.000 A 
ATOM     19  C   UNK A   0      -5.043  12.454  20.062  0.00  0.00    +0.000 A 
ATOM     20  H   UNK A   0      -6.768  11.730  22.658  0.00  0.00    +0.000 HD
ENDBRANCH   9  11
ENDBRANCH   8   9
ENDBRANCH   4   7
BRANCH   1  21
ATOM     21  O   UNK A   0       2.549   7.747  19.344  0.00  0.00    +0.000 OA
BRANCH  21  22
ATOM     22  C   UNK A   0       2.413   6.974  18.153  0.00  0.00    +0.000 C 
BRANCH  22  24
ATOM     23  O   UNK A   0       2.871   4.599  17.924  0.00  0.00    +0.000 OA
ATOM     24  C   UNK A   0       3.325   5.742  17.951  0.00  0.00    +0.000 C 
ATOM     25  N   HIS A   1       4.652   6.008  17.730  0.00  0.00    +0.000 N 
ATOM     26  H   HIS A   1       4.995   6.950  17.921  0.00  0.00    +0.000 HD
BRANCH  25  27
ATOM     27  CA  HIS A   1       5.686   4.958  17.595  0.00  0.00    +0.000 C 
BRANCH  27  28
ATOM     28  C   HIS A   1       6.064   4.479  19.005  0.00  0.00    +0.000 C 
ATOM     29  O   HIS A   1       6.764   5.161  19.760  0.00  0.00    +0.000 OA
BRANCH  28  30
ATOM     30  OXT HIS A   1       5.493   3.336  19.430  0.00  0.00    +0.000 OA
ATOM     31  HXT HIS A   1       4.940   3.400  20.228  0.00  0.00    +0.000 HD
ENDBRANCH  28  30
ENDBRANCH  27  28
BRANCH  27  32
ATOM     32  CB  HIS A   1       6.899   5.358  16.744  0.00  0.00    +0.000 C 
BRANCH  32  33
ATOM     33  CG  HIS A   1       6.855   4.872  15.340  0.00  0.00    +0.000 A 
ATOM     34  CD2 HIS A   1       6.135   3.827  14.797  0.00  0.00    +0.000 A 
ATOM     35  NE2 HIS A   1       6.484   3.804  13.475  0.00  0.00    +0.000 N 
ATOM     36  CE1 HIS A   1       7.408   4.785  13.271  0.00  0.00    +0.000 A 
ATOM     37  ND1 HIS A   1       7.635   5.462  14.375  0.00  0.00    +0.000 NA
ATOM     38  HE2 HIS A   1       6.136   3.156  12.780  0.00  0.00    +0.000 HD
ENDBRANCH  32  33
ENDBRANCH  27  32
ENDBRANCH  25  27
ENDBRANCH  22  24
ENDBRANCH  21  22
ENDBRANCH   1  21
TORSDOF 11
ENDMDL
MODEL 5
REMARK VINA RESULT:      -7.9      3.452      4.889
REMARK  Name = 
REMARK  11 active torsions:
REMARK  status: ('A' for Active; 'I' for Inactive)
REMARK    1  A    between atoms: C_2  and  C_3
REMARK    2  A    between atoms: C_3  and  O_4
REMARK    3  A    between atoms: O_4  and  C_5
REMARK    4  A    between atoms: C_8  and  C_9
REMARK    5  A    between atoms: C_10  and  C_11
REMARK    6  A    between atoms: C_11  and  C_13
REMARK    7  A    between atoms: N_24  and  CA_25
REMARK    8  A    between atoms: CA_25  and  CB_26
REMARK    9  A    between atoms: CA_25  and  C_32
REMARK   10  A    between atoms: CB_26  and  CG_27
REMARK   11  A    between atoms: C_32  and  OXT_34
REMARK                            x       y       z     vdW  Elec       q    Type
REMARK                         _______ _______ _______ _____ _____    ______ ____
ROOT
ATOM      1  C   UNK A   0       0.096  10.274  20.445  0.00  0.00    +0.000 A 
ATOM      2  C   UNK A   0       0.782   9.242  21.069  0.00  0.00    +0.000 A 
ATOM      3  C   UNK A   0       1.577   8.340  20.342  0.00  0.00    +0.000 A 
ATOM      4  C   UNK A   0       1.728   8.447  18.958  0.00  0.00    +0.000 A 
ATOM      5  C   UNK A   0       1.048   9.500  18.321  0.00  0.00    +0.000 A 
ATOM      6  C   UNK A   0       0.235  10.403  19.053  0.00  0.00    +0.000 A 
ENDROOT
BRANCH   4   7
ATOM      7  C   UNK A   0       2.580   7.497  18.185  0.00  0.00    +0.000 C 
ATOM      8  C   UNK A   0       3.738   7.754  17.528  0.00  0.00    +0.000 C 
BRANCH   8   9
ATOM      9  C   UNK A   0       4.401   6.663  16.757  0.00  0.00    +0.000 C 
ATOM     10  O   UNK A   0       5.058   6.950  15.753  0.00  0.00    +0.000 OA
BRANCH   9  11
ATOM     11  C   UNK A   0       4.261   5.249  17.168  0.00  0.00    +0.000 A 
ATOM     12  C   UNK A   0       5.434   4.500  17.291  0.00  0.00    +0.000 A 
ATOM     13  N   UNK A   0       5.103   3.189  17.159  0.00  0.00    +0.000 N 
ATOM     14  C   UNK A   0       3.827   3.035  17.625  0.00  0.00    +0.000 A 
ATOM     15  C   UNK A   0       3.201   1.861  18.068  0.00  0.00    +0.000 A 
ATOM     16  C   UNK A   0       1.886   1.966  18.499  0.00  0.00    +0.000 A 
ATOM     17  C   UNK A   0       1.211   3.181  18.390  0.00  0.00    +0.000 A 
ATOM     18  C   UNK A   0       1.851   4.343  17.897  0.00  0.00    +0.000 A 
ATOM     19  C   UNK A   0       3.220   4.308  17.563  0.00  0.00    +0.000 A 
ATOM     20  H   UNK A   0       5.734   2.438  16.916  0.00  0.00    +0.000 HD
ENDBRANCH   9  11
ENDBRANCH   8   9
ENDBRANCH   4   7
BRANCH   1  21
ATOM     21  O   UNK A   0      -0.752  11.135  21.087  0.00  0.00    +0.000 OA
BRANCH  21  22
ATOM     22  C   UNK A   0      -0.225  12.428  21.381  0.00  0.00    +0.000 C 
BRANCH  22  24
ATOM     23  O   UNK A   0      -1.068  13.996  19.728  0.00  0.00    +0.000 OA
ATOM     24  C   UNK A   0      -0.085  13.458  20.238  0.00  0.00    +0.000 C 
ATOM     25  N   HIS A   1       1.197  13.789  19.882  0.00  0.00    +0.000 N 
ATOM     26  H   HIS A   1       1.960  13.203  20.221  0.00  0.00    +0.000 HD
BRANCH  25  27
ATOM     27  CA  HIS A   1       1.527  14.696  18.759  0.00  0.00    +0.000 C 
BRANCH  27  28
ATOM     28  C   HIS A   1       2.761  14.129  18.039  0.00  0.00    +0.000 C 
ATOM     29  O   HIS A   1       3.879  14.640  18.161  0.00  0.00    +0.000 OA
BRANCH  28  30
ATOM     30  OXT HIS A   1       2.594  12.975  17.367  0.00  0.00    +0.000 OA
ATOM     31  HXT HIS A   1       3.402  12.470  17.167  0.00  0.00    +0.000 HD
ENDBRANCH  28  30
ENDBRANCH  27  28
BRANCH  27  32
ATOM     32  CB  HIS A   1       1.676  16.172  19.149  0.00  0.00    +0.000 C 
BRANCH  32  33
ATOM     33  CG  HIS A   1       1.010  17.125  18.222  0.00  0.00    +0.000 A 
ATOM     34  CD2 HIS A   1      -0.336  17.312  17.977  0.00  0.00    +0.000 A 
ATOM     35  NE2 HIS A   1      -0.390  18.290  17.023  0.00  0.00    +0.000 N 
ATOM     36  CE1 HIS A   1       0.890  18.630  16.701  0.00  0.00    +0.000 A 
ATOM     37  ND1 HIS A   1       1.758  17.959  17.426  0.00  0.00    +0.000 NA
ATOM     38  HE2 HIS A   1      -1.232  18.673  16.612  0.00  0.00    +0.000 HD
ENDBRANCH  32  33
ENDBRANCH  27  32
ENDBRANCH  25  27
ENDBRANCH  22  24
ENDBRANCH  21  22
ENDBRANCH   1  21
TORSDOF 11
ENDMDL
MODEL 6
REMARK VINA RESULT:      -7.8      2.886      4.322
REMARK  Name = 
REMARK  11 active torsions:
REMARK  status: ('A' for Active; 'I' for Inactive)
REMARK    1  A    between atoms: C_2  and  C_3
REMARK    2  A    between atoms: C_3  and  O_4
REMARK    3  A    between atoms: O_4  and  C_5
REMARK    4  A    between atoms: C_8  and  C_9
REMARK    5  A    between atoms: C_10  and  C_11
REMARK    6  A    between atoms: C_11  and  C_13
REMARK    7  A    between atoms: N_24  and  CA_25
REMARK    8  A    between atoms: CA_25  and  CB_26
REMARK    9  A    between atoms: CA_25  and  C_32
REMARK   10  A    between atoms: CB_26  and  CG_27
REMARK   11  A    between atoms: C_32  and  OXT_34
REMARK                            x       y       z     vdW  Elec       q    Type
REMARK                         _______ _______ _______ _____ _____    ______ ____
ROOT
ATOM      1  C   UNK A   0      -1.214  11.331  19.087  0.00  0.00    +0.000 A 
ATOM      2  C   UNK A   0      -0.113  11.027  19.874  0.00  0.00    +0.000 A 
ATOM      3  C   UNK A   0       0.793  10.015  19.513  0.00  0.00    +0.000 A 
ATOM      4  C   UNK A   0       0.638   9.276  18.339  0.00  0.00    +0.000 A 
ATOM      5  C   UNK A   0      -0.468   9.589  17.529  0.00  0.00    +0.000 A 
ATOM      6  C   UNK A   0      -1.389  10.601  17.898  0.00  0.00    +0.000 A 
ENDROOT
BRANCH   4   7
ATOM      7  C   UNK A   0       1.605   8.208  17.950  0.00  0.00    +0.000 C 
ATOM      8  C   UNK A   0       2.941   8.163  18.179  0.00  0.00    +0.000 C 
BRANCH   8   9
ATOM      9  C   UNK A   0       3.738   7.022  17.642  0.00  0.00    +0.000 C 
ATOM     10  O   UNK A   0       4.734   7.257  16.954  0.00  0.00    +0.000 OA
BRANCH   9  11
ATOM     11  C   UNK A   0       3.335   5.623  17.905  0.00  0.00    +0.000 A 
ATOM     12  C   UNK A   0       3.903   4.633  17.099  0.00  0.00    +0.000 A 
ATOM     13  N   UNK A   0       3.075   3.555  17.124  0.00  0.00    +0.000 N 
ATOM     14  C   UNK A   0       2.445   3.544  18.336  0.00  0.00    +0.000 A 
ATOM     15  C   UNK A   0       1.832   2.463  18.985  0.00  0.00    +0.000 A 
ATOM     16  C   UNK A   0       1.256   2.709  20.224  0.00  0.00    +0.000 A 
ATOM     17  C   UNK A   0       1.218   4.008  20.729  0.00  0.00    +0.000 A 
ATOM     18  C   UNK A   0       1.804   5.093  20.035  0.00  0.00    +0.000 A 
ATOM     19  C   UNK A   0       2.505   4.865  18.833  0.00  0.00    +0.000 A 
ATOM     20  H   UNK A   0       3.050   2.811  16.441  0.00  0.00    +0.000 HD
ENDBRANCH   9  11
ENDBRANCH   8   9
ENDBRANCH   4   7
BRANCH   1  21
ATOM     21  O   UNK A   0      -2.171  12.250  19.421  0.00  0.00    +0.000 OA
BRANCH  21  22
ATOM     22  C   UNK A   0      -2.341  12.495  20.817  0.00  0.00    +0.000 C 
BRANCH  22  24
ATOM     23  O   UNK A   0      -3.656  14.492  21.247  0.00  0.00    +0.000 OA
ATOM     24  C   UNK A   0      -3.594  13.264  21.295  0.00  0.00    +0.000 C 
ATOM     25  N   HIS A   1      -4.651  12.493  21.704  0.00  0.00    +0.000 N 
ATOM     26  H   HIS A   1      -4.490  11.500  21.873  0.00  0.00    +0.000 HD
BRANCH  25  27
ATOM     27  CA  HIS A   1      -5.901  13.050  22.267  0.00  0.00    +0.000 C 
BRANCH  27  28
ATOM     28  C   HIS A   1      -5.797  12.996  23.800  0.00  0.00    +0.000 C 
ATOM     29  O   HIS A   1      -6.044  11.965  24.433  0.00  0.00    +0.000 OA
BRANCH  28  30
ATOM     30  OXT HIS A   1      -5.303  14.087  24.412  0.00  0.00    +0.000 OA
ATOM     31  HXT HIS A   1      -5.160  14.870  23.852  0.00  0.00    +0.000 HD
ENDBRANCH  28  30
ENDBRANCH  27  28
BRANCH  27  32
ATOM     32  CB  HIS A   1      -7.189  12.417  21.723  0.00  0.00    +0.000 C 
BRANCH  32  33
ATOM     33  CG  HIS A   1      -7.138  12.058  20.282  0.00  0.00    +0.000 A 
ATOM     34  CD2 HIS A   1      -7.434  12.829  19.176  0.00  0.00    +0.000 A 
ATOM     35  NE2 HIS A   1      -7.244  12.000  18.104  0.00  0.00    +0.000 N 
ATOM     36  CE1 HIS A   1      -6.886  10.775  18.583  0.00  0.00    +0.000 A 
ATOM     37  ND1 HIS A   1      -6.791  10.785  19.894  0.00  0.00    +0.000 NA
ATOM     38  HE2 HIS A   1      -7.373  12.248  17.132  0.00  0.00    +0.000 HD
ENDBRANCH  32  33
ENDBRANCH  27  32
ENDBRANCH  25  27
ENDBRANCH  22  24
ENDBRANCH  21  22
ENDBRANCH   1  21
TORSDOF 11
ENDMDL
MODEL 7
REMARK VINA RESULT:      -7.8      4.646      6.149
REMARK  Name = 
REMARK  11 active torsions:
REMARK  status: ('A' for Active; 'I' for Inactive)
REMARK    1  A    between atoms: C_2  and  C_3
REMARK    2  A    between atoms: C_3  and  O_4
REMARK    3  A    between atoms: O_4  and  C_5
REMARK    4  A    between atoms: C_8  and  C_9
REMARK    5  A    between atoms: C_10  and  C_11
REMARK    6  A    between atoms: C_11  and  C_13
REMARK    7  A    between atoms: N_24  and  CA_25
REMARK    8  A    between atoms: CA_25  and  CB_26
REMARK    9  A    between atoms: CA_25  and  C_32
REMARK   10  A    between atoms: CB_26  and  CG_27
REMARK   11  A    between atoms: C_32  and  OXT_34
REMARK                            x       y       z     vdW  Elec       q    Type
REMARK                         _______ _______ _______ _____ _____    ______ ____
ROOT
ATOM      1  C   UNK A   0       1.323   9.128  19.426  0.00  0.00    +0.000 A 
ATOM      2  C   UNK A   0       1.631   7.992  20.160  0.00  0.00    +0.000 A 
ATOM      3  C   UNK A   0       2.429   6.965  19.627  0.00  0.00    +0.000 A 
ATOM      4  C   UNK A   0       2.961   7.044  18.339  0.00  0.00    +0.000 A 
ATOM      5  C   UNK A   0       2.664   8.200  17.595  0.00  0.00    +0.000 A 
ATOM      6  C   UNK A   0       1.849   9.230  18.128  0.00  0.00    +0.000 A 
ENDROOT
BRANCH   4   7
ATOM      7  C   UNK A   0       3.816   5.959  17.774  0.00  0.00    +0.000 C 
ATOM      8  C   UNK A   0       3.462   4.685  17.470  0.00  0.00    +0.000 C 
BRANCH   8   9
ATOM      9  C   UNK A   0       4.499   3.736  16.972  0.00  0.00    +0.000 C 
ATOM     10  O   UNK A   0       4.464   2.560  17.342  0.00  0.00    +0.000 OA
BRANCH   9  11
ATOM     11  C   UNK A   0       5.573   4.192  16.063  0.00  0.00    +0.000 A 
ATOM     12  C   UNK A   0       6.682   4.810  16.645  0.00  0.00    +0.000 A 
ATOM     13  N   UNK A   0       7.270   5.584  15.695  0.00  0.00    +0.000 N 
ATOM     14  C   UNK A   0       7.039   4.999  14.482  0.00  0.00    +0.000 A 
ATOM     15  C   UNK A   0       7.748   5.174  13.285  0.00  0.00    +0.000 A 
ATOM     16  C   UNK A   0       7.314   4.458  12.178  0.00  0.00    +0.000 A 
ATOM     17  C   UNK A   0       6.158   3.683  12.259  0.00  0.00    +0.000 A 
ATOM     18  C   UNK A   0       5.431   3.557  13.467  0.00  0.00    +0.000 A 
ATOM     19  C   UNK A   0       5.907   4.171  14.644  0.00  0.00    +0.000 A 
ATOM     20  H   UNK A   0       7.897   6.359  15.864  0.00  0.00    +0.000 HD
ENDBRANCH   9  11
ENDBRANCH   8   9
ENDBRANCH   4   7
BRANCH   1  21
ATOM     21  O   UNK A   0       0.491  10.124  19.861  0.00  0.00    +0.000 OA
BRANCH  21  22
ATOM     22  C   UNK A   0       0.381  11.262  19.007  0.00  0.00    +0.000 C 
BRANCH  22  24
ATOM     23  O   UNK A   0      -1.222  12.641  17.808  0.00  0.00    +0.000 OA
ATOM     24  C   UNK A   0      -0.967  11.544  18.305  0.00  0.00    +0.000 C 
ATOM     25  N   HIS A   1      -1.826  10.479  18.205  0.00  0.00    +0.000 N 
ATOM     26  H   HIS A   1      -1.635   9.649  18.767  0.00  0.00    +0.000 HD
BRANCH  25  27
ATOM     27  CA  HIS A   1      -3.189  10.577  17.638  0.00  0.00    +0.000 C 
BRANCH  27  28
ATOM     28  C   HIS A   1      -3.069  10.545  16.105  0.00  0.00    +0.000 C 
ATOM     29  O   HIS A   1      -3.343  11.528  15.410  0.00  0.00    +0.000 OA
BRANCH  28  30
ATOM     30  OXT HIS A   1      -2.530   9.438  15.563  0.00  0.00    +0.000 OA
ATOM     31  HXT HIS A   1      -2.123   8.806  16.183  0.00  0.00    +0.000 HD
ENDBRANCH  28  30
ENDBRANCH  27  28
BRANCH  27  32
ATOM     32  CB  HIS A   1      -4.018  11.759  18.157  0.00  0.00    +0.000 C 
BRANCH  32  33
ATOM     33  CG  HIS A   1      -5.389  11.401  18.605  0.00  0.00    +0.000 A 
ATOM     34  CD2 HIS A   1      -6.397  12.217  19.078  0.00  0.00    +0.000 A 
ATOM     35  NE2 HIS A   1      -7.432  11.372  19.367  0.00  0.00    +0.000 N 
ATOM     36  CE1 HIS A   1      -7.019  10.100  19.103  0.00  0.00    +0.000 A 
ATOM     37  ND1 HIS A   1      -5.796  10.088  18.619  0.00  0.00    +0.000 NA
ATOM     38  HE2 HIS A   1      -8.335  11.643  19.736  0.00  0.00    +0.000 HD
ENDBRANCH  32  33
ENDBRANCH  27  32
ENDBRANCH  25  27
ENDBRANCH  22  24
ENDBRANCH  21  22
ENDBRANCH   1  21
TORSDOF 11
ENDMDL
MODEL 8
REMARK VINA RESULT:      -7.8      3.835     11.006
REMARK  Name = 
REMARK  11 active torsions:
REMARK  status: ('A' for Active; 'I' for Inactive)
REMARK    1  A    between atoms: C_2  and  C_3
REMARK    2  A    between atoms: C_3  and  O_4
REMARK    3  A    between atoms: O_4  and  C_5
REMARK    4  A    between atoms: C_8  and  C_9
REMARK    5  A    between atoms: C_10  and  C_11
REMARK    6  A    between atoms: C_11  and  C_13
REMARK    7  A    between atoms: N_24  and  CA_25
REMARK    8  A    between atoms: CA_25  and  CB_26
REMARK    9  A    between atoms: CA_25  and  C_32
REMARK   10  A    between atoms: CB_26  and  CG_27
REMARK   11  A    between atoms: C_32  and  OXT_34
REMARK                            x       y       z     vdW  Elec       q    Type
REMARK                         _______ _______ _______ _____ _____    ______ ____
ROOT
ATOM      1  C   UNK A   0       3.893   5.672  17.176  0.00  0.00    +0.000 A 
ATOM      2  C   UNK A   0       4.325   6.989  17.106  0.00  0.00    +0.000 A 
ATOM      3  C   UNK A   0       3.581   8.038  17.673  0.00  0.00    +0.000 A 
ATOM      4  C   UNK A   0       2.380   7.806  18.345  0.00  0.00    +0.000 A 
ATOM      5  C   UNK A   0       1.945   6.472  18.433  0.00  0.00    +0.000 A 
ATOM      6  C   UNK A   0       2.688   5.414  17.851  0.00  0.00    +0.000 A 
ENDROOT
BRANCH   4   7
ATOM      7  C   UNK A   0       1.595   8.918  18.956  0.00  0.00    +0.000 C 
ATOM      8  C   UNK A   0       1.017   9.976  18.335  0.00  0.00    +0.000 C 
BRANCH   8   9
ATOM      9  C   UNK A   0       0.326  11.017  19.150  0.00  0.00    +0.000 C 
ATOM     10  O   UNK A   0       0.917  11.518  20.110  0.00  0.00    +0.000 OA
BRANCH   9  11
ATOM     11  C   UNK A   0      -1.058  11.434  18.836  0.00  0.00    +0.000 A 
ATOM     12  C   UNK A   0      -1.570  12.527  19.537  0.00  0.00    +0.000 A 
ATOM     13  N   UNK A   0      -2.926  12.437  19.511  0.00  0.00    +0.000 N 
ATOM     14  C   UNK A   0      -3.277  11.807  18.350  0.00  0.00    +0.000 A 
ATOM     15  C   UNK A   0      -4.511  11.837  17.686  0.00  0.00    +0.000 A 
ATOM     16  C   UNK A   0      -4.618  11.107  16.510  0.00  0.00    +0.000 A 
ATOM     17  C   UNK A   0      -3.557  10.309  16.086  0.00  0.00    +0.000 A 
ATOM     18  C   UNK A   0      -2.334  10.259  16.798  0.00  0.00    +0.000 A 
ATOM     19  C   UNK A   0      -2.143  11.078  17.929  0.00  0.00    +0.000 A 
ATOM     20  H   UNK A   0      -3.564  12.893  20.148  0.00  0.00    +0.000 HD
ENDBRANCH   9  11
ENDBRANCH   8   9
ENDBRANCH   4   7
BRANCH   1  21
ATOM     21  O   UNK A   0       4.532   4.619  16.580  0.00  0.00    +0.000 OA
BRANCH  21  22
ATOM     22  C   UNK A   0       5.704   4.144  17.241  0.00  0.00    +0.000 C 
BRANCH  22  24
ATOM     23  O   UNK A   0       6.324   4.649  19.536  0.00  0.00    +0.000 OA
ATOM     24  C   UNK A   0       5.669   3.939  18.773  0.00  0.00    +0.000 C 
ATOM     25  N   HIS A   1       4.811   2.971  19.229  0.00  0.00    +0.000 N 
ATOM     26  H   HIS A   1       4.419   2.314  18.554  0.00  0.00    +0.000 HD
BRANCH  25  27
ATOM     27  CA  HIS A   1       4.700   2.580  20.652  0.00  0.00    +0.000 C 
BRANCH  27  28
ATOM     28  C   HIS A   1       5.288   1.168  20.804  0.00  0.00    +0.000 C 
ATOM     29  O   HIS A   1       5.769   0.773  21.870  0.00  0.00    +0.000 OA
BRANCH  28  30
ATOM     30  OXT HIS A   1       5.141   0.336  19.756  0.00  0.00    +0.000 OA
ATOM     31  HXT HIS A   1       4.481  -0.373  19.856  0.00  0.00    +0.000 HD
ENDBRANCH  28  30
ENDBRANCH  27  28
BRANCH  27  32
ATOM     32  CB  HIS A   1       3.294   2.720  21.249  0.00  0.00    +0.000 C 
BRANCH  32  33
ATOM     33  CG  HIS A   1       2.193   2.663  20.252  0.00  0.00    +0.000 A 
ATOM     34  CD2 HIS A   1       0.970   3.303  20.260  0.00  0.00    +0.000 A 
ATOM     35  NE2 HIS A   1       0.339   2.879  19.123  0.00  0.00    +0.000 N 
ATOM     36  CE1 HIS A   1       1.162   1.989  18.497  0.00  0.00    +0.000 A 
ATOM     37  ND1 HIS A   1       2.299   1.856  19.144  0.00  0.00    +0.000 NA
ATOM     38  HE2 HIS A   1      -0.584   3.157  18.817  0.00  0.00    +0.000 HD
ENDBRANCH  32  33
ENDBRANCH  27  32
ENDBRANCH  25  27
ENDBRANCH  22  24
ENDBRANCH  21  22
ENDBRANCH   1  21
TORSDOF 11
ENDMDL
MODEL 9
REMARK VINA RESULT:      -7.8      1.873      3.121
REMARK  Name = 
REMARK  11 active torsions:
REMARK  status: ('A' for Active; 'I' for Inactive)
REMARK    1  A    between atoms: C_2  and  C_3
REMARK    2  A    between atoms: C_3  and  O_4
REMARK    3  A    between atoms: O_4  and  C_5
REMARK    4  A    between atoms: C_8  and  C_9
REMARK    5  A    between atoms: C_10  and  C_11
REMARK    6  A    between atoms: C_11  and  C_13
REMARK    7  A    between atoms: N_24  and  CA_25
REMARK    8  A    between atoms: CA_25  and  CB_26
REMARK    9  A    between atoms: CA_25  and  C_32
REMARK   10  A    between atoms: CB_26  and  CG_27
REMARK   11  A    between atoms: C_32  and  OXT_34
REMARK                            x       y       z     vdW  Elec       q    Type
REMARK                         _______ _______ _______ _____ _____    ______ ____
ROOT
ATOM      1  C   UNK A   0      -0.210  10.597  19.976  0.00  0.00    +0.000 A 
ATOM      2  C   UNK A   0       0.600   9.701  20.659  0.00  0.00    +0.000 A 
ATOM      3  C   UNK A   0       1.418   8.783  19.980  0.00  0.00    +0.000 A 
ATOM      4  C   UNK A   0       1.467   8.735  18.586  0.00  0.00    +0.000 A 
ATOM      5  C   UNK A   0       0.659   9.651  17.887  0.00  0.00    +0.000 A 
ATOM      6  C   UNK A   0      -0.176  10.569  18.572  0.00  0.00    +0.000 A 
ENDROOT
BRANCH   4   7
ATOM      7  C   UNK A   0       2.343   7.767  17.863  0.00  0.00    +0.000 C 
ATOM      8  C   UNK A   0       3.697   7.703  17.861  0.00  0.00    +0.000 C 
BRANCH   8   9
ATOM      9  C   UNK A   0       4.381   6.687  17.010  0.00  0.00    +0.000 C 
ATOM     10  O   UNK A   0       5.037   7.063  16.035  0.00  0.00    +0.000 OA
BRANCH   9  11
ATOM     11  C   UNK A   0       4.262   5.242  17.306  0.00  0.00    +0.000 A 
ATOM     12  C   UNK A   0       5.439   4.491  17.303  0.00  0.00    +0.000 A 
ATOM     13  N   UNK A   0       5.101   3.194  17.079  0.00  0.00    +0.000 N 
ATOM     14  C   UNK A   0       3.852   2.996  17.596  0.00  0.00    +0.000 A 
ATOM     15  C   UNK A   0       3.249   1.786  17.970  0.00  0.00    +0.000 A 
ATOM     16  C   UNK A   0       1.958   1.849  18.476  0.00  0.00    +0.000 A 
ATOM     17  C   UNK A   0       1.279   3.066  18.506  0.00  0.00    +0.000 A 
ATOM     18  C   UNK A   0       1.892   4.269  18.080  0.00  0.00    +0.000 A 
ATOM     19  C   UNK A   0       3.242   4.267  17.673  0.00  0.00    +0.000 A 
ATOM     20  H   UNK A   0       5.718   2.469  16.740  0.00  0.00    +0.000 HD
ENDBRANCH   9  11
ENDBRANCH   8   9
ENDBRANCH   4   7
BRANCH   1  21
ATOM     21  O   UNK A   0      -1.083  11.461  20.579  0.00  0.00    +0.000 OA
BRANCH  21  22
ATOM     22  C   UNK A   0      -0.539  12.277  21.616  0.00  0.00    +0.000 C 
BRANCH  22  24
ATOM     23  O   UNK A   0      -1.043  14.441  22.599  0.00  0.00    +0.000 OA
ATOM     24  C   UNK A   0      -1.450  13.317  22.306  0.00  0.00    +0.000 C 
ATOM     25  N   HIS A   1      -2.753  12.937  22.503  0.00  0.00    +0.000 N 
ATOM     26  H   HIS A   1      -2.992  11.952  22.390  0.00  0.00    +0.000 HD
BRANCH  25  27
ATOM     27  CA  HIS A   1      -3.749  13.767  23.217  0.00  0.00    +0.000 C 
BRANCH  27  28
ATOM     28  C   HIS A   1      -4.120  13.046  24.522  0.00  0.00    +0.000 C 
ATOM     29  O   HIS A   1      -4.624  11.918  24.523  0.00  0.00    +0.000 OA
BRANCH  28  30
ATOM     30  OXT HIS A   1      -3.756  13.646  25.670  0.00  0.00    +0.000 OA
ATOM     31  HXT HIS A   1      -2.979  14.230  25.625  0.00  0.00    +0.000 HD
ENDBRANCH  28  30
ENDBRANCH  27  28
BRANCH  27  32
ATOM     32  CB  HIS A   1      -4.969  14.170  22.377  0.00  0.00    +0.000 C 
BRANCH  32  33
ATOM     33  CG  HIS A   1      -5.306  13.221  21.284  0.00  0.00    +0.000 A 
ATOM     34  CD2 HIS A   1      -6.332  12.300  21.208  0.00  0.00    +0.000 A 
ATOM     35  NE2 HIS A   1      -6.162  11.678  20.002  0.00  0.00    +0.000 N 
ATOM     36  CE1 HIS A   1      -5.046  12.200  19.417  0.00  0.00    +0.000 A 
ATOM     37  ND1 HIS A   1      -4.521  13.151  20.158  0.00  0.00    +0.000 NA
ATOM     38  HE2 HIS A   1      -6.746  10.943  19.626  0.00  0.00    +0.000 HD
ENDBRANCH  32  33
ENDBRANCH  27  32
ENDBRANCH  25  27
ENDBRANCH  22  24
ENDBRANCH  21  22
ENDBRANCH   1  21
TORSDOF 11
ENDMDL
