MODEL 1
REMARK VINA RESULT:      -9.5      0.000      0.000
REMARK  Name = 
REMARK  7 active torsions:
REMARK  status: ('A' for Active; 'I' for Inactive)
REMARK    1  A    between atoms: C_2  and  C_4
REMARK    2  A    between atoms: C_2  and  C_27
REMARK    3  A    between atoms: C_4  and  N_5
REMARK    4  A    between atoms: N_5  and  C_6
REMARK    5  A    between atoms: C_12  and  C_13
REMARK    6  A    between atoms: C_13  and  C_14
REMARK    7  A    between atoms: C_19  and  N_20
REMARK                            x       y       z     vdW  Elec       q    Type
REMARK                         _______ _______ _______ _____ _____    ______ ____
ROOT
ATOM      1  C   UNL     1       0.120  10.072  19.130  0.00  0.00    +0.000 A 
ATOM      2  C   UNL     1      -0.503  10.214  20.399  0.00  0.00    +0.000 A 
ATOM      3  C   UNL     1      -0.162   9.451  21.509  0.00  0.00    +0.000 A 
ATOM      4  C   UNL     1       0.819   8.466  21.423  0.00  0.00    +0.000 A 
ATOM      5  C   UNL     1       1.450   8.356  20.198  0.00  0.00    +0.000 A 
ATOM      6  O   UNL     1       2.450   7.485  19.857  0.00  0.00    +0.000 OA
ATOM      7  C   UNL     1       2.693   7.761  18.531  0.00  0.00    +0.000 A 
ATOM      8  N   UNL     1       1.952   8.726  18.016  0.00  0.00    +0.000 NA
ATOM      9  C   UNL     1       1.151   9.108  19.073  0.00  0.00    +0.000 A 
ENDROOT
BRANCH   1  10
ATOM     10  N   UNL     1      -0.256  10.814  18.006  0.00  0.00    +0.000 N 
ATOM     11  H   UNL     1       0.556  11.319  17.641  0.00  0.00    +0.000 HD
BRANCH  10  12
ATOM     12  C   UNL     1      -1.509  11.556  18.077  0.00  0.00    +0.000 C 
BRANCH  12  14
ATOM     13  F   UNL     1      -2.638  10.760  16.121  0.00  0.00    +0.000 F 
ATOM     14  C   UNL     1      -2.722  10.805  17.483  0.00  0.00    +0.000 C 
ATOM     15  F   UNL     1      -2.642   9.503  17.893  0.00  0.00    +0.000 F 
BRANCH  14  16
ATOM     16  C   UNL     1      -4.089  11.416  17.906  0.00  0.00    +0.000 C 
ATOM     17  C   UNL     1      -3.942  12.225  19.211  0.00  0.00    +0.000 C 
ATOM     18  C   UNL     1      -5.264  12.840  19.649  0.00  0.00    +0.000 C 
ATOM     19  C   UNL     1      -6.345  11.774  19.738  0.00  0.00    +0.000 C 
ATOM     20  C   UNL     1      -6.449  11.001  18.430  0.00  0.00    +0.000 C 
ATOM     21  N   UNL     1      -5.168  10.401  18.057  0.00  0.00    +0.000 NA
ATOM     22  H   UNL     1      -5.280   9.914  17.164  0.00  0.00    +0.000 HD
ENDBRANCH  14  16
ENDBRANCH  12  14
ENDBRANCH  10  12
ENDBRANCH   1  10
BRANCH   7  23
ATOM     23  C   UNL     1       3.630   6.849  17.813  0.00  0.00    +0.000 C 
BRANCH  23  24
ATOM     24  C   UNL     1       3.234   5.368  17.809  0.00  0.00    +0.000 A 
ATOM     25  C   UNL     1       1.884   5.018  17.988  0.00  0.00    +0.000 A 
ATOM     26  C   UNL     1       1.449   3.690  17.955  0.00  0.00    +0.000 A 
ATOM     27  C   UNL     1       2.348   2.675  17.730  0.00  0.00    +0.000 A 
ATOM     28  C   UNL     1       3.700   2.979  17.538  0.00  0.00    +0.000 A 
ATOM     29  C   UNL     1       4.159   4.314  17.588  0.00  0.00    +0.000 A 
BRANCH  29  30
ATOM     30  N   UNL     1       5.555   4.536  17.428  0.00  0.00    +0.000 N 
ATOM     31  C   UNL     1       6.280   4.686  16.270  0.00  0.00    +0.000 A 
ATOM     32  N   UNL     1       7.568   4.673  16.520  0.00  0.00    +0.000 NA
ATOM     33  C   UNL     1       7.589   4.580  17.871  0.00  0.00    +0.000 A 
ATOM     34  N   UNL     1       6.418   4.553  18.477  0.00  0.00    +0.000 NA
ENDBRANCH  29  30
ENDBRANCH  23  24
ENDBRANCH   7  23
TORSDOF 7
ENDMDL
MODEL 2
REMARK VINA RESULT:      -9.5      0.859      1.245
REMARK  Name = 
REMARK  7 active torsions:
REMARK  status: ('A' for Active; 'I' for Inactive)
REMARK    1  A    between atoms: C_2  and  C_4
REMARK    2  A    between atoms: C_2  and  C_27
REMARK    3  A    between atoms: C_4  and  N_5
REMARK    4  A    between atoms: N_5  and  C_6
REMARK    5  A    between atoms: C_12  and  C_13
REMARK    6  A    between atoms: C_13  and  C_14
REMARK    7  A    between atoms: C_19  and  N_20
REMARK                            x       y       z     vdW  Elec       q    Type
REMARK                         _______ _______ _______ _____ _____    ______ ____
ROOT
ATOM      1  C   UNL     1       0.443  10.177  19.192  0.00  0.00    +0.000 A 
ATOM      2  C   UNL     1      -0.085  10.358  20.499  0.00  0.00    +0.000 A 
ATOM      3  C   UNL     1       0.226   9.531  21.571  0.00  0.00    +0.000 A 
ATOM      4  C   UNL     1       1.078   8.441  21.407  0.00  0.00    +0.000 A 
ATOM      5  C   UNL     1       1.620   8.290  20.144  0.00  0.00    +0.000 A 
ATOM      6  O   UNL     1       2.488   7.318  19.726  0.00  0.00    +0.000 OA
ATOM      7  C   UNL     1       2.686   7.599  18.394  0.00  0.00    +0.000 A 
ATOM      8  N   UNL     1       2.036   8.657  17.943  0.00  0.00    +0.000 NA
ATOM      9  C   UNL     1       1.347   9.102  19.054  0.00  0.00    +0.000 A 
ENDROOT
BRANCH   1  10
ATOM     10  N   UNL     1       0.093  10.988  18.107  0.00  0.00    +0.000 N 
ATOM     11  H   UNL     1       0.911  11.520  17.799  0.00  0.00    +0.000 HD
BRANCH  10  12
ATOM     12  C   UNL     1      -1.167  11.717  18.190  0.00  0.00    +0.000 C 
BRANCH  12  14
ATOM     13  F   UNL     1      -2.381  11.455  16.143  0.00  0.00    +0.000 F 
ATOM     14  C   UNL     1      -2.338  11.040  17.443  0.00  0.00    +0.000 C 
ATOM     15  F   UNL     1      -2.072   9.700  17.387  0.00  0.00    +0.000 F 
BRANCH  14  16
ATOM     16  C   UNL     1      -3.719  11.284  18.119  0.00  0.00    +0.000 C 
ATOM     17  C   UNL     1      -4.816  11.492  17.055  0.00  0.00    +0.000 C 
ATOM     18  C   UNL     1      -6.181  11.729  17.687  0.00  0.00    +0.000 C 
ATOM     19  C   UNL     1      -6.113  12.868  18.693  0.00  0.00    +0.000 C 
ATOM     20  C   UNL     1      -5.014  12.618  19.717  0.00  0.00    +0.000 C 
ATOM     21  N   UNL     1      -3.715  12.425  19.075  0.00  0.00    +0.000 NA
ATOM     22  H   UNL     1      -3.015  12.238  19.798  0.00  0.00    +0.000 HD
ENDBRANCH  14  16
ENDBRANCH  12  14
ENDBRANCH  10  12
ENDBRANCH   1  10
BRANCH   7  23
ATOM     23  C   UNL     1       3.466   6.603  17.603  0.00  0.00    +0.000 C 
BRANCH  23  24
ATOM     24  C   UNL     1       3.132   5.134  17.882  0.00  0.00    +0.000 A 
ATOM     25  C   UNL     1       1.788   4.720  17.863  0.00  0.00    +0.000 A 
ATOM     26  C   UNL     1       1.417   3.388  18.070  0.00  0.00    +0.000 A 
ATOM     27  C   UNL     1       2.377   2.430  18.285  0.00  0.00    +0.000 A 
ATOM     28  C   UNL     1       3.727   2.796  18.302  0.00  0.00    +0.000 A 
ATOM     29  C   UNL     1       4.118   4.140  18.116  0.00  0.00    +0.000 A 
BRANCH  29  30
ATOM     30  N   UNL     1       5.508   4.438  18.192  0.00  0.00    +0.000 N 
ATOM     31  C   UNL     1       6.224   4.959  19.243  0.00  0.00    +0.000 A 
ATOM     32  N   UNL     1       7.439   5.279  18.867  0.00  0.00    +0.000 NA
ATOM     33  C   UNL     1       7.449   4.870  17.576  0.00  0.00    +0.000 A 
ATOM     34  N   UNL     1       6.344   4.306  17.130  0.00  0.00    +0.000 NA
ENDBRANCH  29  30
ENDBRANCH  23  24
ENDBRANCH   7  23
TORSDOF 7
ENDMDL
MODEL 3
REMARK VINA RESULT:      -9.3      0.984      1.112
REMARK  Name = 
REMARK  7 active torsions:
REMARK  status: ('A' for Active; 'I' for Inactive)
REMARK    1  A    between atoms: C_2  and  C_4
REMARK    2  A    between atoms: C_2  and  C_27
REMARK    3  A    between atoms: C_4  and  N_5
REMARK    4  A    between atoms: N_5  and  C_6
REMARK    5  A    between atoms: C_12  and  C_13
REMARK    6  A    between atoms: C_13  and  C_14
REMARK    7  A    between atoms: C_19  and  N_20
REMARK                            x       y       z     vdW  Elec       q    Type
REMARK                         _______ _______ _______ _____ _____    ______ ____
ROOT
ATOM      1  C   UNL     1      -0.027   9.919  19.078  0.00  0.00    +0.000 A 
ATOM      2  C   UNL     1      -0.502  10.162  20.396  0.00  0.00    +0.000 A 
ATOM      3  C   UNL     1       0.029   9.550  21.525  0.00  0.00    +0.000 A 
ATOM      4  C   UNL     1       1.065   8.626  21.414  0.00  0.00    +0.000 A 
ATOM      5  C   UNL     1       1.550   8.420  20.136  0.00  0.00    +0.000 A 
ATOM      6  O   UNL     1       2.565   7.582  19.759  0.00  0.00    +0.000 OA
ATOM      7  C   UNL     1       2.624   7.724  18.392  0.00  0.00    +0.000 A 
ATOM      8  N   UNL     1       1.753   8.578  17.881  0.00  0.00    +0.000 NA
ATOM      9  C   UNL     1       1.059   9.023  18.988  0.00  0.00    +0.000 A 
ENDROOT
BRANCH   1  10
ATOM     10  N   UNL     1      -0.593  10.507  17.942  0.00  0.00    +0.000 N 
ATOM     11  H   UNL     1      -0.712  11.511  18.099  0.00  0.00    +0.000 HD
BRANCH  10  12
ATOM     12  C   UNL     1      -1.702   9.810  17.304  0.00  0.00    +0.000 C 
BRANCH  12  14
ATOM     13  F   UNL     1      -2.002  11.803  16.012  0.00  0.00    +0.000 F 
ATOM     14  C   UNL     1      -2.673  10.735  16.534  0.00  0.00    +0.000 C 
ATOM     15  F   UNL     1      -3.138  10.037  15.455  0.00  0.00    +0.000 F 
BRANCH  14  16
ATOM     16  C   UNL     1      -3.864  11.233  17.404  0.00  0.00    +0.000 C 
ATOM     17  C   UNL     1      -4.693  10.042  17.923  0.00  0.00    +0.000 C 
ATOM     18  C   UNL     1      -5.865  10.497  18.782  0.00  0.00    +0.000 C 
ATOM     19  C   UNL     1      -6.708  11.520  18.034  0.00  0.00    +0.000 C 
ATOM     20  C   UNL     1      -5.845  12.672  17.539  0.00  0.00    +0.000 C 
ATOM     21  N   UNL     1      -4.749  12.198  16.695  0.00  0.00    +0.000 NA
ATOM     22  H   UNL     1      -4.184  13.001  16.405  0.00  0.00    +0.000 HD
ENDBRANCH  14  16
ENDBRANCH  12  14
ENDBRANCH  10  12
ENDBRANCH   1  10
BRANCH   7  23
ATOM     23  C   UNL     1       3.534   6.800  17.656  0.00  0.00    +0.000 C 
BRANCH  23  24
ATOM     24  C   UNL     1       3.190   5.310  17.767  0.00  0.00    +0.000 A 
ATOM     25  C   UNL     1       1.855   4.930  17.997  0.00  0.00    +0.000 A 
ATOM     26  C   UNL     1       1.467   3.589  18.069  0.00  0.00    +0.000 A 
ATOM     27  C   UNL     1       2.396   2.591  17.899  0.00  0.00    +0.000 A 
ATOM     28  C   UNL     1       3.732   2.925  17.658  0.00  0.00    +0.000 A 
ATOM     29  C   UNL     1       4.146   4.274  17.603  0.00  0.00    +0.000 A 
BRANCH  29  30
ATOM     30  N   UNL     1       5.531   4.531  17.399  0.00  0.00    +0.000 N 
ATOM     31  C   UNL     1       6.216   4.695  16.219  0.00  0.00    +0.000 A 
ATOM     32  N   UNL     1       7.511   4.714  16.429  0.00  0.00    +0.000 NA
ATOM     33  C   UNL     1       7.576   4.626  17.779  0.00  0.00    +0.000 A 
ATOM     34  N   UNL     1       6.425   4.572  18.421  0.00  0.00    +0.000 NA
ENDBRANCH  29  30
ENDBRANCH  23  24
ENDBRANCH   7  23
TORSDOF 7
ENDMDL
MODEL 4
REMARK VINA RESULT:      -9.2      3.063      4.343
REMARK  Name = 
REMARK  7 active torsions:
REMARK  status: ('A' for Active; 'I' for Inactive)
REMARK    1  A    between atoms: C_2  and  C_4
REMARK    2  A    between atoms: C_2  and  C_27
REMARK    3  A    between atoms: C_4  and  N_5
REMARK    4  A    between atoms: N_5  and  C_6
REMARK    5  A    between atoms: C_12  and  C_13
REMARK    6  A    between atoms: C_13  and  C_14
REMARK    7  A    between atoms: C_19  and  N_20
REMARK                            x       y       z     vdW  Elec       q    Type
REMARK                         _______ _______ _______ _____ _____    ______ ____
ROOT
ATOM      1  C   UNL     1       0.557  10.244  19.233  0.00  0.00    +0.000 A 
ATOM      2  C   UNL     1      -0.152  10.281  20.463  0.00  0.00    +0.000 A 
ATOM      3  C   UNL     1      -0.019   9.315  21.453  0.00  0.00    +0.000 A 
ATOM      4  C   UNL     1       0.824   8.220  21.272  0.00  0.00    +0.000 A 
ATOM      5  C   UNL     1       1.541   8.207  20.089  0.00  0.00    +0.000 A 
ATOM      6  O   UNL     1       2.441   7.261  19.677  0.00  0.00    +0.000 OA
ATOM      7  C   UNL     1       2.837   7.698  18.434  0.00  0.00    +0.000 A 
ATOM      8  N   UNL     1       2.282   8.830  18.036  0.00  0.00    +0.000 NA
ATOM      9  C   UNL     1       1.448   9.159  19.087  0.00  0.00    +0.000 A 
ENDROOT
BRANCH   1  10
ATOM     10  N   UNL     1       0.387  11.198  18.224  0.00  0.00    +0.000 N 
ATOM     11  H   UNL     1       0.785  10.847  17.349  0.00  0.00    +0.000 HD
BRANCH  10  12
ATOM     12  C   UNL     1       0.667  12.589  18.557  0.00  0.00    +0.000 C 
BRANCH  12  14
ATOM     13  F   UNL     1       2.402  12.466  20.203  0.00  0.00    +0.000 F 
ATOM     14  C   UNL     1       2.143  12.867  18.924  0.00  0.00    +0.000 C 
ATOM     15  F   UNL     1       2.921  12.070  18.130  0.00  0.00    +0.000 F 
BRANCH  14  16
ATOM     16  C   UNL     1       2.549  14.358  18.746  0.00  0.00    +0.000 C 
ATOM     17  C   UNL     1       1.313  15.274  18.846  0.00  0.00    +0.000 C 
ATOM     18  C   UNL     1       1.679  16.742  18.680  0.00  0.00    +0.000 C 
ATOM     19  C   UNL     1       2.466  16.954  17.395  0.00  0.00    +0.000 C 
ATOM     20  C   UNL     1       3.672  16.026  17.343  0.00  0.00    +0.000 C 
ATOM     21  N   UNL     1       3.278  14.625  17.475  0.00  0.00    +0.000 NA
ATOM     22  H   UNL     1       4.119  14.042  17.457  0.00  0.00    +0.000 HD
ENDBRANCH  14  16
ENDBRANCH  12  14
ENDBRANCH  10  12
ENDBRANCH   1  10
BRANCH   7  23
ATOM     23  C   UNL     1       3.702   6.779  17.639  0.00  0.00    +0.000 C 
BRANCH  23  24
ATOM     24  C   UNL     1       3.328   5.294  17.714  0.00  0.00    +0.000 A 
ATOM     25  C   UNL     1       1.982   4.934  17.899  0.00  0.00    +0.000 A 
ATOM     26  C   UNL     1       1.567   3.599  17.936  0.00  0.00    +0.000 A 
ATOM     27  C   UNL     1       2.483   2.588  17.775  0.00  0.00    +0.000 A 
ATOM     28  C   UNL     1       3.832   2.902  17.579  0.00  0.00    +0.000 A 
ATOM     29  C   UNL     1       4.271   4.244  17.560  0.00  0.00    +0.000 A 
BRANCH  29  30
ATOM     30  N   UNL     1       5.665   4.479  17.401  0.00  0.00    +0.000 N 
ATOM     31  C   UNL     1       6.403   4.556  16.245  0.00  0.00    +0.000 A 
ATOM     32  N   UNL     1       7.688   4.583  16.511  0.00  0.00    +0.000 NA
ATOM     33  C   UNL     1       7.692   4.591  17.865  0.00  0.00    +0.000 A 
ATOM     34  N   UNL     1       6.513   4.588  18.457  0.00  0.00    +0.000 NA
ENDBRANCH  29  30
ENDBRANCH  23  24
ENDBRANCH   7  23
TORSDOF 7
ENDMDL
MODEL 5
REMARK VINA RESULT:      -9.0      4.269      6.821
REMARK  Name = 
REMARK  7 active torsions:
REMARK  status: ('A' for Active; 'I' for Inactive)
REMARK    1  A    between atoms: C_2  and  C_4
REMARK    2  A    between atoms: C_2  and  C_27
REMARK    3  A    between atoms: C_4  and  N_5
REMARK    4  A    between atoms: N_5  and  C_6
REMARK    5  A    between atoms: C_12  and  C_13
REMARK    6  A    between atoms: C_13  and  C_14
REMARK    7  A    between atoms: C_19  and  N_20
REMARK                            x       y       z     vdW  Elec       q    Type
REMARK                         _______ _______ _______ _____ _____    ______ ____
ROOT
ATOM      1  C   UNL     1       1.693   7.394  20.269  0.00  0.00    +0.000 A 
ATOM      2  C   UNL     1       0.852   8.511  20.523  0.00  0.00    +0.000 A 
ATOM      3  C   UNL     1       0.761   9.609  19.676  0.00  0.00    +0.000 A 
ATOM      4  C   UNL     1       1.527   9.679  18.515  0.00  0.00    +0.000 A 
ATOM      5  C   UNL     1       2.315   8.574  18.251  0.00  0.00    +0.000 A 
ATOM      6  O   UNL     1       3.144   8.386  17.178  0.00  0.00    +0.000 OA
ATOM      7  C   UNL     1       3.713   7.154  17.409  0.00  0.00    +0.000 A 
ATOM      8  N   UNL     1       3.310   6.551  18.514  0.00  0.00    +0.000 NA
ATOM      9  C   UNL     1       2.421   7.454  19.061  0.00  0.00    +0.000 A 
ENDROOT
BRANCH   1  10
ATOM     10  N   UNL     1       1.811   6.311  21.146  0.00  0.00    +0.000 N 
ATOM     11  H   UNL     1       2.800   6.128  21.333  0.00  0.00    +0.000 HD
BRANCH  10  12
ATOM     12  C   UNL     1       0.966   5.149  20.900  0.00  0.00    +0.000 C 
BRANCH  12  14
ATOM     13  F   UNL     1       2.702   3.923  22.003  0.00  0.00    +0.000 F 
ATOM     14  C   UNL     1       1.679   3.793  21.109  0.00  0.00    +0.000 C 
ATOM     15  F   UNL     1       0.785   2.945  21.702  0.00  0.00    +0.000 F 
BRANCH  14  16
ATOM     16  C   UNL     1       2.211   3.170  19.786  0.00  0.00    +0.000 C 
ATOM     17  C   UNL     1       3.729   2.914  19.878  0.00  0.00    +0.000 C 
ATOM     18  C   UNL     1       4.279   2.299  18.598  0.00  0.00    +0.000 C 
ATOM     19  C   UNL     1       3.897   3.145  17.393  0.00  0.00    +0.000 C 
ATOM     20  C   UNL     1       2.392   3.373  17.349  0.00  0.00    +0.000 C 
ATOM     21  N   UNL     1       1.906   3.991  18.582  0.00  0.00    +0.000 NA
ATOM     22  H   UNL     1       0.891   4.103  18.516  0.00  0.00    +0.000 HD
ENDBRANCH  14  16
ENDBRANCH  12  14
ENDBRANCH  10  12
ENDBRANCH   1  10
BRANCH   7  23
ATOM     23  C   UNL     1       4.808   6.733  16.487  0.00  0.00    +0.000 C 
BRANCH  23  24
ATOM     24  C   UNL     1       5.993   6.025  17.154  0.00  0.00    +0.000 A 
ATOM     25  C   UNL     1       6.232   6.230  18.524  0.00  0.00    +0.000 A 
ATOM     26  C   UNL     1       7.271   5.585  19.202  0.00  0.00    +0.000 A 
ATOM     27  C   UNL     1       8.089   4.706  18.535  0.00  0.00    +0.000 A 
ATOM     28  C   UNL     1       7.880   4.465  17.173  0.00  0.00    +0.000 A 
ATOM     29  C   UNL     1       6.849   5.124  16.468  0.00  0.00    +0.000 A 
BRANCH  29  30
ATOM     30  N   UNL     1       6.731   4.859  15.075  0.00  0.00    +0.000 N 
ATOM     31  C   UNL     1       5.886   3.989  14.429  0.00  0.00    +0.000 A 
ATOM     32  N   UNL     1       6.211   3.877  13.162  0.00  0.00    +0.000 NA
ATOM     33  C   UNL     1       7.231   4.760  13.056  0.00  0.00    +0.000 A 
ATOM     34  N   UNL     1       7.552   5.422  14.151  0.00  0.00    +0.000 NA
ENDBRANCH  29  30
ENDBRANCH  23  24
ENDBRANCH   7  23
TORSDOF 7
ENDMDL
MODEL 6
REMARK VINA RESULT:      -9.0      1.445      2.779
REMARK  Name = 
REMARK  7 active torsions:
REMARK  status: ('A' for Active; 'I' for Inactive)
REMARK    1  A    between atoms: C_2  and  C_4
REMARK    2  A    between atoms: C_2  and  C_27
REMARK    3  A    between atoms: C_4  and  N_5
REMARK    4  A    between atoms: N_5  and  C_6
REMARK    5  A    between atoms: C_12  and  C_13
REMARK    6  A    between atoms: C_13  and  C_14
REMARK    7  A    between atoms: C_19  and  N_20
REMARK                            x       y       z     vdW  Elec       q    Type
REMARK                         _______ _______ _______ _____ _____    ______ ____
ROOT
ATOM      1  C   UNL     1       0.690  10.120  19.203  0.00  0.00    +0.000 A 
ATOM      2  C   UNL     1       0.230  10.224  20.544  0.00  0.00    +0.000 A 
ATOM      3  C   UNL     1       0.551   9.306  21.536  0.00  0.00    +0.000 A 
ATOM      4  C   UNL     1       1.343   8.196  21.252  0.00  0.00    +0.000 A 
ATOM      5  C   UNL     1       1.820   8.118  19.956  0.00  0.00    +0.000 A 
ATOM      6  O   UNL     1       2.622   7.144  19.426  0.00  0.00    +0.000 OA
ATOM      7  C   UNL     1       2.773   7.516  18.110  0.00  0.00    +0.000 A 
ATOM      8  N   UNL     1       2.152   8.632  17.771  0.00  0.00    +0.000 NA
ATOM      9  C   UNL     1       1.536   9.021  18.943  0.00  0.00    +0.000 A 
ENDROOT
BRANCH   1  10
ATOM     10  N   UNL     1       0.329  11.025  18.199  0.00  0.00    +0.000 N 
ATOM     11  H   UNL     1       1.135  11.607  17.957  0.00  0.00    +0.000 HD
BRANCH  10  12
ATOM     12  C   UNL     1      -0.952  11.707  18.335  0.00  0.00    +0.000 C 
BRANCH  12  14
ATOM     13  F   UNL     1      -2.144  11.505  16.268  0.00  0.00    +0.000 F 
ATOM     14  C   UNL     1      -2.108  11.042  17.551  0.00  0.00    +0.000 C 
ATOM     15  F   UNL     1      -1.821   9.709  17.447  0.00  0.00    +0.000 F 
BRANCH  14  16
ATOM     16  C   UNL     1      -3.498  11.241  18.223  0.00  0.00    +0.000 C 
ATOM     17  C   UNL     1      -4.614  11.279  17.160  0.00  0.00    +0.000 C 
ATOM     18  C   UNL     1      -5.988  11.468  17.786  0.00  0.00    +0.000 C 
ATOM     19  C   UNL     1      -5.998  12.689  18.694  0.00  0.00    +0.000 C 
ATOM     20  C   UNL     1      -4.877  12.607  19.720  0.00  0.00    +0.000 C 
ATOM     21  N   UNL     1      -3.571  12.455  19.080  0.00  0.00    +0.000 NA
ATOM     22  H   UNL     1      -2.854  12.381  19.807  0.00  0.00    +0.000 HD
ENDBRANCH  14  16
ENDBRANCH  12  14
ENDBRANCH  10  12
ENDBRANCH   1  10
BRANCH   7  23
ATOM     23  C   UNL     1       3.469   6.550  17.211  0.00  0.00    +0.000 C 
BRANCH  23  24
ATOM     24  C   UNL     1       4.916   6.219  17.596  0.00  0.00    +0.000 A 
ATOM     25  C   UNL     1       5.929   7.158  17.331  0.00  0.00    +0.000 A 
ATOM     26  C   UNL     1       7.261   6.936  17.692  0.00  0.00    +0.000 A 
ATOM     27  C   UNL     1       7.616   5.778  18.341  0.00  0.00    +0.000 A 
ATOM     28  C   UNL     1       6.639   4.822  18.634  0.00  0.00    +0.000 A 
ATOM     29  C   UNL     1       5.292   5.020  18.257  0.00  0.00    +0.000 A 
BRANCH  29  30
ATOM     30  N   UNL     1       4.366   3.980  18.550  0.00  0.00    +0.000 N 
ATOM     31  C   UNL     1       3.716   3.707  19.730  0.00  0.00    +0.000 A 
ATOM     32  N   UNL     1       3.099   2.551  19.667  0.00  0.00    +0.000 NA
ATOM     33  C   UNL     1       3.343   2.173  18.390  0.00  0.00    +0.000 A 
ATOM     34  N   UNL     1       4.046   3.012  17.653  0.00  0.00    +0.000 NA
ENDBRANCH  29  30
ENDBRANCH  23  24
ENDBRANCH   7  23
TORSDOF 7
ENDMDL
MODEL 7
REMARK VINA RESULT:      -9.0      1.229      1.712
REMARK  Name = 
REMARK  7 active torsions:
REMARK  status: ('A' for Active; 'I' for Inactive)
REMARK    1  A    between atoms: C_2  and  C_4
REMARK    2  A    between atoms: C_2  and  C_27
REMARK    3  A    between atoms: C_4  and  N_5
REMARK    4  A    between atoms: N_5  and  C_6
REMARK    5  A    between atoms: C_12  and  C_13
REMARK    6  A    between atoms: C_13  and  C_14
REMARK    7  A    between atoms: C_19  and  N_20
REMARK                            x       y       z     vdW  Elec       q    Type
REMARK                         _______ _______ _______ _____ _____    ______ ____
ROOT
ATOM      1  C   UNL     1       0.250   9.984  19.343  0.00  0.00    +0.000 A 
ATOM      2  C   UNL     1      -0.189  10.173  20.681  0.00  0.00    +0.000 A 
ATOM      3  C   UNL     1       0.276   9.421  21.753  0.00  0.00    +0.000 A 
ATOM      4  C   UNL     1       1.206   8.402  21.558  0.00  0.00    +0.000 A 
ATOM      5  C   UNL     1       1.659   8.245  20.261  0.00  0.00    +0.000 A 
ATOM      6  O   UNL     1       2.575   7.334  19.809  0.00  0.00    +0.000 OA
ATOM      7  C   UNL     1       2.644   7.575  18.456  0.00  0.00    +0.000 A 
ATOM      8  N   UNL     1       1.869   8.555  18.023  0.00  0.00    +0.000 NA
ATOM      9  C   UNL     1       1.232   8.985  19.170  0.00  0.00    +0.000 A 
ENDROOT
BRANCH   1  10
ATOM     10  N   UNL     1      -0.253  10.716  18.263  0.00  0.00    +0.000 N 
ATOM     11  H   UNL     1      -0.314  11.705  18.518  0.00  0.00    +0.000 HD
BRANCH  10  12
ATOM     12  C   UNL     1      -1.389  10.157  17.540  0.00  0.00    +0.000 C 
BRANCH  12  14
ATOM     13  F   UNL     1      -2.801  11.867  16.638  0.00  0.00    +0.000 F 
ATOM     14  C   UNL     1      -2.690  10.980  17.670  0.00  0.00    +0.000 C 
ATOM     15  F   UNL     1      -3.741  10.118  17.521  0.00  0.00    +0.000 F 
BRANCH  14  16
ATOM     16  C   UNL     1      -2.805  11.734  19.027  0.00  0.00    +0.000 C 
ATOM     17  C   UNL     1      -4.272  12.111  19.317  0.00  0.00    +0.000 C 
ATOM     18  C   UNL     1      -4.418  12.847  20.641  0.00  0.00    +0.000 C 
ATOM     19  C   UNL     1      -3.482  14.045  20.692  0.00  0.00    +0.000 C 
ATOM     20  C   UNL     1      -2.050  13.624  20.395  0.00  0.00    +0.000 C 
ATOM     21  N   UNL     1      -1.945  12.947  19.103  0.00  0.00    +0.000 NA
ATOM     22  H   UNL     1      -0.973  12.663  18.957  0.00  0.00    +0.000 HD
ENDBRANCH  14  16
ENDBRANCH  12  14
ENDBRANCH  10  12
ENDBRANCH   1  10
BRANCH   7  23
ATOM     23  C   UNL     1       3.445   6.618  17.639  0.00  0.00    +0.000 C 
BRANCH  23  24
ATOM     24  C   UNL     1       3.141   5.135  17.878  0.00  0.00    +0.000 A 
ATOM     25  C   UNL     1       1.809   4.687  17.806  0.00  0.00    +0.000 A 
ATOM     26  C   UNL     1       1.467   3.342  17.974  0.00  0.00    +0.000 A 
ATOM     27  C   UNL     1       2.446   2.404  18.203  0.00  0.00    +0.000 A 
ATOM     28  C   UNL     1       3.784   2.805  18.271  0.00  0.00    +0.000 A 
ATOM     29  C   UNL     1       4.145   4.162  18.125  0.00  0.00    +0.000 A 
BRANCH  29  30
ATOM     30  N   UNL     1       5.523   4.495  18.253  0.00  0.00    +0.000 N 
ATOM     31  C   UNL     1       6.177   5.076  19.313  0.00  0.00    +0.000 A 
ATOM     32  N   UNL     1       7.402   5.407  18.981  0.00  0.00    +0.000 NA
ATOM     33  C   UNL     1       7.482   4.944  17.711  0.00  0.00    +0.000 A 
ATOM     34  N   UNL     1       6.411   4.336  17.238  0.00  0.00    +0.000 NA
ENDBRANCH  29  30
ENDBRANCH  23  24
ENDBRANCH   7  23
TORSDOF 7
ENDMDL
MODEL 8
REMARK VINA RESULT:      -8.9      2.467      3.920
REMARK  Name = 
REMARK  7 active torsions:
REMARK  status: ('A' for Active; 'I' for Inactive)
REMARK    1  A    between atoms: C_2  and  C_4
REMARK    2  A    between atoms: C_2  and  C_27
REMARK    3  A    between atoms: C_4  and  N_5
REMARK    4  A    between atoms: N_5  and  C_6
REMARK    5  A    between atoms: C_12  and  C_13
REMARK    6  A    between atoms: C_13  and  C_14
REMARK    7  A    between atoms: C_19  and  N_20
REMARK                            x       y       z     vdW  Elec       q    Type
REMARK                         _______ _______ _______ _____ _____    ______ ____
ROOT
ATOM      1  C   UNL     1       0.527  10.088  19.299  0.00  0.00    +0.000 A 
ATOM      2  C   UNL     1      -0.088  10.141  20.579  0.00  0.00    +0.000 A 
ATOM      3  C   UNL     1       0.153   9.212  21.584  0.00  0.00    +0.000 A 
ATOM      4  C   UNL     1       1.016   8.139  21.370  0.00  0.00    +0.000 A 
ATOM      5  C   UNL     1       1.642   8.111  20.137  0.00  0.00    +0.000 A 
ATOM      6  O   UNL     1       2.538   7.180  19.685  0.00  0.00    +0.000 OA
ATOM      7  C   UNL     1       2.824   7.590  18.403  0.00  0.00    +0.000 A 
ATOM      8  N   UNL     1       2.203   8.690  18.017  0.00  0.00    +0.000 NA
ATOM      9  C   UNL     1       1.441   9.027  19.117  0.00  0.00    +0.000 A 
ENDROOT
BRANCH   1  10
ATOM     10  N   UNL     1       0.250  11.003  18.279  0.00  0.00    +0.000 N 
ATOM     11  H   UNL     1       1.126  11.352  17.884  0.00  0.00    +0.000 HD
BRANCH  10  12
ATOM     12  C   UNL     1      -0.796  11.989  18.524  0.00  0.00    +0.000 C 
BRANCH  12  14
ATOM     13  F   UNL     1      -0.621  14.360  18.240  0.00  0.00    +0.000 F 
ATOM     14  C   UNL     1      -0.277  13.337  19.076  0.00  0.00    +0.000 C 
ATOM     15  F   UNL     1      -0.942  13.586  20.245  0.00  0.00    +0.000 F 
BRANCH  14  16
ATOM     16  C   UNL     1       1.260  13.349  19.320  0.00  0.00    +0.000 C 
ATOM     17  C   UNL     1       1.586  13.961  20.697  0.00  0.00    +0.000 C 
ATOM     18  C   UNL     1       3.084  13.983  20.968  0.00  0.00    +0.000 C 
ATOM     19  C   UNL     1       3.822  14.670  19.828  0.00  0.00    +0.000 C 
ATOM     20  C   UNL     1       3.464  14.034  18.493  0.00  0.00    +0.000 C 
ATOM     21  N   UNL     1       2.021  14.058  18.255  0.00  0.00    +0.000 NA
ATOM     22  H   UNL     1       1.826  13.601  17.360  0.00  0.00    +0.000 HD
ENDBRANCH  14  16
ENDBRANCH  12  14
ENDBRANCH  10  12
ENDBRANCH   1  10
BRANCH   7  23
ATOM     23  C   UNL     1       3.658   6.673  17.572  0.00  0.00    +0.000 C 
BRANCH  23  24
ATOM     24  C   UNL     1       3.318   5.183  17.694  0.00  0.00    +0.000 A 
ATOM     25  C   UNL     1       1.979   4.798  17.885  0.00  0.00    +0.000 A 
ATOM     26  C   UNL     1       1.596   3.456  17.963  0.00  0.00    +0.000 A 
ATOM     27  C   UNL     1       2.535   2.461  17.839  0.00  0.00    +0.000 A 
ATOM     28  C   UNL     1       3.877   2.800  17.638  0.00  0.00    +0.000 A 
ATOM     29  C   UNL     1       4.285   4.151  17.577  0.00  0.00    +0.000 A 
BRANCH  29  30
ATOM     30  N   UNL     1       5.674   4.413  17.416  0.00  0.00    +0.000 N 
ATOM     31  C   UNL     1       6.409   4.502  16.258  0.00  0.00    +0.000 A 
ATOM     32  N   UNL     1       7.693   4.556  16.522  0.00  0.00    +0.000 NA
ATOM     33  C   UNL     1       7.699   4.566  17.876  0.00  0.00    +0.000 A 
ATOM     34  N   UNL     1       6.521   4.540  18.470  0.00  0.00    +0.000 NA
ENDBRANCH  29  30
ENDBRANCH  23  24
ENDBRANCH   7  23
TORSDOF 7
ENDMDL
MODEL 9
REMARK VINA RESULT:      -8.8      2.591      3.731
REMARK  Name = 
REMARK  7 active torsions:
REMARK  status: ('A' for Active; 'I' for Inactive)
REMARK    1  A    between atoms: C_2  and  C_4
REMARK    2  A    between atoms: C_2  and  C_27
REMARK    3  A    between atoms: C_4  and  N_5
REMARK    4  A    between atoms: N_5  and  C_6
REMARK    5  A    between atoms: C_12  and  C_13
REMARK    6  A    between atoms: C_13  and  C_14
REMARK    7  A    between atoms: C_19  and  N_20
REMARK                            x       y       z     vdW  Elec       q    Type
REMARK                         _______ _______ _______ _____ _____    ______ ____
ROOT
ATOM      1  C   UNL     1       0.504  10.049  19.270  0.00  0.00    +0.000 A 
ATOM      2  C   UNL     1      -0.082  10.120  20.563  0.00  0.00    +0.000 A 
ATOM      3  C   UNL     1       0.199   9.217  21.581  0.00  0.00    +0.000 A 
ATOM      4  C   UNL     1       1.075   8.154  21.371  0.00  0.00    +0.000 A 
ATOM      5  C   UNL     1       1.672   8.110  20.124  0.00  0.00    +0.000 A 
ATOM      6  O   UNL     1       2.574   7.185  19.670  0.00  0.00    +0.000 OA
ATOM      7  C   UNL     1       2.823   7.572  18.373  0.00  0.00    +0.000 A 
ATOM      8  N   UNL     1       2.173   8.653  17.978  0.00  0.00    +0.000 NA
ATOM      9  C   UNL     1       1.431   9.000  19.089  0.00  0.00    +0.000 A 
ENDROOT
BRANCH   1  10
ATOM     10  N   UNL     1       0.186  10.937  18.238  0.00  0.00    +0.000 N 
ATOM     11  H   UNL     1       0.992  11.043  17.617  0.00  0.00    +0.000 HD
BRANCH  10  12
ATOM     12  C   UNL     1      -0.530  12.156  18.594  0.00  0.00    +0.000 C 
BRANCH  12  14
ATOM     13  F   UNL     1       1.416  13.296  17.790  0.00  0.00    +0.000 F 
ATOM     14  C   UNL     1       0.359  13.419  18.644  0.00  0.00    +0.000 C 
ATOM     15  F   UNL     1      -0.380  14.462  18.158  0.00  0.00    +0.000 F 
BRANCH  14  16
ATOM     16  C   UNL     1       0.874  13.750  20.075  0.00  0.00    +0.000 C 
ATOM     17  C   UNL     1      -0.102  14.701  20.798  0.00  0.00    +0.000 C 
ATOM     18  C   UNL     1       0.373  15.040  22.204  0.00  0.00    +0.000 C 
ATOM     19  C   UNL     1       1.799  15.571  22.172  0.00  0.00    +0.000 C 
ATOM     20  C   UNL     1       2.720  14.601  21.446  0.00  0.00    +0.000 C 
ATOM     21  N   UNL     1       2.248  14.323  20.090  0.00  0.00    +0.000 NA
ATOM     22  H   UNL     1       2.882  13.651  19.651  0.00  0.00    +0.000 HD
ENDBRANCH  14  16
ENDBRANCH  12  14
ENDBRANCH  10  12
ENDBRANCH   1  10
BRANCH   7  23
ATOM     23  C   UNL     1       3.652   6.651  17.542  0.00  0.00    +0.000 C 
BRANCH  23  24
ATOM     24  C   UNL     1       3.319   5.162  17.678  0.00  0.00    +0.000 A 
ATOM     25  C   UNL     1       1.980   4.771  17.860  0.00  0.00    +0.000 A 
ATOM     26  C   UNL     1       1.603   3.428  17.951  0.00  0.00    +0.000 A 
ATOM     27  C   UNL     1       2.549   2.437  17.848  0.00  0.00    +0.000 A 
ATOM     28  C   UNL     1       3.891   2.781  17.657  0.00  0.00    +0.000 A 
ATOM     29  C   UNL     1       4.293   4.133  17.583  0.00  0.00    +0.000 A 
BRANCH  29  30
ATOM     30  N   UNL     1       5.682   4.400  17.433  0.00  0.00    +0.000 N 
ATOM     31  C   UNL     1       6.435   4.445  16.285  0.00  0.00    +0.000 A 
ATOM     32  N   UNL     1       7.714   4.522  16.567  0.00  0.00    +0.000 NA
ATOM     33  C   UNL     1       7.698   4.592  17.919  0.00  0.00    +0.000 A 
ATOM     34  N   UNL     1       6.511   4.581  18.494  0.00  0.00    +0.000 NA
ENDBRANCH  29  30
ENDBRANCH  23  24
ENDBRANCH   7  23
TORSDOF 7
ENDMDL
