MODEL 1
REMARK VINA RESULT:      -8.0      0.000      0.000
REMARK  Name = 
REMARK  4 active torsions:
REMARK  status: ('A' for Active; 'I' for Inactive)
REMARK    1  A    between atoms: C_1  and  C_2
REMARK    2  A    between atoms: C_5  and  C_6
REMARK    3  A    between atoms: N_14  and  C_15
REMARK    4  A    between atoms: C_23  and  C_24
REMARK                            x       y       z     vdW  Elec       q    Type
REMARK                         _______ _______ _______ _____ _____    ______ ____
ROOT
ATOM      1  C   UNL     1       2.366   7.426  18.877  0.00  0.00    +0.000 A 
ATOM      2  C   UNL     1       2.056   8.781  18.600  0.00  0.00    +0.000 A 
ATOM      3  C   UNL     1       1.475   9.262  19.743  0.00  0.00    +0.000 A 
ATOM      4  C   UNL     1       0.958  10.560  20.121  0.00  0.00    +0.000 A 
ATOM      5  N   UNL     1       0.988  11.627  19.237  0.00  0.00    +0.000 N 
ATOM      6  C   UNL     1       2.240  12.095  18.655  0.00  0.00    +0.000 C 
ATOM      7  C   UNL     1       2.637  13.496  19.115  0.00  0.00    +0.000 C 
ATOM      8  C   UNL     1       1.736  14.586  18.533  0.00  0.00    +0.000 C 
ATOM      9  N   UNL     1       0.520  14.888  19.297  0.00  0.00    +0.000 NA
ATOM     10  C   UNL     1      -0.394  15.710  18.505  0.00  0.00    +0.000 C 
ATOM     11  C   UNL     1      -0.166  13.728  19.896  0.00  0.00    +0.000 C 
ATOM     12  C   UNL     1      -0.209  12.445  19.053  0.00  0.00    +0.000 C 
ATOM     13  N   UNL     1       0.413  10.710  21.308  0.00  0.00    +0.000 NA
ATOM     14  C   UNL     1       0.401   9.642  22.183  0.00  0.00    +0.000 A 
ATOM     15  C   UNL     1       0.857   8.419  21.875  0.00  0.00    +0.000 A 
ATOM     16  N   UNL     1       1.395   8.211  20.620  0.00  0.00    +0.000 N 
ATOM     17  N   UNL     1       1.899   7.074  20.084  0.00  0.00    +0.000 NA
ENDROOT
BRANCH   1  22
ATOM     18  C   UNL     1       5.725   3.989  15.641  0.00  0.00    +0.000 C 
ATOM     19  C   UNL     1       4.813   4.883  16.425  0.00  0.00    +0.000 A 
ATOM     20  C   UNL     1       5.065   6.247  16.536  0.00  0.00    +0.000 A 
ATOM     21  C   UNL     1       4.217   7.053  17.298  0.00  0.00    +0.000 A 
ATOM     22  C   UNL     1       3.103   6.521  17.983  0.00  0.00    +0.000 A 
ATOM     23  C   UNL     1       2.823   5.147  17.847  0.00  0.00    +0.000 A 
ATOM     24  C   UNL     1       1.689   4.418  18.520  0.00  0.00    +0.000 C 
ATOM     25  C   UNL     1       3.689   4.350  17.067  0.00  0.00    +0.000 A 
ENDBRANCH   1  22
TORSDOF 1
ENDMDL
MODEL 2
REMARK VINA RESULT:      -7.6      1.005      1.223
REMARK  Name = 
REMARK  4 active torsions:
REMARK  status: ('A' for Active; 'I' for Inactive)
REMARK    1  A    between atoms: C_1  and  C_2
REMARK    2  A    between atoms: C_5  and  C_6
REMARK    3  A    between atoms: N_14  and  C_15
REMARK    4  A    between atoms: C_23  and  C_24
REMARK                            x       y       z     vdW  Elec       q    Type
REMARK                         _______ _______ _______ _____ _____    ______ ____
ROOT
ATOM      1  C   UNL     1       1.706   8.018  19.761  0.00  0.00    +0.000 A 
ATOM      2  C   UNL     1       1.514   9.362  19.354  0.00  0.00    +0.000 A 
ATOM      3  C   UNL     1       0.863   9.968  20.396  0.00  0.00    +0.000 A 
ATOM      4  C   UNL     1       0.402  11.321  20.623  0.00  0.00    +0.000 A 
ATOM      5  N   UNL     1       0.584  12.308  19.668  0.00  0.00    +0.000 N 
ATOM      6  C   UNL     1       1.913  12.652  19.176  0.00  0.00    +0.000 C 
ATOM      7  C   UNL     1       2.358  14.060  19.564  0.00  0.00    +0.000 C 
ATOM      8  C   UNL     1       1.590  15.151  18.818  0.00  0.00    +0.000 C 
ATOM      9  N   UNL     1       0.332  15.586  19.435  0.00  0.00    +0.000 NA
ATOM     10  C   UNL     1      -0.449  16.392  18.499  0.00  0.00    +0.000 C 
ATOM     11  C   UNL     1      -0.483  14.521  20.051  0.00  0.00    +0.000 C 
ATOM     12  C   UNL     1      -0.534  13.178  19.307  0.00  0.00    +0.000 C 
ATOM     13  N   UNL     1      -0.237  11.599  21.737  0.00  0.00    +0.000 NA
ATOM     14  C   UNL     1      -0.401  10.609  22.685  0.00  0.00    +0.000 A 
ATOM     15  C   UNL     1      -0.001   9.340  22.516  0.00  0.00    +0.000 A 
ATOM     16  N   UNL     1       0.634   8.999  21.338  0.00  0.00    +0.000 N 
ATOM     17  N   UNL     1       1.108   7.794  20.941  0.00  0.00    +0.000 NA
ENDROOT
BRANCH   1  22
ATOM     18  C   UNL     1       5.131   4.304  16.926  0.00  0.00    +0.000 C 
ATOM     19  C   UNL     1       4.193   5.244  17.619  0.00  0.00    +0.000 A 
ATOM     20  C   UNL     1       4.123   6.586  17.259  0.00  0.00    +0.000 A 
ATOM     21  C   UNL     1       3.263   7.448  17.942  0.00  0.00    +0.000 A 
ATOM     22  C   UNL     1       2.459   7.001  19.013  0.00  0.00    +0.000 A 
ATOM     23  C   UNL     1       2.500   5.636  19.361  0.00  0.00    +0.000 A 
ATOM     24  C   UNL     1       1.723   4.999  20.483  0.00  0.00    +0.000 C 
ATOM     25  C   UNL     1       3.372   4.780  18.653  0.00  0.00    +0.000 A 
ENDBRANCH   1  22
TORSDOF 1
ENDMDL
MODEL 3
REMARK VINA RESULT:      -7.5      1.502      2.365
REMARK  Name = 
REMARK  4 active torsions:
REMARK  status: ('A' for Active; 'I' for Inactive)
REMARK    1  A    between atoms: C_1  and  C_2
REMARK    2  A    between atoms: C_5  and  C_6
REMARK    3  A    between atoms: N_14  and  C_15
REMARK    4  A    between atoms: C_23  and  C_24
REMARK                            x       y       z     vdW  Elec       q    Type
REMARK                         _______ _______ _______ _____ _____    ______ ____
ROOT
ATOM      1  C   UNL     1       1.167   8.297  20.464  0.00  0.00    +0.000 A 
ATOM      2  C   UNL     1       1.076   9.606  19.929  0.00  0.00    +0.000 A 
ATOM      3  C   UNL     1       0.397  10.338  20.867  0.00  0.00    +0.000 A 
ATOM      4  C   UNL     1      -0.001  11.726  20.943  0.00  0.00    +0.000 A 
ATOM      5  N   UNL     1       0.296  12.612  19.919  0.00  0.00    +0.000 N 
ATOM      6  C   UNL     1       1.669  12.842  19.489  0.00  0.00    +0.000 C 
ATOM      7  C   UNL     1       2.168  14.255  19.781  0.00  0.00    +0.000 C 
ATOM      8  C   UNL     1       1.510  15.311  18.891  0.00  0.00    +0.000 C 
ATOM      9  N   UNL     1       0.242  15.863  19.382  0.00  0.00    +0.000 NA
ATOM     10  C   UNL     1      -0.432  16.619  18.328  0.00  0.00    +0.000 C 
ATOM     11  C   UNL     1      -0.667  14.902  20.033  0.00  0.00    +0.000 C 
ATOM     12  C   UNL     1      -0.747  13.500  19.409  0.00  0.00    +0.000 C 
ATOM     13  N   UNL     1      -0.692  12.138  21.983  0.00  0.00    +0.000 NA
ATOM     14  C   UNL     1      -0.970  11.248  23.000  0.00  0.00    +0.000 A 
ATOM     15  C   UNL     1      -0.632   9.950  22.971  0.00  0.00    +0.000 A 
ATOM     16  N   UNL     1       0.055   9.471  21.873  0.00  0.00    +0.000 N 
ATOM     17  N   UNL     1       0.484   8.212  21.616  0.00  0.00    +0.000 NA
ENDROOT
BRANCH   1  22
ATOM     18  C   UNL     1       3.619   3.596  18.130  0.00  0.00    +0.000 C 
ATOM     19  C   UNL     1       3.047   4.833  18.754  0.00  0.00    +0.000 A 
ATOM     20  C   UNL     1       2.495   4.804  20.031  0.00  0.00    +0.000 A 
ATOM     21  C   UNL     1       1.940   5.963  20.577  0.00  0.00    +0.000 A 
ATOM     22  C   UNL     1       1.907   7.180  19.861  0.00  0.00    +0.000 A 
ATOM     23  C   UNL     1       2.494   7.224  18.581  0.00  0.00    +0.000 A 
ATOM     24  C   UNL     1       2.531   8.430  17.680  0.00  0.00    +0.000 C 
ATOM     25  C   UNL     1       3.056   6.042  18.049  0.00  0.00    +0.000 A 
ENDBRANCH   1  22
TORSDOF 1
ENDMDL
MODEL 4
REMARK VINA RESULT:      -7.3      3.408      5.228
REMARK  Name = 
REMARK  4 active torsions:
REMARK  status: ('A' for Active; 'I' for Inactive)
REMARK    1  A    between atoms: C_1  and  C_2
REMARK    2  A    between atoms: C_5  and  C_6
REMARK    3  A    between atoms: N_14  and  C_15
REMARK    4  A    between atoms: C_23  and  C_24
REMARK                            x       y       z     vdW  Elec       q    Type
REMARK                         _______ _______ _______ _____ _____    ______ ____
ROOT
ATOM      1  C   UNL     1       0.517  10.669  19.617  0.00  0.00    +0.000 A 
ATOM      2  C   UNL     1      -0.886  10.846  19.714  0.00  0.00    +0.000 A 
ATOM      3  C   UNL     1      -1.069  12.183  19.954  0.00  0.00    +0.000 A 
ATOM      4  C   UNL     1      -2.245  13.006  20.131  0.00  0.00    +0.000 A 
ATOM      5  N   UNL     1      -3.517  12.457  20.076  0.00  0.00    +0.000 N 
ATOM      6  C   UNL     1      -3.980  11.731  18.901  0.00  0.00    +0.000 C 
ATOM      7  C   UNL     1      -5.117  12.433  18.163  0.00  0.00    +0.000 C 
ATOM      8  C   UNL     1      -6.435  12.401  18.939  0.00  0.00    +0.000 C 
ATOM      9  N   UNL     1      -6.641  13.491  19.899  0.00  0.00    +0.000 NA
ATOM     10  C   UNL     1      -7.768  13.195  20.780  0.00  0.00    +0.000 C 
ATOM     11  C   UNL     1      -5.448  13.911  20.658  0.00  0.00    +0.000 C 
ATOM     12  C   UNL     1      -4.493  12.795  21.110  0.00  0.00    +0.000 C 
ATOM     13  N   UNL     1      -2.097  14.286  20.389  0.00  0.00    +0.000 NA
ATOM     14  C   UNL     1      -0.826  14.822  20.428  0.00  0.00    +0.000 A 
ATOM     15  C   UNL     1       0.295  14.098  20.282  0.00  0.00    +0.000 A 
ATOM     16  N   UNL     1       0.179  12.742  20.054  0.00  0.00    +0.000 N 
ATOM     17  N   UNL     1       1.156  11.817  19.892  0.00  0.00    +0.000 NA
ENDROOT
BRANCH   1  22
ATOM     18  C   UNL     1       3.615   6.035  18.041  0.00  0.00    +0.000 C 
ATOM     19  C   UNL     1       2.757   7.197  18.438  0.00  0.00    +0.000 A 
ATOM     20  C   UNL     1       2.441   8.201  17.529  0.00  0.00    +0.000 A 
ATOM     21  C   UNL     1       1.665   9.289  17.933  0.00  0.00    +0.000 A 
ATOM     22  C   UNL     1       1.194   9.415  19.258  0.00  0.00    +0.000 A 
ATOM     23  C   UNL     1       1.482   8.385  20.175  0.00  0.00    +0.000 A 
ATOM     24  C   UNL     1       1.072   8.368  21.625  0.00  0.00    +0.000 C 
ATOM     25  C   UNL     1       2.263   7.289  19.745  0.00  0.00    +0.000 A 
ENDBRANCH   1  22
TORSDOF 1
ENDMDL
MODEL 5
REMARK VINA RESULT:      -7.2      4.013      6.062
REMARK  Name = 
REMARK  4 active torsions:
REMARK  status: ('A' for Active; 'I' for Inactive)
REMARK    1  A    between atoms: C_1  and  C_2
REMARK    2  A    between atoms: C_5  and  C_6
REMARK    3  A    between atoms: N_14  and  C_15
REMARK    4  A    between atoms: C_23  and  C_24
REMARK                            x       y       z     vdW  Elec       q    Type
REMARK                         _______ _______ _______ _____ _____    ______ ____
ROOT
ATOM      1  C   UNL     1       0.276  11.438  20.791  0.00  0.00    +0.000 A 
ATOM      2  C   UNL     1      -1.075  11.572  21.201  0.00  0.00    +0.000 A 
ATOM      3  C   UNL     1      -1.162  12.817  21.766  0.00  0.00    +0.000 A 
ATOM      4  C   UNL     1      -2.254  13.564  22.353  0.00  0.00    +0.000 A 
ATOM      5  N   UNL     1      -3.529  13.026  22.429  0.00  0.00    +0.000 N 
ATOM      6  C   UNL     1      -4.237  12.579  21.236  0.00  0.00    +0.000 C 
ATOM      7  C   UNL     1      -5.473  13.416  20.915  0.00  0.00    +0.000 C 
ATOM      8  C   UNL     1      -6.613  13.193  21.909  0.00  0.00    +0.000 C 
ATOM      9  N   UNL     1      -6.591  14.035  23.110  0.00  0.00    +0.000 NA
ATOM     10  C   UNL     1      -7.534  13.533  24.108  0.00  0.00    +0.000 C 
ATOM     11  C   UNL     1      -5.260  14.287  23.693  0.00  0.00    +0.000 C 
ATOM     12  C   UNL     1      -4.272  13.110  23.685  0.00  0.00    +0.000 C 
ATOM     13  N   UNL     1      -2.016  14.754  22.856  0.00  0.00    +0.000 NA
ATOM     14  C   UNL     1      -0.744  15.283  22.762  0.00  0.00    +0.000 A 
ATOM     15  C   UNL     1       0.301  14.625  22.238  0.00  0.00    +0.000 A 
ATOM     16  N   UNL     1       0.099  13.354  21.740  0.00  0.00    +0.000 N 
ATOM     17  N   UNL     1       0.993  12.502  21.184  0.00  0.00    +0.000 NA
ENDROOT
BRANCH   1  22
ATOM     18  C   UNL     1       2.882   7.302  17.683  0.00  0.00    +0.000 C 
ATOM     19  C   UNL     1       2.147   8.341  18.474  0.00  0.00    +0.000 A 
ATOM     20  C   UNL     1       1.808   9.567  17.910  0.00  0.00    +0.000 A 
ATOM     21  C   UNL     1       1.152  10.531  18.678  0.00  0.00    +0.000 A 
ATOM     22  C   UNL     1       0.827  10.306  20.034  0.00  0.00    +0.000 A 
ATOM     23  C   UNL     1       1.138   9.055  20.601  0.00  0.00    +0.000 A 
ATOM     24  C   UNL     1       0.878   8.657  22.031  0.00  0.00    +0.000 C 
ATOM     25  C   UNL     1       1.796   8.091  19.806  0.00  0.00    +0.000 A 
ENDBRANCH   1  22
TORSDOF 1
ENDMDL
MODEL 6
REMARK VINA RESULT:      -7.1      3.362      5.097
REMARK  Name = 
REMARK  4 active torsions:
REMARK  status: ('A' for Active; 'I' for Inactive)
REMARK    1  A    between atoms: C_1  and  C_2
REMARK    2  A    between atoms: C_5  and  C_6
REMARK    3  A    between atoms: N_14  and  C_15
REMARK    4  A    between atoms: C_23  and  C_24
REMARK                            x       y       z     vdW  Elec       q    Type
REMARK                         _______ _______ _______ _____ _____    ______ ____
ROOT
ATOM      1  C   UNL     1       0.574  10.035  20.076  0.00  0.00    +0.000 A 
ATOM      2  C   UNL     1      -0.802  10.240  19.803  0.00  0.00    +0.000 A 
ATOM      3  C   UNL     1      -1.004  11.588  19.945  0.00  0.00    +0.000 A 
ATOM      4  C   UNL     1      -2.165  12.437  19.786  0.00  0.00    +0.000 A 
ATOM      5  N   UNL     1      -3.394  11.908  19.425  0.00  0.00    +0.000 N 
ATOM      6  C   UNL     1      -3.560  11.145  18.194  0.00  0.00    +0.000 C 
ATOM      7  C   UNL     1      -4.451  11.839  17.166  0.00  0.00    +0.000 C 
ATOM      8  C   UNL     1      -5.924  11.859  17.579  0.00  0.00    +0.000 C 
ATOM      9  N   UNL     1      -6.340  12.989  18.417  0.00  0.00    +0.000 NA
ATOM     10  C   UNL     1      -7.663  12.746  18.989  0.00  0.00    +0.000 C 
ATOM     11  C   UNL     1      -5.371  13.417  19.443  0.00  0.00    +0.000 C 
ATOM     12  C   UNL     1      -4.593  12.303  20.162  0.00  0.00    +0.000 C 
ATOM     13  N   UNL     1      -2.054  13.724  20.031  0.00  0.00    +0.000 NA
ATOM     14  C   UNL     1      -0.821  14.238  20.378  0.00  0.00    +0.000 A 
ATOM     15  C   UNL     1       0.280  13.490  20.548  0.00  0.00    +0.000 A 
ATOM     16  N   UNL     1       0.191  12.128  20.344  0.00  0.00    +0.000 N 
ATOM     17  N   UNL     1       1.151  11.181  20.468  0.00  0.00    +0.000 NA
ENDROOT
BRANCH   1  22
ATOM     18  C   UNL     1       2.896   4.745  19.648  0.00  0.00    +0.000 C 
ATOM     19  C   UNL     1       2.357   6.137  19.777  0.00  0.00    +0.000 A 
ATOM     20  C   UNL     1       1.700   6.549  20.932  0.00  0.00    +0.000 A 
ATOM     21  C   UNL     1       1.180   7.842  21.015  0.00  0.00    +0.000 A 
ATOM     22  C   UNL     1       1.286   8.756  19.944  0.00  0.00    +0.000 A 
ATOM     23  C   UNL     1       1.980   8.357  18.784  0.00  0.00    +0.000 A 
ATOM     24  C   UNL     1       2.171   9.198  17.550  0.00  0.00    +0.000 C 
ATOM     25  C   UNL     1       2.505   7.047  18.723  0.00  0.00    +0.000 A 
ENDBRANCH   1  22
TORSDOF 1
ENDMDL
MODEL 7
REMARK VINA RESULT:      -6.9      1.835      3.084
REMARK  Name = 
REMARK  4 active torsions:
REMARK  status: ('A' for Active; 'I' for Inactive)
REMARK    1  A    between atoms: C_1  and  C_2
REMARK    2  A    between atoms: C_5  and  C_6
REMARK    3  A    between atoms: N_14  and  C_15
REMARK    4  A    between atoms: C_23  and  C_24
REMARK                            x       y       z     vdW  Elec       q    Type
REMARK                         _______ _______ _______ _____ _____    ______ ____
ROOT
ATOM      1  C   UNL     1       0.866   9.327  20.524  0.00  0.00    +0.000 A 
ATOM      2  C   UNL     1       0.933  10.638  19.987  0.00  0.00    +0.000 A 
ATOM      3  C   UNL     1       0.255  11.430  20.876  0.00  0.00    +0.000 A 
ATOM      4  C   UNL     1      -0.022  12.849  20.926  0.00  0.00    +0.000 A 
ATOM      5  N   UNL     1       0.428  13.701  19.929  0.00  0.00    +0.000 N 
ATOM      6  C   UNL     1       1.844  13.805  19.602  0.00  0.00    +0.000 C 
ATOM      7  C   UNL     1       2.445  15.169  19.935  0.00  0.00    +0.000 C 
ATOM      8  C   UNL     1       1.951  16.277  19.002  0.00  0.00    +0.000 C 
ATOM      9  N   UNL     1       0.706  16.942  19.400  0.00  0.00    +0.000 NA
ATOM     10  C   UNL     1       0.182  17.752  18.302  0.00  0.00    +0.000 C 
ATOM     11  C   UNL     1      -0.332  16.068  19.980  0.00  0.00    +0.000 C 
ATOM     12  C   UNL     1      -0.491  14.678  19.347  0.00  0.00    +0.000 C 
ATOM     13  N   UNL     1      -0.748  13.325  21.913  0.00  0.00    +0.000 NA
ATOM     14  C   UNL     1      -1.178  12.467  22.905  0.00  0.00    +0.000 A 
ATOM     15  C   UNL     1      -0.957  11.143  22.897  0.00  0.00    +0.000 A 
ATOM     16  N   UNL     1      -0.237  10.602  21.851  0.00  0.00    +0.000 N 
ATOM     17  N   UNL     1       0.096   9.308  21.623  0.00  0.00    +0.000 NA
ENDROOT
BRANCH   1  22
ATOM     18  C   UNL     1       3.070   4.394  18.435  0.00  0.00    +0.000 C 
ATOM     19  C   UNL     1       2.564   5.690  18.992  0.00  0.00    +0.000 A 
ATOM     20  C   UNL     1       2.060   5.768  20.286  0.00  0.00    +0.000 A 
ATOM     21  C   UNL     1       1.566   6.981  20.770  0.00  0.00    +0.000 A 
ATOM     22  C   UNL     1       1.545   8.146  19.973  0.00  0.00    +0.000 A 
ATOM     23  C   UNL     1       2.084   8.082  18.673  0.00  0.00    +0.000 A 
ATOM     24  C   UNL     1       2.125   9.222  17.690  0.00  0.00    +0.000 C 
ATOM     25  C   UNL     1       2.585   6.847  18.205  0.00  0.00    +0.000 A 
ENDBRANCH   1  22
TORSDOF 1
ENDMDL
MODEL 8
REMARK VINA RESULT:      -6.7      6.786      8.491
REMARK  Name = 
REMARK  4 active torsions:
REMARK  status: ('A' for Active; 'I' for Inactive)
REMARK    1  A    between atoms: C_1  and  C_2
REMARK    2  A    between atoms: C_5  and  C_6
REMARK    3  A    between atoms: N_14  and  C_15
REMARK    4  A    between atoms: C_23  and  C_24
REMARK                            x       y       z     vdW  Elec       q    Type
REMARK                         _______ _______ _______ _____ _____    ______ ____
ROOT
ATOM      1  C   UNL     1      -4.758  12.375  19.791  0.00  0.00    +0.000 A 
ATOM      2  C   UNL     1      -4.107  13.345  20.593  0.00  0.00    +0.000 A 
ATOM      3  C   UNL     1      -4.856  13.436  21.736  0.00  0.00    +0.000 A 
ATOM      4  C   UNL     1      -4.725  14.216  22.948  0.00  0.00    +0.000 A 
ATOM      5  N   UNL     1      -3.671  15.100  23.118  0.00  0.00    +0.000 N 
ATOM      6  C   UNL     1      -2.286  14.653  23.040  0.00  0.00    +0.000 C 
ATOM      7  C   UNL     1      -1.540  14.753  24.369  0.00  0.00    +0.000 C 
ATOM      8  C   UNL     1      -1.252  16.199  24.779  0.00  0.00    +0.000 C 
ATOM      9  N   UNL     1      -2.310  16.872  25.541  0.00  0.00    +0.000 NA
ATOM     10  C   UNL     1      -2.058  18.310  25.610  0.00  0.00    +0.000 C 
ATOM     11  C   UNL     1      -3.692  16.578  25.118  0.00  0.00    +0.000 C 
ATOM     12  C   UNL     1      -3.936  16.452  23.606  0.00  0.00    +0.000 C 
ATOM     13  N   UNL     1      -5.646  14.110  23.879  0.00  0.00    +0.000 NA
ATOM     14  C   UNL     1      -6.683  13.216  23.701  0.00  0.00    +0.000 A 
ATOM     15  C   UNL     1      -6.854  12.481  22.592  0.00  0.00    +0.000 A 
ATOM     16  N   UNL     1      -5.930  12.600  21.573  0.00  0.00    +0.000 N 
ATOM     17  N   UNL     1      -5.902  11.978  20.370  0.00  0.00    +0.000 NA
ENDROOT
BRANCH   1  22
ATOM     18  C   UNL     1      -2.785   9.837  14.972  0.00  0.00    +0.000 C 
ATOM     19  C   UNL     1      -3.268  10.552  16.197  0.00  0.00    +0.000 A 
ATOM     20  C   UNL     1      -2.554  10.497  17.389  0.00  0.00    +0.000 A 
ATOM     21  C   UNL     1      -3.042  11.147  18.525  0.00  0.00    +0.000 A 
ATOM     22  C   UNL     1      -4.262  11.858  18.508  0.00  0.00    +0.000 A 
ATOM     23  C   UNL     1      -4.973  11.946  17.295  0.00  0.00    +0.000 A 
ATOM     24  C   UNL     1      -6.292  12.648  17.107  0.00  0.00    +0.000 C 
ATOM     25  C   UNL     1      -4.459  11.287  16.156  0.00  0.00    +0.000 A 
ENDBRANCH   1  22
TORSDOF 1
ENDMDL
MODEL 9
REMARK VINA RESULT:      -6.7      3.277      5.532
REMARK  Name = 
REMARK  4 active torsions:
REMARK  status: ('A' for Active; 'I' for Inactive)
REMARK    1  A    between atoms: C_1  and  C_2
REMARK    2  A    between atoms: C_5  and  C_6
REMARK    3  A    between atoms: N_14  and  C_15
REMARK    4  A    between atoms: C_23  and  C_24
REMARK                            x       y       z     vdW  Elec       q    Type
REMARK                         _______ _______ _______ _____ _____    ______ ____
ROOT
ATOM      1  C   UNL     1       0.564  11.246  19.664  0.00  0.00    +0.000 A 
ATOM      2  C   UNL     1      -0.714  11.558  20.192  0.00  0.00    +0.000 A 
ATOM      3  C   UNL     1      -0.802  12.925  20.150  0.00  0.00    +0.000 A 
ATOM      4  C   UNL     1      -1.841  13.863  20.515  0.00  0.00    +0.000 A 
ATOM      5  N   UNL     1      -3.049  13.425  21.035  0.00  0.00    +0.000 N 
ATOM      6  C   UNL     1      -3.897  12.493  20.303  0.00  0.00    +0.000 C 
ATOM      7  C   UNL     1      -5.223  13.104  19.854  0.00  0.00    +0.000 C 
ATOM      8  C   UNL     1      -6.181  13.359  21.019  0.00  0.00    +0.000 C 
ATOM      9  N   UNL     1      -6.035  14.652  21.697  0.00  0.00    +0.000 NA
ATOM     10  C   UNL     1      -6.777  14.659  22.956  0.00  0.00    +0.000 C 
ATOM     11  C   UNL     1      -4.651  15.130  21.876  0.00  0.00    +0.000 C 
ATOM     12  C   UNL     1      -3.597  14.070  22.227  0.00  0.00    +0.000 C 
ATOM     13  N   UNL     1      -1.612  15.151  20.389  0.00  0.00    +0.000 NA
ATOM     14  C   UNL     1      -0.410  15.572  19.859  0.00  0.00    +0.000 A 
ATOM     15  C   UNL     1       0.587  14.742  19.516  0.00  0.00    +0.000 A 
ATOM     16  N   UNL     1       0.400  13.384  19.677  0.00  0.00    +0.000 N 
ATOM     17  N   UNL     1       1.257  12.367  19.417  0.00  0.00    +0.000 NA
ENDROOT
BRANCH   1  22
ATOM     18  C   UNL     1       3.023   6.141  18.458  0.00  0.00    +0.000 C 
ATOM     19  C   UNL     1       2.325   7.431  18.765  0.00  0.00    +0.000 A 
ATOM     20  C   UNL     1       2.102   8.381  17.773  0.00  0.00    +0.000 A 
ATOM     21  C   UNL     1       1.478   9.588  18.091  0.00  0.00    +0.000 A 
ATOM     22  C   UNL     1       1.071   9.890  19.409  0.00  0.00    +0.000 A 
ATOM     23  C   UNL     1       1.264   8.919  20.412  0.00  0.00    +0.000 A 
ATOM     24  C   UNL     1       0.906   9.084  21.865  0.00  0.00    +0.000 C 
ATOM     25  C   UNL     1       1.892   7.702  20.068  0.00  0.00    +0.000 A 
ENDBRANCH   1  22
TORSDOF 1
ENDMDL
