MODEL 1
REMARK VINA RESULT:      -9.0      0.000      0.000
REMARK  Name = 
REMARK  9 active torsions:
REMARK  status: ('A' for Active; 'I' for Inactive)
REMARK    1  A    between atoms: C_4  and  C_5
REMARK    2  A    between atoms: C_8  and  O_9
REMARK    3  A    between atoms: O_9  and  C_10
REMARK    4  A    between atoms: C_12  and  C_13
REMARK    5  A    between atoms: C_13  and  O_15
REMARK    6  A    between atoms: C_16  and  O_17
REMARK    7  A    between atoms: C_18  and  O_19
REMARK    8  A    between atoms: C_20  and  O_21
REMARK    9  A    between atoms: C_27  and  O_28
REMARK                            x       y       z     vdW  Elec       q    Type
REMARK                         _______ _______ _______ _____ _____    ______ ____
ROOT
ATOM      1  C   UNL     1       2.366   7.883  18.755  0.00  0.00    +0.000 A 
ATOM      2  C   UNL     1       1.747   7.971  20.011  0.00  0.00    +0.000 A 
ATOM      3  C   UNL     1       0.947   9.073  20.348  0.00  0.00    +0.000 A 
ATOM      4  C   UNL     1       0.745  10.101  19.429  0.00  0.00    +0.000 A 
ATOM      5  C   UNL     1       1.363  10.025  18.179  0.00  0.00    +0.000 A 
ATOM      6  C   UNL     1       2.170   8.932  17.845  0.00  0.00    +0.000 A 
ENDROOT
BRANCH   1  10
ATOM      7  O   UNL     1       2.714   3.142  17.938  0.00  0.00    +0.000 OA
ATOM      8  C   UNL     1       3.066   4.292  17.688  0.00  0.00    +0.000 C 
ATOM      9  C   UNL     1       2.232   5.490  18.038  0.00  0.00    +0.000 C 
ATOM     10  C   UNL     1       3.168   6.644  18.379  0.00  0.00    +0.000 C 
ATOM     11  O   UNL     1       4.027   6.966  17.272  0.00  0.00    +0.000 OA
ATOM     12  C   UNL     1       4.704   5.891  16.760  0.00  0.00    +0.000 A 
ATOM     13  C   UNL     1       5.828   6.183  15.983  0.00  0.00    +0.000 A 
ATOM     14  C   UNL     1       6.557   5.137  15.420  0.00  0.00    +0.000 A 
ATOM     15  C   UNL     1       6.181   3.813  15.617  0.00  0.00    +0.000 A 
ATOM     16  C   UNL     1       5.051   3.520  16.380  0.00  0.00    +0.000 A 
ATOM     17  C   UNL     1       4.310   4.565  16.943  0.00  0.00    +0.000 A 
BRANCH  14  18
ATOM     18  O   UNL     1       7.659   5.376  14.654  0.00  0.00    +0.000 OA
ATOM     19  H   UNL     1       7.376   5.635  13.762  0.00  0.00    +0.000 HD
ENDBRANCH  14  18
ENDBRANCH   1  10
BRANCH   4  20
ATOM     20  O   UNL     1      -0.110  11.153  19.600  0.00  0.00    +0.000 OA
BRANCH  20  21
ATOM     21  C   UNL     1      -1.488  10.963  19.252  0.00  0.00    +0.000 C 
ATOM     22  O   UNL     1      -1.661  10.903  17.830  0.00  0.00    +0.000 OA
ATOM     23  C   UNL     1      -3.036  10.685  17.452  0.00  0.00    +0.000 C 
ATOM     24  C   UNL     1      -3.890  11.886  17.865  0.00  0.00    +0.000 C 
ATOM     25  C   UNL     1      -3.741  12.113  19.381  0.00  0.00    +0.000 C 
ATOM     26  C   UNL     1      -2.267  12.182  19.811  0.00  0.00    +0.000 C 
BRANCH  23  27
ATOM     27  C   UNL     1      -3.060  10.472  15.936  0.00  0.00    +0.000 C 
ATOM     28  O   UNL     1      -2.840   9.411  15.373  0.00  0.00    +0.000 OA
BRANCH  27  29
ATOM     29  O   UNL     1      -3.296  11.623  15.255  0.00  0.00    +0.000 OA
ATOM     30  H   UNL     1      -2.451  12.114  15.143  0.00  0.00    +0.000 HD
ENDBRANCH  27  29
ENDBRANCH  23  27
BRANCH  24  31
ATOM     31  O   UNL     1      -5.267  11.708  17.537  0.00  0.00    +0.000 OA
ATOM     32  H   UNL     1      -5.384  10.932  16.964  0.00  0.00    +0.000 HD
ENDBRANCH  24  31
BRANCH  25  33
ATOM     33  O   UNL     1      -4.448  13.289  19.788  0.00  0.00    +0.000 OA
ATOM     34  H   UNL     1      -4.531  13.288  20.759  0.00  0.00    +0.000 HD
ENDBRANCH  25  33
BRANCH  26  35
ATOM     35  O   UNL     1      -2.163  12.268  21.240  0.00  0.00    +0.000 OA
ATOM     36  H   UNL     1      -2.607  13.075  21.549  0.00  0.00    +0.000 HD
ENDBRANCH  26  35
ENDBRANCH  20  21
ENDBRANCH   4  20
TORSDOF 9
ENDMDL
MODEL 2
REMARK VINA RESULT:      -8.7      2.704      4.321
REMARK  Name = 
REMARK  9 active torsions:
REMARK  status: ('A' for Active; 'I' for Inactive)
REMARK    1  A    between atoms: C_4  and  C_5
REMARK    2  A    between atoms: C_8  and  O_9
REMARK    3  A    between atoms: O_9  and  C_10
REMARK    4  A    between atoms: C_12  and  C_13
REMARK    5  A    between atoms: C_13  and  O_15
REMARK    6  A    between atoms: C_16  and  O_17
REMARK    7  A    between atoms: C_18  and  O_19
REMARK    8  A    between atoms: C_20  and  O_21
REMARK    9  A    between atoms: C_27  and  O_28
REMARK                            x       y       z     vdW  Elec       q    Type
REMARK                         _______ _______ _______ _____ _____    ______ ____
ROOT
ATOM      1  C   UNL     1       2.147   7.835  18.761  0.00  0.00    +0.000 A 
ATOM      2  C   UNL     1       1.808   8.767  17.769  0.00  0.00    +0.000 A 
ATOM      3  C   UNL     1       1.061   9.914  18.078  0.00  0.00    +0.000 A 
ATOM      4  C   UNL     1       0.651  10.152  19.388  0.00  0.00    +0.000 A 
ATOM      5  C   UNL     1       0.978   9.227  20.381  0.00  0.00    +0.000 A 
ATOM      6  C   UNL     1       1.713   8.077  20.073  0.00  0.00    +0.000 A 
ENDROOT
BRANCH   1  10
ATOM      7  O   UNL     1       2.768   3.108  18.033  0.00  0.00    +0.000 OA
ATOM      8  C   UNL     1       3.062   4.270  17.770  0.00  0.00    +0.000 C 
ATOM      9  C   UNL     1       2.157   5.426  18.084  0.00  0.00    +0.000 C 
ATOM     10  C   UNL     1       3.022   6.636  18.422  0.00  0.00    +0.000 C 
ATOM     11  O   UNL     1       3.884   6.986  17.326  0.00  0.00    +0.000 OA
ATOM     12  C   UNL     1       4.629   5.942  16.846  0.00  0.00    +0.000 A 
ATOM     13  C   UNL     1       5.750   6.281  16.085  0.00  0.00    +0.000 A 
ATOM     14  C   UNL     1       6.546   5.268  15.554  0.00  0.00    +0.000 A 
ATOM     15  C   UNL     1       6.238   3.929  15.767  0.00  0.00    +0.000 A 
ATOM     16  C   UNL     1       5.111   3.587  16.514  0.00  0.00    +0.000 A 
ATOM     17  C   UNL     1       4.303   4.599  17.044  0.00  0.00    +0.000 A 
BRANCH  14  18
ATOM     18  O   UNL     1       7.648   5.554  14.805  0.00  0.00    +0.000 OA
ATOM     19  H   UNL     1       7.515   5.218  13.903  0.00  0.00    +0.000 HD
ENDBRANCH  14  18
ENDBRANCH   1  10
BRANCH   4  20
ATOM     20  O   UNL     1       0.033  11.290  19.824  0.00  0.00    +0.000 OA
BRANCH  20  21
ATOM     21  C   UNL     1       0.691  12.544  19.591  0.00  0.00    +0.000 C 
ATOM     22  O   UNL     1       1.190  13.103  20.814  0.00  0.00    +0.000 OA
ATOM     23  C   UNL     1       1.881  14.352  20.606  0.00  0.00    +0.000 C 
ATOM     24  C   UNL     1       0.903  15.414  20.101  0.00  0.00    +0.000 C 
ATOM     25  C   UNL     1       0.230  14.908  18.810  0.00  0.00    +0.000 C 
ATOM     26  C   UNL     1      -0.366  13.502  18.984  0.00  0.00    +0.000 C 
BRANCH  23  27
ATOM     27  C   UNL     1       2.505  14.752  21.945  0.00  0.00    +0.000 C 
ATOM     28  O   UNL     1       3.554  14.314  22.390  0.00  0.00    +0.000 OA
BRANCH  27  29
ATOM     29  O   UNL     1       1.727  15.622  22.639  0.00  0.00    +0.000 OA
ATOM     30  H   UNL     1       0.784  15.484  22.392  0.00  0.00    +0.000 HD
ENDBRANCH  27  29
ENDBRANCH  23  27
BRANCH  24  31
ATOM     31  O   UNL     1       1.544  16.665  19.852  0.00  0.00    +0.000 OA
ATOM     32  H   UNL     1       0.894  17.333  19.581  0.00  0.00    +0.000 HD
ENDBRANCH  24  31
BRANCH  25  33
ATOM     33  O   UNL     1      -0.765  15.834  18.362  0.00  0.00    +0.000 OA
ATOM     34  H   UNL     1      -1.414  15.971  19.075  0.00  0.00    +0.000 HD
ENDBRANCH  25  33
BRANCH  26  35
ATOM     35  O   UNL     1      -0.871  13.012  17.734  0.00  0.00    +0.000 OA
ATOM     36  H   UNL     1      -1.311  13.734  17.256  0.00  0.00    +0.000 HD
ENDBRANCH  26  35
ENDBRANCH  20  21
ENDBRANCH   4  20
TORSDOF 9
ENDMDL
MODEL 3
REMARK VINA RESULT:      -8.6      3.256     10.075
REMARK  Name = 
REMARK  9 active torsions:
REMARK  status: ('A' for Active; 'I' for Inactive)
REMARK    1  A    between atoms: C_4  and  C_5
REMARK    2  A    between atoms: C_8  and  O_9
REMARK    3  A    between atoms: O_9  and  C_10
REMARK    4  A    between atoms: C_12  and  C_13
REMARK    5  A    between atoms: C_13  and  O_15
REMARK    6  A    between atoms: C_16  and  O_17
REMARK    7  A    between atoms: C_18  and  O_19
REMARK    8  A    between atoms: C_20  and  O_21
REMARK    9  A    between atoms: C_27  and  O_28
REMARK                            x       y       z     vdW  Elec       q    Type
REMARK                         _______ _______ _______ _____ _____    ______ ____
ROOT
ATOM      1  C   UNL     1       0.778   9.937  20.102  0.00  0.00    +0.000 A 
ATOM      2  C   UNL     1       1.058  10.031  18.730  0.00  0.00    +0.000 A 
ATOM      3  C   UNL     1       1.701   8.987  18.049  0.00  0.00    +0.000 A 
ATOM      4  C   UNL     1       2.065   7.826  18.728  0.00  0.00    +0.000 A 
ATOM      5  C   UNL     1       1.797   7.726  20.094  0.00  0.00    +0.000 A 
ATOM      6  C   UNL     1       1.166   8.771  20.778  0.00  0.00    +0.000 A 
ENDROOT
BRANCH   1  10
ATOM      7  O   UNL     1      -2.324  11.479  23.458  0.00  0.00    +0.000 OA
ATOM      8  C   UNL     1      -1.320  11.663  22.775  0.00  0.00    +0.000 C 
ATOM      9  C   UNL     1      -0.566  10.540  22.125  0.00  0.00    +0.000 C 
ATOM     10  C   UNL     1       0.011  11.048  20.808  0.00  0.00    +0.000 C 
ATOM     11  O   UNL     1       0.897  12.161  21.019  0.00  0.00    +0.000 OA
ATOM     12  C   UNL     1       0.353  13.173  21.764  0.00  0.00    +0.000 A 
ATOM     13  C   UNL     1       0.980  14.417  21.666  0.00  0.00    +0.000 A 
ATOM     14  C   UNL     1       0.487  15.490  22.407  0.00  0.00    +0.000 A 
ATOM     15  C   UNL     1      -0.614  15.337  23.244  0.00  0.00    +0.000 A 
ATOM     16  C   UNL     1      -1.232  14.091  23.355  0.00  0.00    +0.000 A 
ATOM     17  C   UNL     1      -0.738  13.009  22.619  0.00  0.00    +0.000 A 
BRANCH  14  18
ATOM     18  O   UNL     1       1.068  16.721  22.343  0.00  0.00    +0.000 OA
ATOM     19  H   UNL     1       2.010  16.617  22.133  0.00  0.00    +0.000 HD
ENDBRANCH  14  18
ENDBRANCH   1  10
BRANCH   4  20
ATOM     20  O   UNL     1       2.579   6.703  18.145  0.00  0.00    +0.000 OA
BRANCH  20  21
ATOM     21  C   UNL     1       3.893   6.282  18.538  0.00  0.00    +0.000 C 
ATOM     22  O   UNL     1       4.859   6.578  17.519  0.00  0.00    +0.000 OA
ATOM     23  C   UNL     1       6.195   6.189  17.900  0.00  0.00    +0.000 C 
ATOM     24  C   UNL     1       6.278   4.668  18.040  0.00  0.00    +0.000 C 
ATOM     25  C   UNL     1       5.230   4.197  19.066  0.00  0.00    +0.000 C 
ATOM     26  C   UNL     1       3.830   4.748  18.752  0.00  0.00    +0.000 C 
BRANCH  23  27
ATOM     27  C   UNL     1       7.143   6.708  16.816  0.00  0.00    +0.000 C 
ATOM     28  O   UNL     1       7.539   6.059  15.861  0.00  0.00    +0.000 OA
BRANCH  27  29
ATOM     29  O   UNL     1       7.561   7.977  17.058  0.00  0.00    +0.000 OA
ATOM     30  H   UNL     1       7.880   8.380  16.218  0.00  0.00    +0.000 HD
ENDBRANCH  27  29
ENDBRANCH  23  27
BRANCH  24  31
ATOM     31  O   UNL     1       7.577   4.233  18.443  0.00  0.00    +0.000 OA
ATOM     32  H   UNL     1       7.513   3.614  19.189  0.00  0.00    +0.000 HD
ENDBRANCH  24  31
BRANCH  25  33
ATOM     33  O   UNL     1       5.211   2.768  19.151  0.00  0.00    +0.000 OA
ATOM     34  H   UNL     1       5.417   2.397  18.274  0.00  0.00    +0.000 HD
ENDBRANCH  25  33
BRANCH  26  35
ATOM     35  O   UNL     1       2.906   4.395  19.793  0.00  0.00    +0.000 OA
ATOM     36  H   UNL     1       2.100   4.022  19.398  0.00  0.00    +0.000 HD
ENDBRANCH  26  35
ENDBRANCH  20  21
ENDBRANCH   4  20
TORSDOF 9
ENDMDL
MODEL 4
REMARK VINA RESULT:      -8.6      0.833      1.400
REMARK  Name = 
REMARK  9 active torsions:
REMARK  status: ('A' for Active; 'I' for Inactive)
REMARK    1  A    between atoms: C_4  and  C_5
REMARK    2  A    between atoms: C_8  and  O_9
REMARK    3  A    between atoms: O_9  and  C_10
REMARK    4  A    between atoms: C_12  and  C_13
REMARK    5  A    between atoms: C_13  and  O_15
REMARK    6  A    between atoms: C_16  and  O_17
REMARK    7  A    between atoms: C_18  and  O_19
REMARK    8  A    between atoms: C_20  and  O_21
REMARK    9  A    between atoms: C_27  and  O_28
REMARK                            x       y       z     vdW  Elec       q    Type
REMARK                         _______ _______ _______ _____ _____    ______ ____
ROOT
ATOM      1  C   UNL     1       2.365   7.642  18.725  0.00  0.00    +0.000 A 
ATOM      2  C   UNL     1       2.153   8.699  17.826  0.00  0.00    +0.000 A 
ATOM      3  C   UNL     1       1.448   9.848  18.213  0.00  0.00    +0.000 A 
ATOM      4  C   UNL     1       0.952   9.964  19.509  0.00  0.00    +0.000 A 
ATOM      5  C   UNL     1       1.152   8.916  20.409  0.00  0.00    +0.000 A 
ATOM      6  C   UNL     1       1.845   7.763  20.022  0.00  0.00    +0.000 A 
ENDROOT
BRANCH   1  10
ATOM      7  O   UNL     1       2.827   2.946  17.731  0.00  0.00    +0.000 OA
ATOM      8  C   UNL     1       3.157   4.111  17.529  0.00  0.00    +0.000 C 
ATOM      9  C   UNL     1       2.292   5.276  17.915  0.00  0.00    +0.000 C 
ATOM     10  C   UNL     1       3.198   6.437  18.311  0.00  0.00    +0.000 C 
ATOM     11  O   UNL     1       4.062   6.820  17.227  0.00  0.00    +0.000 OA
ATOM     12  C   UNL     1       4.769   5.780  16.683  0.00  0.00    +0.000 A 
ATOM     13  C   UNL     1       5.894   6.126  15.931  0.00  0.00    +0.000 A 
ATOM     14  C   UNL     1       6.653   5.119  15.337  0.00  0.00    +0.000 A 
ATOM     15  C   UNL     1       6.303   3.781  15.479  0.00  0.00    +0.000 A 
ATOM     16  C   UNL     1       5.172   3.434  16.216  0.00  0.00    +0.000 A 
ATOM     17  C   UNL     1       4.402   4.440  16.810  0.00  0.00    +0.000 A 
BRANCH  14  18
ATOM     18  O   UNL     1       7.757   5.411  14.593  0.00  0.00    +0.000 OA
ATOM     19  H   UNL     1       7.801   6.370  14.451  0.00  0.00    +0.000 HD
ENDBRANCH  14  18
ENDBRANCH   1  10
BRANCH   4  20
ATOM     20  O   UNL     1       0.364  11.082  20.030  0.00  0.00    +0.000 OA
BRANCH  20  21
ATOM     21  C   UNL     1      -1.068  11.166  19.997  0.00  0.00    +0.000 C 
ATOM     22  O   UNL     1      -1.544  11.390  18.663  0.00  0.00    +0.000 OA
ATOM     23  C   UNL     1      -2.984  11.452  18.597  0.00  0.00    +0.000 C 
ATOM     24  C   UNL     1      -3.492  12.672  19.367  0.00  0.00    +0.000 C 
ATOM     25  C   UNL     1      -2.987  12.598  20.820  0.00  0.00    +0.000 C 
ATOM     26  C   UNL     1      -1.470  12.367  20.892  0.00  0.00    +0.000 C 
BRANCH  23  27
ATOM     27  C   UNL     1      -3.366  11.521  17.116  0.00  0.00    +0.000 C 
ATOM     28  O   UNL     1      -4.508  11.532  16.686  0.00  0.00    +0.000 OA
BRANCH  27  29
ATOM     29  O   UNL     1      -2.281  11.507  16.300  0.00  0.00    +0.000 OA
ATOM     30  H   UNL     1      -2.562  11.715  15.381  0.00  0.00    +0.000 HD
ENDBRANCH  27  29
ENDBRANCH  23  27
BRANCH  24  31
ATOM     31  O   UNL     1      -4.917  12.764  19.355  0.00  0.00    +0.000 OA
ATOM     32  H   UNL     1      -5.200  13.677  19.525  0.00  0.00    +0.000 HD
ENDBRANCH  24  31
BRANCH  25  33
ATOM     33  O   UNL     1      -3.361  13.774  21.546  0.00  0.00    +0.000 OA
ATOM     34  H   UNL     1      -3.208  13.621  22.496  0.00  0.00    +0.000 HD
ENDBRANCH  25  33
BRANCH  26  35
ATOM     35  O   UNL     1      -1.053  12.178  22.252  0.00  0.00    +0.000 OA
ATOM     36  H   UNL     1      -0.525  12.941  22.539  0.00  0.00    +0.000 HD
ENDBRANCH  26  35
ENDBRANCH  20  21
ENDBRANCH   4  20
TORSDOF 9
ENDMDL
MODEL 5
REMARK VINA RESULT:      -8.5      2.744      9.681
REMARK  Name = 
REMARK  9 active torsions:
REMARK  status: ('A' for Active; 'I' for Inactive)
REMARK    1  A    between atoms: C_4  and  C_5
REMARK    2  A    between atoms: C_8  and  O_9
REMARK    3  A    between atoms: O_9  and  C_10
REMARK    4  A    between atoms: C_12  and  C_13
REMARK    5  A    between atoms: C_13  and  O_15
REMARK    6  A    between atoms: C_16  and  O_17
REMARK    7  A    between atoms: C_18  and  O_19
REMARK    8  A    between atoms: C_20  and  O_21
REMARK    9  A    between atoms: C_27  and  O_28
REMARK                            x       y       z     vdW  Elec       q    Type
REMARK                         _______ _______ _______ _____ _____    ______ ____
ROOT
ATOM      1  C   UNL     1       1.614   8.867  18.892  0.00  0.00    +0.000 A 
ATOM      2  C   UNL     1       2.231   8.195  17.826  0.00  0.00    +0.000 A 
ATOM      3  C   UNL     1       2.752   6.902  17.990  0.00  0.00    +0.000 A 
ATOM      4  C   UNL     1       2.655   6.257  19.221  0.00  0.00    +0.000 A 
ATOM      5  C   UNL     1       2.049   6.921  20.289  0.00  0.00    +0.000 A 
ATOM      6  C   UNL     1       1.539   8.214  20.131  0.00  0.00    +0.000 A 
ENDROOT
BRANCH   1  10
ATOM      7  O   UNL     1      -1.994  12.017  19.455  0.00  0.00    +0.000 OA
ATOM      8  C   UNL     1      -0.793  11.786  19.351  0.00  0.00    +0.000 C 
ATOM      9  C   UNL     1      -0.203  10.430  19.610  0.00  0.00    +0.000 C 
ATOM     10  C   UNL     1       0.987  10.238  18.676  0.00  0.00    +0.000 C 
ATOM     11  O   UNL     1       1.990  11.246  18.892  0.00  0.00    +0.000 OA
ATOM     12  C   UNL     1       1.510  12.528  18.853  0.00  0.00    +0.000 A 
ATOM     13  C   UNL     1       2.455  13.535  18.648  0.00  0.00    +0.000 A 
ATOM     14  C   UNL     1       2.039  14.864  18.610  0.00  0.00    +0.000 A 
ATOM     15  C   UNL     1       0.700  15.200  18.777  0.00  0.00    +0.000 A 
ATOM     16  C   UNL     1      -0.245  14.198  18.997  0.00  0.00    +0.000 A 
ATOM     17  C   UNL     1       0.168  12.861  19.043  0.00  0.00    +0.000 A 
BRANCH  14  18
ATOM     18  O   UNL     1       2.927  15.879  18.415  0.00  0.00    +0.000 OA
ATOM     19  H   UNL     1       2.679  16.632  18.976  0.00  0.00    +0.000 HD
ENDBRANCH  14  18
ENDBRANCH   1  10
BRANCH   4  20
ATOM     20  O   UNL     1       3.011   4.960  19.459  0.00  0.00    +0.000 OA
BRANCH  20  21
ATOM     21  C   UNL     1       4.259   4.497  18.925  0.00  0.00    +0.000 C 
ATOM     22  O   UNL     1       5.331   5.389  19.261  0.00  0.00    +0.000 OA
ATOM     23  C   UNL     1       6.603   4.933  18.758  0.00  0.00    +0.000 C 
ATOM     24  C   UNL     1       6.597   4.943  17.229  0.00  0.00    +0.000 C 
ATOM     25  C   UNL     1       5.434   4.068  16.723  0.00  0.00    +0.000 C 
ATOM     26  C   UNL     1       4.099   4.447  17.383  0.00  0.00    +0.000 C 
BRANCH  23  27
ATOM     27  C   UNL     1       7.675   5.869  19.323  0.00  0.00    +0.000 C 
ATOM     28  O   UNL     1       8.168   6.812  18.727  0.00  0.00    +0.000 OA
BRANCH  27  29
ATOM     29  O   UNL     1       8.079   5.502  20.567  0.00  0.00    +0.000 OA
ATOM     30  H   UNL     1       8.860   6.041  20.827  0.00  0.00    +0.000 HD
ENDBRANCH  27  29
ENDBRANCH  23  27
BRANCH  24  31
ATOM     31  O   UNL     1       7.828   4.473  16.680  0.00  0.00    +0.000 OA
ATOM     32  H   UNL     1       8.063   4.980  15.886  0.00  0.00    +0.000 HD
ENDBRANCH  24  31
BRANCH  25  33
ATOM     33  O   UNL     1       5.336   4.133  15.296  0.00  0.00    +0.000 OA
ATOM     34  H   UNL     1       5.769   3.349  14.913  0.00  0.00    +0.000 HD
ENDBRANCH  25  33
BRANCH  26  35
ATOM     35  O   UNL     1       3.065   3.535  16.986  0.00  0.00    +0.000 OA
ATOM     36  H   UNL     1       2.437   3.992  16.401  0.00  0.00    +0.000 HD
ENDBRANCH  26  35
ENDBRANCH  20  21
ENDBRANCH   4  20
TORSDOF 9
ENDMDL
MODEL 6
REMARK VINA RESULT:      -8.5      2.222     10.010
REMARK  Name = 
REMARK  9 active torsions:
REMARK  status: ('A' for Active; 'I' for Inactive)
REMARK    1  A    between atoms: C_4  and  C_5
REMARK    2  A    between atoms: C_8  and  O_9
REMARK    3  A    between atoms: O_9  and  C_10
REMARK    4  A    between atoms: C_12  and  C_13
REMARK    5  A    between atoms: C_13  and  O_15
REMARK    6  A    between atoms: C_16  and  O_17
REMARK    7  A    between atoms: C_18  and  O_19
REMARK    8  A    between atoms: C_20  and  O_21
REMARK    9  A    between atoms: C_27  and  O_28
REMARK                            x       y       z     vdW  Elec       q    Type
REMARK                         _______ _______ _______ _____ _____    ______ ____
ROOT
ATOM      1  C   UNL     1       1.540   8.586  19.482  0.00  0.00    +0.000 A 
ATOM      2  C   UNL     1       2.141   8.096  18.313  0.00  0.00    +0.000 A 
ATOM      3  C   UNL     1       2.683   6.803  18.264  0.00  0.00    +0.000 A 
ATOM      4  C   UNL     1       2.622   5.974  19.382  0.00  0.00    +0.000 A 
ATOM      5  C   UNL     1       2.032   6.454  20.552  0.00  0.00    +0.000 A 
ATOM      6  C   UNL     1       1.501   7.748  20.607  0.00  0.00    +0.000 A 
ENDROOT
BRANCH   1  10
ATOM      7  O   UNL     1      -1.340  11.932  17.543  0.00  0.00    +0.000 OA
ATOM      8  C   UNL     1      -0.860  11.390  18.534  0.00  0.00    +0.000 C 
ATOM      9  C   UNL     1      -0.261  10.014  18.495  0.00  0.00    +0.000 C 
ATOM     10  C   UNL     1       0.890   9.962  19.494  0.00  0.00    +0.000 C 
ATOM     11  O   UNL     1       0.438  10.251  20.829  0.00  0.00    +0.000 OA
ATOM     12  C   UNL     1      -0.282  11.411  20.935  0.00  0.00    +0.000 A 
ATOM     13  C   UNL     1      -0.396  11.951  22.218  0.00  0.00    +0.000 A 
ATOM     14  C   UNL     1      -1.125  13.124  22.403  0.00  0.00    +0.000 A 
ATOM     15  C   UNL     1      -1.742  13.760  21.331  0.00  0.00    +0.000 A 
ATOM     16  C   UNL     1      -1.643  13.215  20.051  0.00  0.00    +0.000 A 
ATOM     17  C   UNL     1      -0.918  12.033  19.860  0.00  0.00    +0.000 A 
BRANCH  14  18
ATOM     18  O   UNL     1      -1.264  13.684  23.637  0.00  0.00    +0.000 OA
ATOM     19  H   UNL     1      -1.509  14.619  23.537  0.00  0.00    +0.000 HD
ENDBRANCH  14  18
ENDBRANCH   1  10
BRANCH   4  20
ATOM     20  O   UNL     1       3.001   4.661  19.409  0.00  0.00    +0.000 OA
BRANCH  20  21
ATOM     21  C   UNL     1       4.260   4.313  18.817  0.00  0.00    +0.000 C 
ATOM     22  O   UNL     1       5.287   5.239  19.197  0.00  0.00    +0.000 OA
ATOM     23  C   UNL     1       6.571   4.897  18.636  0.00  0.00    +0.000 C 
ATOM     24  C   UNL     1       6.527   5.019  17.112  0.00  0.00    +0.000 C 
ATOM     25  C   UNL     1       5.404   4.118  16.566  0.00  0.00    +0.000 C 
ATOM     26  C   UNL     1       4.066   4.368  17.280  0.00  0.00    +0.000 C 
BRANCH  23  27
ATOM     27  C   UNL     1       7.601   5.850  19.248  0.00  0.00    +0.000 C 
ATOM     28  O   UNL     1       8.086   6.816  18.682  0.00  0.00    +0.000 OA
BRANCH  27  29
ATOM     29  O   UNL     1       7.978   5.472  20.497  0.00  0.00    +0.000 OA
ATOM     30  H   UNL     1       7.286   4.890  20.884  0.00  0.00    +0.000 HD
ENDBRANCH  27  29
ENDBRANCH  23  27
BRANCH  24  31
ATOM     31  O   UNL     1       7.769   4.664  16.505  0.00  0.00    +0.000 OA
ATOM     32  H   UNL     1       8.053   5.352  15.882  0.00  0.00    +0.000 HD
ENDBRANCH  24  31
BRANCH  25  33
ATOM     33  O   UNL     1       5.267   4.281  15.150  0.00  0.00    +0.000 OA
ATOM     34  H   UNL     1       5.436   3.427  14.715  0.00  0.00    +0.000 HD
ENDBRANCH  25  33
BRANCH  26  35
ATOM     35  O   UNL     1       3.076   3.428  16.836  0.00  0.00    +0.000 OA
ATOM     36  H   UNL     1       2.390   3.334  17.519  0.00  0.00    +0.000 HD
ENDBRANCH  26  35
ENDBRANCH  20  21
ENDBRANCH   4  20
TORSDOF 9
ENDMDL
MODEL 7
REMARK VINA RESULT:      -8.4      2.607      3.885
REMARK  Name = 
REMARK  9 active torsions:
REMARK  status: ('A' for Active; 'I' for Inactive)
REMARK    1  A    between atoms: C_4  and  C_5
REMARK    2  A    between atoms: C_8  and  O_9
REMARK    3  A    between atoms: O_9  and  C_10
REMARK    4  A    between atoms: C_12  and  C_13
REMARK    5  A    between atoms: C_13  and  O_15
REMARK    6  A    between atoms: C_16  and  O_17
REMARK    7  A    between atoms: C_18  and  O_19
REMARK    8  A    between atoms: C_20  and  O_21
REMARK    9  A    between atoms: C_27  and  O_28
REMARK                            x       y       z     vdW  Elec       q    Type
REMARK                         _______ _______ _______ _____ _____    ______ ____
ROOT
ATOM      1  C   UNL     1       2.185   7.809  18.764  0.00  0.00    +0.000 A 
ATOM      2  C   UNL     1       1.854   8.752  17.780  0.00  0.00    +0.000 A 
ATOM      3  C   UNL     1       1.134   9.913  18.101  0.00  0.00    +0.000 A 
ATOM      4  C   UNL     1       0.742  10.153  19.416  0.00  0.00    +0.000 A 
ATOM      5  C   UNL     1       1.061   9.217  20.401  0.00  0.00    +0.000 A 
ATOM      6  C   UNL     1       1.769   8.054  20.081  0.00  0.00    +0.000 A 
ENDROOT
BRANCH   1  10
ATOM      7  O   UNL     1       2.692   3.082  17.951  0.00  0.00    +0.000 OA
ATOM      8  C   UNL     1       3.019   4.242  17.713  0.00  0.00    +0.000 C 
ATOM      9  C   UNL     1       2.140   5.414  18.040  0.00  0.00    +0.000 C 
ATOM     10  C   UNL     1       3.033   6.595  18.410  0.00  0.00    +0.000 C 
ATOM     11  O   UNL     1       3.915   6.943  17.329  0.00  0.00    +0.000 OA
ATOM     12  C   UNL     1       4.637   5.889  16.837  0.00  0.00    +0.000 A 
ATOM     13  C   UNL     1       5.775   6.214  16.094  0.00  0.00    +0.000 A 
ATOM     14  C   UNL     1       6.550   5.191  15.551  0.00  0.00    +0.000 A 
ATOM     15  C   UNL     1       6.206   3.856  15.735  0.00  0.00    +0.000 A 
ATOM     16  C   UNL     1       5.062   3.529  16.464  0.00  0.00    +0.000 A 
ATOM     17  C   UNL     1       4.275   4.552  17.006  0.00  0.00    +0.000 A 
BRANCH  14  18
ATOM     18  O   UNL     1       7.667   5.462  14.818  0.00  0.00    +0.000 OA
ATOM     19  H   UNL     1       7.894   6.401  14.920  0.00  0.00    +0.000 HD
ENDBRANCH  14  18
ENDBRANCH   1  10
BRANCH   4  20
ATOM     20  O   UNL     1       0.152  11.301  19.864  0.00  0.00    +0.000 OA
BRANCH  20  21
ATOM     21  C   UNL     1       0.372  12.506  19.116  0.00  0.00    +0.000 C 
ATOM     22  O   UNL     1       1.696  13.013  19.329  0.00  0.00    +0.000 OA
ATOM     23  C   UNL     1       1.954  14.211  18.567  0.00  0.00    +0.000 C 
ATOM     24  C   UNL     1       1.054  15.347  19.055  0.00  0.00    +0.000 C 
ATOM     25  C   UNL     1      -0.418  14.906  18.949  0.00  0.00    +0.000 C 
ATOM     26  C   UNL     1      -0.662  13.545  19.621  0.00  0.00    +0.000 C 
BRANCH  23  27
ATOM     27  C   UNL     1       3.437  14.550  18.747  0.00  0.00    +0.000 C 
ATOM     28  O   UNL     1       3.882  15.336  19.567  0.00  0.00    +0.000 OA
BRANCH  27  29
ATOM     29  O   UNL     1       4.225  13.920  17.838  0.00  0.00    +0.000 OA
ATOM     30  H   UNL     1       5.090  13.702  18.254  0.00  0.00    +0.000 HD
ENDBRANCH  27  29
ENDBRANCH  23  27
BRANCH  24  31
ATOM     31  O   UNL     1       1.251  16.551  18.314  0.00  0.00    +0.000 OA
ATOM     32  H   UNL     1       0.426  17.059  18.262  0.00  0.00    +0.000 HD
ENDBRANCH  24  31
BRANCH  25  33
ATOM     33  O   UNL     1      -1.287  15.906  19.490  0.00  0.00    +0.000 OA
ATOM     34  H   UNL     1      -0.968  16.785  19.215  0.00  0.00    +0.000 HD
ENDBRANCH  25  33
BRANCH  26  35
ATOM     35  O   UNL     1      -2.009  13.106  19.395  0.00  0.00    +0.000 OA
ATOM     36  H   UNL     1      -2.054  12.613  18.558  0.00  0.00    +0.000 HD
ENDBRANCH  26  35
ENDBRANCH  20  21
ENDBRANCH   4  20
TORSDOF 9
ENDMDL
MODEL 8
REMARK VINA RESULT:      -8.4      3.182     10.318
REMARK  Name = 
REMARK  9 active torsions:
REMARK  status: ('A' for Active; 'I' for Inactive)
REMARK    1  A    between atoms: C_4  and  C_5
REMARK    2  A    between atoms: C_8  and  O_9
REMARK    3  A    between atoms: O_9  and  C_10
REMARK    4  A    between atoms: C_12  and  C_13
REMARK    5  A    between atoms: C_13  and  O_15
REMARK    6  A    between atoms: C_16  and  O_17
REMARK    7  A    between atoms: C_18  and  O_19
REMARK    8  A    between atoms: C_20  and  O_21
REMARK    9  A    between atoms: C_27  and  O_28
REMARK                            x       y       z     vdW  Elec       q    Type
REMARK                         _______ _______ _______ _____ _____    ______ ____
ROOT
ATOM      1  C   UNL     1       0.957  10.064  20.499  0.00  0.00    +0.000 A 
ATOM      2  C   UNL     1       1.297   8.810  21.029  0.00  0.00    +0.000 A 
ATOM      3  C   UNL     1       1.759   7.776  20.201  0.00  0.00    +0.000 A 
ATOM      4  C   UNL     1       1.898   7.983  18.830  0.00  0.00    +0.000 A 
ATOM      5  C   UNL     1       1.555   9.225  18.293  0.00  0.00    +0.000 A 
ATOM      6  C   UNL     1       1.084  10.254  19.116  0.00  0.00    +0.000 A 
ENDROOT
BRANCH   1  10
ATOM      7  O   UNL     1       0.891  14.723  21.744  0.00  0.00    +0.000 OA
ATOM      8  C   UNL     1       0.337  13.628  21.698  0.00  0.00    +0.000 C 
ATOM      9  C   UNL     1       0.759  12.546  20.747  0.00  0.00    +0.000 C 
ATOM     10  C   UNL     1       0.530  11.197  21.422  0.00  0.00    +0.000 C 
ATOM     11  O   UNL     1      -0.853  11.015  21.772  0.00  0.00    +0.000 OA
ATOM     12  C   UNL     1      -1.385  12.048  22.497  0.00  0.00    +0.000 A 
ATOM     13  C   UNL     1      -2.558  11.767  23.202  0.00  0.00    +0.000 A 
ATOM     14  C   UNL     1      -3.162  12.775  23.951  0.00  0.00    +0.000 A 
ATOM     15  C   UNL     1      -2.618  14.054  24.001  0.00  0.00    +0.000 A 
ATOM     16  C   UNL     1      -1.455  14.342  23.286  0.00  0.00    +0.000 A 
ATOM     17  C   UNL     1      -0.847  13.335  22.527  0.00  0.00    +0.000 A 
BRANCH  14  18
ATOM     18  O   UNL     1      -4.307  12.546  24.652  0.00  0.00    +0.000 OA
ATOM     19  H   UNL     1      -4.122  11.916  25.367  0.00  0.00    +0.000 HD
ENDBRANCH  14  18
ENDBRANCH   1  10
BRANCH   4  20
ATOM     20  O   UNL     1       2.454   7.095  17.953  0.00  0.00    +0.000 OA
BRANCH  20  21
ATOM     21  C   UNL     1       3.671   6.441  18.339  0.00  0.00    +0.000 C 
ATOM     22  O   UNL     1       4.764   6.840  17.501  0.00  0.00    +0.000 OA
ATOM     23  C   UNL     1       6.007   6.217  17.884  0.00  0.00    +0.000 C 
ATOM     24  C   UNL     1       5.924   4.705  17.667  0.00  0.00    +0.000 C 
ATOM     25  C   UNL     1       4.732   4.145  18.465  0.00  0.00    +0.000 C 
ATOM     26  C   UNL     1       3.434   4.917  18.180  0.00  0.00    +0.000 C 
BRANCH  23  27
ATOM     27  C   UNL     1       7.111   6.849  17.033  0.00  0.00    +0.000 C 
ATOM     28  O   UNL     1       7.572   7.966  17.198  0.00  0.00    +0.000 OA
BRANCH  27  29
ATOM     29  O   UNL     1       7.497   6.046  16.007  0.00  0.00    +0.000 OA
ATOM     30  H   UNL     1       8.432   6.245  15.773  0.00  0.00    +0.000 HD
ENDBRANCH  27  29
ENDBRANCH  23  27
BRANCH  24  31
ATOM     31  O   UNL     1       7.123   4.036  18.058  0.00  0.00    +0.000 OA
ATOM     32  H   UNL     1       7.005   3.073  18.016  0.00  0.00    +0.000 HD
ENDBRANCH  24  31
BRANCH  25  33
ATOM     33  O   UNL     1       4.562   2.747  18.208  0.00  0.00    +0.000 OA
ATOM     34  H   UNL     1       5.423   2.365  17.958  0.00  0.00    +0.000 HD
ENDBRANCH  25  33
BRANCH  26  35
ATOM     35  O   UNL     1       2.375   4.453  19.030  0.00  0.00    +0.000 OA
ATOM     36  H   UNL     1       2.036   3.606  18.694  0.00  0.00    +0.000 HD
ENDBRANCH  26  35
ENDBRANCH  20  21
ENDBRANCH   4  20
TORSDOF 9
ENDMDL
MODEL 9
REMARK VINA RESULT:      -8.4      2.382      3.840
REMARK  Name = 
REMARK  9 active torsions:
REMARK  status: ('A' for Active; 'I' for Inactive)
REMARK    1  A    between atoms: C_4  and  C_5
REMARK    2  A    between atoms: C_8  and  O_9
REMARK    3  A    between atoms: O_9  and  C_10
REMARK    4  A    between atoms: C_12  and  C_13
REMARK    5  A    between atoms: C_13  and  O_15
REMARK    6  A    between atoms: C_16  and  O_17
REMARK    7  A    between atoms: C_18  and  O_19
REMARK    8  A    between atoms: C_20  and  O_21
REMARK    9  A    between atoms: C_27  and  O_28
REMARK                            x       y       z     vdW  Elec       q    Type
REMARK                         _______ _______ _______ _____ _____    ______ ____
ROOT
ATOM      1  C   UNL     1       2.313   7.662  18.804  0.00  0.00    +0.000 A 
ATOM      2  C   UNL     1       1.865   7.790  20.127  0.00  0.00    +0.000 A 
ATOM      3  C   UNL     1       1.054   8.867  20.516  0.00  0.00    +0.000 A 
ATOM      4  C   UNL     1       0.671   9.829  19.584  0.00  0.00    +0.000 A 
ATOM      5  C   UNL     1       1.117   9.714  18.267  0.00  0.00    +0.000 A 
ATOM      6  C   UNL     1       1.935   8.647  17.879  0.00  0.00    +0.000 A 
ENDROOT
BRANCH   1  10
ATOM      7  O   UNL     1       2.700   2.969  17.761  0.00  0.00    +0.000 OA
ATOM      8  C   UNL     1       3.051   4.131  17.574  0.00  0.00    +0.000 C 
ATOM      9  C   UNL     1       2.204   5.307  17.967  0.00  0.00    +0.000 C 
ATOM     10  C   UNL     1       3.128   6.447  18.382  0.00  0.00    +0.000 C 
ATOM     11  O   UNL     1       4.006   6.827  17.308  0.00  0.00    +0.000 OA
ATOM     12  C   UNL     1       4.698   5.781  16.757  0.00  0.00    +0.000 A 
ATOM     13  C   UNL     1       5.835   6.115  16.017  0.00  0.00    +0.000 A 
ATOM     14  C   UNL     1       6.580   5.102  15.417  0.00  0.00    +0.000 A 
ATOM     15  C   UNL     1       6.206   3.768  15.542  0.00  0.00    +0.000 A 
ATOM     16  C   UNL     1       5.063   3.433  16.268  0.00  0.00    +0.000 A 
ATOM     17  C   UNL     1       4.307   4.446  16.867  0.00  0.00    +0.000 A 
BRANCH  14  18
ATOM     18  O   UNL     1       7.694   5.382  14.684  0.00  0.00    +0.000 OA
ATOM     19  H   UNL     1       8.363   4.697  14.848  0.00  0.00    +0.000 HD
ENDBRANCH  14  18
ENDBRANCH   1  10
BRANCH   4  20
ATOM     20  O   UNL     1      -0.213  10.844  19.819  0.00  0.00    +0.000 OA
BRANCH  20  21
ATOM     21  C   UNL     1       0.187  12.178  19.473  0.00  0.00    +0.000 C 
ATOM     22  O   UNL     1       1.290  12.615  20.278  0.00  0.00    +0.000 OA
ATOM     23  C   UNL     1       1.731  13.944  19.932  0.00  0.00    +0.000 C 
ATOM     24  C   UNL     1       0.632  14.960  20.250  0.00  0.00    +0.000 C 
ATOM     25  C   UNL     1      -0.652  14.567  19.495  0.00  0.00    +0.000 C 
ATOM     26  C   UNL     1      -1.034  13.097  19.734  0.00  0.00    +0.000 C 
BRANCH  23  27
ATOM     27  C   UNL     1       3.004  14.222  20.735  0.00  0.00    +0.000 C 
ATOM     28  O   UNL     1       3.377  13.579  21.704  0.00  0.00    +0.000 OA
BRANCH  27  29
ATOM     29  O   UNL     1       3.667  15.321  20.291  0.00  0.00    +0.000 OA
ATOM     30  H   UNL     1       4.305  15.055  19.591  0.00  0.00    +0.000 HD
ENDBRANCH  27  29
ENDBRANCH  23  27
BRANCH  24  31
ATOM     31  O   UNL     1       1.009  16.291  19.899  0.00  0.00    +0.000 OA
ATOM     32  H   UNL     1       0.267  16.903  20.037  0.00  0.00    +0.000 HD
ENDBRANCH  24  31
BRANCH  25  33
ATOM     33  O   UNL     1      -1.732  15.439  19.846  0.00  0.00    +0.000 OA
ATOM     34  H   UNL     1      -2.223  15.051  20.592  0.00  0.00    +0.000 HD
ENDBRANCH  25  33
BRANCH  26  35
ATOM     35  O   UNL     1      -2.158  12.730  18.921  0.00  0.00    +0.000 OA
ATOM     36  H   UNL     1      -2.206  11.762  18.852  0.00  0.00    +0.000 HD
ENDBRANCH  26  35
ENDBRANCH  20  21
ENDBRANCH   4  20
TORSDOF 9
ENDMDL
