MODEL 1
REMARK VINA RESULT:      -5.7      0.000      0.000
REMARK  Name = 
REMARK  1 active torsions:
REMARK  status: ('A' for Active; 'I' for Inactive)
REMARK    1  A    between atoms: O_1  and  C_2
REMARK                            x       y       z     vdW  Elec       q    Type
REMARK                         _______ _______ _______ _____ _____    ______ ____
ROOT
ATOM      1  C   UNL     1       6.226   4.482  14.554  0.00  0.00    +0.000 A 
ATOM      2  N   UNL     1       7.298   5.232  14.335  0.00  0.00    +0.000 NA
ATOM      3  N   UNL     1       7.592   5.676  15.578  0.00  0.00    +0.000 N 
ATOM      4  C   UNL     1       6.736   5.221  16.552  0.00  0.00    +0.000 A 
ATOM      5  C   UNL     1       6.686   5.437  17.930  0.00  0.00    +0.000 A 
ATOM      6 CL   UNL     1       7.840   6.432  18.719  0.00  0.00    +0.000 Cl
ATOM      7  C   UNL     1       5.662   4.813  18.650  0.00  0.00    +0.000 A 
ATOM      8  C   UNL     1       4.724   4.003  18.006  0.00  0.00    +0.000 A 
ATOM      9  C   UNL     1       4.785   3.796  16.621  0.00  0.00    +0.000 A 
ATOM     10  C   UNL     1       5.810   4.419  15.890  0.00  0.00    +0.000 A 
ATOM     11  H   UNL     1       8.392   6.287  15.702  0.00  0.00    +0.000 HD
ENDROOT
BRANCH   1  12
ATOM     12  O   UNL     1       5.707   3.903  13.474  0.00  0.00    +0.000 OA
ATOM     13  H   UNL     1       6.307   4.148  12.749  0.00  0.00    +0.000 HD
ENDBRANCH   1  12
TORSDOF 1
ENDMDL
MODEL 2
REMARK VINA RESULT:      -5.7      4.647      5.257
REMARK  Name = 
REMARK  1 active torsions:
REMARK  status: ('A' for Active; 'I' for Inactive)
REMARK    1  A    between atoms: O_1  and  C_2
REMARK                            x       y       z     vdW  Elec       q    Type
REMARK                         _______ _______ _______ _____ _____    ______ ____
ROOT
ATOM      1  C   UNL     1       4.598   2.777  19.715  0.00  0.00    +0.000 A 
ATOM      2  N   UNL     1       5.419   3.731  19.300  0.00  0.00    +0.000 NA
ATOM      3  N   UNL     1       4.628   4.827  19.351  0.00  0.00    +0.000 N 
ATOM      4  C   UNL     1       3.350   4.575  19.785  0.00  0.00    +0.000 A 
ATOM      5  C   UNL     1       2.245   5.406  19.977  0.00  0.00    +0.000 A 
ATOM      6 CL   UNL     1       2.330   7.090  19.659  0.00  0.00    +0.000 Cl
ATOM      7  C   UNL     1       1.062   4.820  20.438  0.00  0.00    +0.000 A 
ATOM      8  C   UNL     1       0.994   3.449  20.698  0.00  0.00    +0.000 A 
ATOM      9  C   UNL     1       2.111   2.626  20.499  0.00  0.00    +0.000 A 
ATOM     10  C   UNL     1       3.303   3.206  20.035  0.00  0.00    +0.000 A 
ATOM     11  H   UNL     1       5.017   5.723  19.078  0.00  0.00    +0.000 HD
ENDROOT
BRANCH   1  12
ATOM     12  O   UNL     1       5.124   1.556  19.765  0.00  0.00    +0.000 OA
ATOM     13  H   UNL     1       4.373   0.956  19.622  0.00  0.00    +0.000 HD
ENDBRANCH   1  12
TORSDOF 1
ENDMDL
MODEL 3
REMARK VINA RESULT:      -5.7      2.721      3.213
REMARK  Name = 
REMARK  1 active torsions:
REMARK  status: ('A' for Active; 'I' for Inactive)
REMARK    1  A    between atoms: O_1  and  C_2
REMARK                            x       y       z     vdW  Elec       q    Type
REMARK                         _______ _______ _______ _____ _____    ______ ____
ROOT
ATOM      1  C   UNL     1       6.996   5.793  17.052  0.00  0.00    +0.000 A 
ATOM      2  N   UNL     1       7.699   4.747  17.463  0.00  0.00    +0.000 NA
ATOM      3  N   UNL     1       6.790   4.064  18.195  0.00  0.00    +0.000 N 
ATOM      4  C   UNL     1       5.552   4.657  18.244  0.00  0.00    +0.000 A 
ATOM      5  C   UNL     1       4.363   4.290  18.876  0.00  0.00    +0.000 A 
ATOM      6 CL   UNL     1       4.254   2.853  19.806  0.00  0.00    +0.000 Cl
ATOM      7  C   UNL     1       3.259   5.135  18.725  0.00  0.00    +0.000 A 
ATOM      8  C   UNL     1       3.349   6.305  17.966  0.00  0.00    +0.000 A 
ATOM      9  C   UNL     1       4.550   6.662  17.339  0.00  0.00    +0.000 A 
ATOM     10  C   UNL     1       5.664   5.819  17.486  0.00  0.00    +0.000 A 
ATOM     11  H   UNL     1       7.072   3.196  18.637  0.00  0.00    +0.000 HD
ENDROOT
BRANCH   1  12
ATOM     12  O   UNL     1       7.658   6.660  16.290  0.00  0.00    +0.000 OA
ATOM     13  H   UNL     1       8.515   6.777  16.736  0.00  0.00    +0.000 HD
ENDBRANCH   1  12
TORSDOF 1
ENDMDL
MODEL 4
REMARK VINA RESULT:      -5.6      3.387      4.153
REMARK  Name = 
REMARK  1 active torsions:
REMARK  status: ('A' for Active; 'I' for Inactive)
REMARK    1  A    between atoms: O_1  and  C_2
REMARK                            x       y       z     vdW  Elec       q    Type
REMARK                         _______ _______ _______ _____ _____    ______ ____
ROOT
ATOM      1  C   UNL     1       7.433   5.917  18.797  0.00  0.00    +0.000 A 
ATOM      2  N   UNL     1       6.965   5.310  19.879  0.00  0.00    +0.000 NA
ATOM      3  N   UNL     1       6.010   4.505  19.362  0.00  0.00    +0.000 N 
ATOM      4  C   UNL     1       5.877   4.598  17.998  0.00  0.00    +0.000 A 
ATOM      5  C   UNL     1       5.029   3.956  17.094  0.00  0.00    +0.000 A 
ATOM      6 CL   UNL     1       3.875   2.801  17.619  0.00  0.00    +0.000 Cl
ATOM      7  C   UNL     1       5.152   4.286  15.741  0.00  0.00    +0.000 A 
ATOM      8  C   UNL     1       6.093   5.226  15.314  0.00  0.00    +0.000 A 
ATOM      9  C   UNL     1       6.937   5.864  16.233  0.00  0.00    +0.000 A 
ATOM     10  C   UNL     1       6.820   5.539  17.595  0.00  0.00    +0.000 A 
ATOM     11  H   UNL     1       5.479   3.911  19.991  0.00  0.00    +0.000 HD
ENDROOT
BRANCH   1  12
ATOM     12  O   UNL     1       8.411   6.792  19.013  0.00  0.00    +0.000 OA
ATOM     13  H   UNL     1       8.366   6.983  19.965  0.00  0.00    +0.000 HD
ENDBRANCH   1  12
TORSDOF 1
ENDMDL
MODEL 5
REMARK VINA RESULT:      -5.6      4.582      5.528
REMARK  Name = 
REMARK  1 active torsions:
REMARK  status: ('A' for Active; 'I' for Inactive)
REMARK    1  A    between atoms: O_1  and  C_2
REMARK                            x       y       z     vdW  Elec       q    Type
REMARK                         _______ _______ _______ _____ _____    ______ ____
ROOT
ATOM      1  C   UNL     1       3.487   2.494  20.825  0.00  0.00    +0.000 A 
ATOM      2  N   UNL     1       4.770   2.186  20.695  0.00  0.00    +0.000 NA
ATOM      3  N   UNL     1       5.028   2.578  19.427  0.00  0.00    +0.000 N 
ATOM      4  C   UNL     1       3.945   3.117  18.776  0.00  0.00    +0.000 A 
ATOM      5  C   UNL     1       3.788   3.631  17.488  0.00  0.00    +0.000 A 
ATOM      6 CL   UNL     1       5.096   3.674  16.379  0.00  0.00    +0.000 Cl
ATOM      7  C   UNL     1       2.525   4.112  17.129  0.00  0.00    +0.000 A 
ATOM      8  C   UNL     1       1.460   4.077  18.034  0.00  0.00    +0.000 A 
ATOM      9  C   UNL     1       1.633   3.558  19.324  0.00  0.00    +0.000 A 
ATOM     10  C   UNL     1       2.898   3.071  19.692  0.00  0.00    +0.000 A 
ATOM     11  H   UNL     1       5.965   2.454  19.059  0.00  0.00    +0.000 HD
ENDROOT
BRANCH   1  12
ATOM     12  O   UNL     1       2.951   2.209  22.009  0.00  0.00    +0.000 OA
ATOM     13  H   UNL     1       2.163   2.776  22.067  0.00  0.00    +0.000 HD
ENDBRANCH   1  12
TORSDOF 1
ENDMDL
MODEL 6
REMARK VINA RESULT:      -5.6      3.924      4.452
REMARK  Name = 
REMARK  1 active torsions:
REMARK  status: ('A' for Active; 'I' for Inactive)
REMARK    1  A    between atoms: O_1  and  C_2
REMARK                            x       y       z     vdW  Elec       q    Type
REMARK                         _______ _______ _______ _____ _____    ______ ____
ROOT
ATOM      1  C   UNL     1       2.909   2.221  18.797  0.00  0.00    +0.000 A 
ATOM      2  N   UNL     1       4.008   1.646  19.265  0.00  0.00    +0.000 NA
ATOM      3  N   UNL     1       4.867   2.687  19.331  0.00  0.00    +0.000 N 
ATOM      4  C   UNL     1       4.329   3.883  18.921  0.00  0.00    +0.000 A 
ATOM      5  C   UNL     1       4.864   5.170  18.835  0.00  0.00    +0.000 A 
ATOM      6 CL   UNL     1       6.486   5.493  19.289  0.00  0.00    +0.000 Cl
ATOM      7  C   UNL     1       4.032   6.190  18.364  0.00  0.00    +0.000 A 
ATOM      8  C   UNL     1       2.710   5.925  17.995  0.00  0.00    +0.000 A 
ATOM      9  C   UNL     1       2.187   4.628  18.086  0.00  0.00    +0.000 A 
ATOM     10  C   UNL     1       3.017   3.597  18.557  0.00  0.00    +0.000 A 
ATOM     11  H   UNL     1       5.810   2.522  19.667  0.00  0.00    +0.000 HD
ENDROOT
BRANCH   1  12
ATOM     12  O   UNL     1       1.870   1.408  18.626  0.00  0.00    +0.000 OA
ATOM     13  H   UNL     1       1.189   1.961  18.207  0.00  0.00    +0.000 HD
ENDBRANCH   1  12
TORSDOF 1
ENDMDL
MODEL 7
REMARK VINA RESULT:      -5.5      3.106      3.839
REMARK  Name = 
REMARK  1 active torsions:
REMARK  status: ('A' for Active; 'I' for Inactive)
REMARK    1  A    between atoms: O_1  and  C_2
REMARK                            x       y       z     vdW  Elec       q    Type
REMARK                         _______ _______ _______ _____ _____    ______ ____
ROOT
ATOM      1  C   UNL     1       7.281   5.250  18.768  0.00  0.00    +0.000 A 
ATOM      2  N   UNL     1       8.195   4.390  18.342  0.00  0.00    +0.000 NA
ATOM      3  N   UNL     1       7.898   4.289  17.027  0.00  0.00    +0.000 N 
ATOM      4  C   UNL     1       6.831   5.060  16.633  0.00  0.00    +0.000 A 
ATOM      5  C   UNL     1       6.213   5.241  15.394  0.00  0.00    +0.000 A 
ATOM      6 CL   UNL     1       6.767   4.420  13.993  0.00  0.00    +0.000 Cl
ATOM      7  C   UNL     1       5.125   6.116  15.332  0.00  0.00    +0.000 A 
ATOM      8  C   UNL     1       4.675   6.784  16.474  0.00  0.00    +0.000 A 
ATOM      9  C   UNL     1       5.305   6.592  17.711  0.00  0.00    +0.000 A 
ATOM     10  C   UNL     1       6.399   5.714  17.783  0.00  0.00    +0.000 A 
ATOM     11  H   UNL     1       8.460   3.677  16.445  0.00  0.00    +0.000 HD
ENDROOT
BRANCH   1  12
ATOM     12  O   UNL     1       7.336   5.543  20.065  0.00  0.00    +0.000 OA
ATOM     13  H   UNL     1       7.045   4.732  20.514  0.00  0.00    +0.000 HD
ENDBRANCH   1  12
TORSDOF 1
ENDMDL
MODEL 8
REMARK VINA RESULT:      -5.5      2.960      3.348
REMARK  Name = 
REMARK  1 active torsions:
REMARK  status: ('A' for Active; 'I' for Inactive)
REMARK    1  A    between atoms: O_1  and  C_2
REMARK                            x       y       z     vdW  Elec       q    Type
REMARK                         _______ _______ _______ _____ _____    ______ ____
ROOT
ATOM      1  C   UNL     1       6.479   5.334  16.277  0.00  0.00    +0.000 A 
ATOM      2  N   UNL     1       6.700   4.072  15.937  0.00  0.00    +0.000 NA
ATOM      3  N   UNL     1       5.560   3.466  16.339  0.00  0.00    +0.000 N 
ATOM      4  C   UNL     1       4.647   4.317  16.914  0.00  0.00    +0.000 A 
ATOM      5  C   UNL     1       3.376   4.102  17.450  0.00  0.00    +0.000 A 
ATOM      6 CL   UNL     1       2.670   2.539  17.473  0.00  0.00    +0.000 Cl
ATOM      7  C   UNL     1       2.694   5.207  17.969  0.00  0.00    +0.000 A 
ATOM      8  C   UNL     1       3.270   6.480  17.949  0.00  0.00    +0.000 A 
ATOM      9  C   UNL     1       4.548   6.680  17.408  0.00  0.00    +0.000 A 
ATOM     10  C   UNL     1       5.240   5.576  16.885  0.00  0.00    +0.000 A 
ATOM     11  H   UNL     1       5.460   2.468  16.193  0.00  0.00    +0.000 HD
ENDROOT
BRANCH   1  12
ATOM     12  O   UNL     1       7.465   6.181  15.992  0.00  0.00    +0.000 OA
ATOM     13  H   UNL     1       8.242   5.820  16.451  0.00  0.00    +0.000 HD
ENDBRANCH   1  12
TORSDOF 1
ENDMDL
MODEL 9
REMARK VINA RESULT:      -5.5      2.468      2.762
REMARK  Name = 
REMARK  1 active torsions:
REMARK  status: ('A' for Active; 'I' for Inactive)
REMARK    1  A    between atoms: O_1  and  C_2
REMARK                            x       y       z     vdW  Elec       q    Type
REMARK                         _______ _______ _______ _____ _____    ______ ____
ROOT
ATOM      1  C   UNL     1       6.956   5.261  16.663  0.00  0.00    +0.000 A 
ATOM      2  N   UNL     1       7.274   6.545  16.585  0.00  0.00    +0.000 NA
ATOM      3  N   UNL     1       6.111   7.146  16.923  0.00  0.00    +0.000 N 
ATOM      4  C   UNL     1       5.090   6.272  17.206  0.00  0.00    +0.000 A 
ATOM      5  C   UNL     1       3.762   6.473  17.586  0.00  0.00    +0.000 A 
ATOM      6 CL   UNL     1       3.122   8.052  17.784  0.00  0.00    +0.000 Cl
ATOM      7  C   UNL     1       2.968   5.343  17.802  0.00  0.00    +0.000 A 
ATOM      8  C   UNL     1       3.492   4.057  17.641  0.00  0.00    +0.000 A 
ATOM      9  C   UNL     1       4.826   3.870  17.258  0.00  0.00    +0.000 A 
ATOM     10  C   UNL     1       5.631   5.000  17.039  0.00  0.00    +0.000 A 
ATOM     11  H   UNL     1       6.073   8.160  16.944  0.00  0.00    +0.000 HD
ENDROOT
BRANCH   1  12
ATOM     12  O   UNL     1       7.939   4.412  16.374  0.00  0.00    +0.000 OA
ATOM     13  H   UNL     1       8.304   4.734  15.533  0.00  0.00    +0.000 HD
ENDBRANCH   1  12
TORSDOF 1
ENDMDL
