MODEL 1
REMARK VINA RESULT:      -8.2      0.000      0.000
REMARK  Name = 
REMARK  3 active torsions:
REMARK  status: ('A' for Active; 'I' for Inactive)
REMARK    1  A    between atoms: N_1  and  C_2
REMARK    2  A    between atoms: N_9  and  C_10
REMARK    3  A    between atoms: C_10  and  C_11
REMARK                            x       y       z     vdW  Elec       q    Type
REMARK                         _______ _______ _______ _____ _____    ______ ____
ROOT
ATOM      1  C   UNL     1       7.599   6.080  18.950  0.00  0.00    +0.000 A 
ATOM      2  C   UNL     1       8.226   7.304  18.737  0.00  0.00    +0.000 A 
ATOM      3  C   UNL     1       7.843   8.085  17.664  0.00  0.00    +0.000 A 
ATOM      4  N   UNL     1       6.934   7.697  16.749  0.00  0.00    +0.000 NA
ATOM      5  C   UNL     1       6.365   6.479  16.923  0.00  0.00    +0.000 A 
ATOM      6  C   UNL     1       6.637   5.651  18.022  0.00  0.00    +0.000 A 
ATOM      7  C   UNL     1       5.931   4.319  18.155  0.00  0.00    +0.000 C 
ATOM      8  N   UNL     1       4.695   4.233  17.352  0.00  0.00    +0.000 NA
ATOM      9  C   UNL     1       5.033   4.572  15.955  0.00  0.00    +0.000 C 
ATOM     10  C   UNL     1       5.394   6.051  15.856  0.00  0.00    +0.000 C 
ENDROOT
BRANCH   1  11
ATOM     11  N   UNL     1       8.121   5.220  19.931  0.00  0.00    +0.000 N 
ATOM     12  H   UNL     1       9.015   5.519  20.309  0.00  0.00    +0.000 HD
ATOM     13  H   UNL     1       7.474   4.952  20.664  0.00  0.00    +0.000 HD
ENDBRANCH   1  11
BRANCH   8  14
ATOM     14  C   UNL     1       4.082   2.900  17.403  0.00  0.00    +0.000 C 
BRANCH  14  15
ATOM     15  C   UNL     1       2.549   2.900  17.528  0.00  0.00    +0.000 C 
ATOM     16  C   UNL     1       1.736   2.204  18.691  0.00  0.00    +0.000 C 
ATOM     17  C   UNL     1       1.852   3.502  19.440  0.00  0.00    +0.000 C 
ATOM     18  C   UNL     1       0.800   4.096  20.352  0.00  0.00    +0.000 C 
ATOM     19  C   UNL     1       2.002   4.689  21.152  0.00  0.00    +0.000 C 
ATOM     20  C   UNL     1       2.847   3.530  20.585  0.00  0.00    +0.000 C 
ATOM     21  C   UNL     1       2.089   4.255  18.146  0.00  0.00    +0.000 C 
ENDBRANCH  14  15
ENDBRANCH   8  14
TORSDOF 3
ENDMDL
MODEL 2
REMARK VINA RESULT:      -7.4      2.440      3.810
REMARK  Name = 
REMARK  3 active torsions:
REMARK  status: ('A' for Active; 'I' for Inactive)
REMARK    1  A    between atoms: N_1  and  C_2
REMARK    2  A    between atoms: N_9  and  C_10
REMARK    3  A    between atoms: C_10  and  C_11
REMARK                            x       y       z     vdW  Elec       q    Type
REMARK                         _______ _______ _______ _____ _____    ______ ____
ROOT
ATOM      1  C   UNL     1       6.145   3.822  12.878  0.00  0.00    +0.000 A 
ATOM      2  C   UNL     1       7.154   4.381  12.102  0.00  0.00    +0.000 A 
ATOM      3  C   UNL     1       8.096   5.197  12.698  0.00  0.00    +0.000 A 
ATOM      4  N   UNL     1       8.056   5.554  13.996  0.00  0.00    +0.000 NA
ATOM      5  C   UNL     1       7.038   5.056  14.741  0.00  0.00    +0.000 A 
ATOM      6  C   UNL     1       6.081   4.162  14.239  0.00  0.00    +0.000 A 
ATOM      7  C   UNL     1       4.997   3.629  15.150  0.00  0.00    +0.000 C 
ATOM      8  N   UNL     1       5.328   3.753  16.583  0.00  0.00    +0.000 NA
ATOM      9  C   UNL     1       5.670   5.164  16.854  0.00  0.00    +0.000 C 
ATOM     10  C   UNL     1       6.990   5.515  16.173  0.00  0.00    +0.000 C 
ENDROOT
BRANCH   1  11
ATOM     11  N   UNL     1       5.095   3.147  12.232  0.00  0.00    +0.000 N 
ATOM     12  H   UNL     1       4.193   3.604  12.323  0.00  0.00    +0.000 HD
ATOM     13  H   UNL     1       5.281   2.870  11.274  0.00  0.00    +0.000 HD
ENDBRANCH   1  11
BRANCH   8  14
ATOM     14  C   UNL     1       4.224   3.337  17.456  0.00  0.00    +0.000 C 
BRANCH  14  15
ATOM     15  C   UNL     1       3.245   4.461  17.839  0.00  0.00    +0.000 C 
ATOM     16  C   UNL     1       1.673   4.310  17.901  0.00  0.00    +0.000 C 
ATOM     17  C   UNL     1       1.850   3.899  19.336  0.00  0.00    +0.000 C 
ATOM     18  C   UNL     1       0.908   4.228  20.475  0.00  0.00    +0.000 C 
ATOM     19  C   UNL     1       1.355   2.860  21.080  0.00  0.00    +0.000 C 
ATOM     20  C   UNL     1       1.683   2.422  19.638  0.00  0.00    +0.000 C 
ATOM     21  C   UNL     1       3.200   4.587  19.392  0.00  0.00    +0.000 C 
ENDBRANCH  14  15
ENDBRANCH   8  14
TORSDOF 3
ENDMDL
MODEL 3
REMARK VINA RESULT:      -7.3      0.710      1.205
REMARK  Name = 
REMARK  3 active torsions:
REMARK  status: ('A' for Active; 'I' for Inactive)
REMARK    1  A    between atoms: N_1  and  C_2
REMARK    2  A    between atoms: N_9  and  C_10
REMARK    3  A    between atoms: C_10  and  C_11
REMARK                            x       y       z     vdW  Elec       q    Type
REMARK                         _______ _______ _______ _____ _____    ______ ____
ROOT
ATOM      1  C   UNL     1       7.679   6.095  18.908  0.00  0.00    +0.000 A 
ATOM      2  C   UNL     1       8.282   7.334  18.716  0.00  0.00    +0.000 A 
ATOM      3  C   UNL     1       7.827   8.161  17.708  0.00  0.00    +0.000 A 
ATOM      4  N   UNL     1       6.865   7.809  16.834  0.00  0.00    +0.000 NA
ATOM      5  C   UNL     1       6.317   6.577  16.985  0.00  0.00    +0.000 A 
ATOM      6  C   UNL     1       6.664   5.701  18.022  0.00  0.00    +0.000 A 
ATOM      7  C   UNL     1       5.977   4.357  18.135  0.00  0.00    +0.000 C 
ATOM      8  N   UNL     1       4.694   4.296  17.407  0.00  0.00    +0.000 NA
ATOM      9  C   UNL     1       4.941   4.705  16.010  0.00  0.00    +0.000 C 
ATOM     10  C   UNL     1       5.284   6.192  15.960  0.00  0.00    +0.000 C 
ENDROOT
BRANCH   1  11
ATOM     11  N   UNL     1       8.268   5.193  19.811  0.00  0.00    +0.000 N 
ATOM     12  H   UNL     1       7.990   5.336  20.778  0.00  0.00    +0.000 HD
ATOM     13  H   UNL     1       8.217   4.216  19.546  0.00  0.00    +0.000 HD
ENDBRANCH   1  11
BRANCH   8  14
ATOM     14  C   UNL     1       4.095   2.956  17.431  0.00  0.00    +0.000 C 
BRANCH  14  15
ATOM     15  C   UNL     1       4.015   2.310  18.825  0.00  0.00    +0.000 C 
ATOM     16  C   UNL     1       4.058   3.100  20.193  0.00  0.00    +0.000 C 
ATOM     17  C   UNL     1       2.561   3.198  20.091  0.00  0.00    +0.000 C 
ATOM     18  C   UNL     1       1.589   3.146  21.250  0.00  0.00    +0.000 C 
ATOM     19  C   UNL     1       0.701   4.100  20.391  0.00  0.00    +0.000 C 
ATOM     20  C   UNL     1       2.002   4.552  19.695  0.00  0.00    +0.000 C 
ATOM     21  C   UNL     1       2.523   2.005  19.158  0.00  0.00    +0.000 C 
ENDBRANCH  14  15
ENDBRANCH   8  14
TORSDOF 3
ENDMDL
MODEL 4
REMARK VINA RESULT:      -6.9      2.461      3.955
REMARK  Name = 
REMARK  3 active torsions:
REMARK  status: ('A' for Active; 'I' for Inactive)
REMARK    1  A    between atoms: N_1  and  C_2
REMARK    2  A    between atoms: N_9  and  C_10
REMARK    3  A    between atoms: C_10  and  C_11
REMARK                            x       y       z     vdW  Elec       q    Type
REMARK                         _______ _______ _______ _____ _____    ______ ____
ROOT
ATOM      1  C   UNL     1       6.100   3.824  12.937  0.00  0.00    +0.000 A 
ATOM      2  C   UNL     1       7.100   4.335  12.115  0.00  0.00    +0.000 A 
ATOM      3  C   UNL     1       8.073   5.152  12.658  0.00  0.00    +0.000 A 
ATOM      4  N   UNL     1       8.074   5.555  13.944  0.00  0.00    +0.000 NA
ATOM      5  C   UNL     1       7.066   5.104  14.731  0.00  0.00    +0.000 A 
ATOM      6  C   UNL     1       6.079   4.213  14.285  0.00  0.00    +0.000 A 
ATOM      7  C   UNL     1       5.009   3.734  15.242  0.00  0.00    +0.000 C 
ATOM      8  N   UNL     1       5.379   3.901  16.661  0.00  0.00    +0.000 NA
ATOM      9  C   UNL     1       5.755   5.313  16.873  0.00  0.00    +0.000 C 
ATOM     10  C   UNL     1       7.064   5.613  16.147  0.00  0.00    +0.000 C 
ENDROOT
BRANCH   1  11
ATOM     11  N   UNL     1       5.021   3.149  12.341  0.00  0.00    +0.000 N 
ATOM     12  H   UNL     1       4.115   3.405  12.719  0.00  0.00    +0.000 HD
ATOM     13  H   UNL     1       5.018   3.145  11.327  0.00  0.00    +0.000 HD
ENDBRANCH   1  11
BRANCH   8  14
ATOM     14  C   UNL     1       4.289   3.538  17.575  0.00  0.00    +0.000 C 
BRANCH  14  15
ATOM     15  C   UNL     1       4.524   3.927  19.045  0.00  0.00    +0.000 C 
ATOM     16  C   UNL     1       3.650   4.962  19.859  0.00  0.00    +0.000 C 
ATOM     17  C   UNL     1       2.780   3.799  20.247  0.00  0.00    +0.000 C 
ATOM     18  C   UNL     1       2.087   3.617  21.581  0.00  0.00    +0.000 C 
ATOM     19  C   UNL     1       0.980   2.877  20.768  0.00  0.00    +0.000 C 
ATOM     20  C   UNL     1       1.437   3.701  19.548  0.00  0.00    +0.000 C 
ATOM     21  C   UNL     1       3.909   2.829  19.965  0.00  0.00    +0.000 C 
ENDBRANCH  14  15
ENDBRANCH   8  14
TORSDOF 3
ENDMDL
MODEL 5
REMARK VINA RESULT:      -6.8      3.565      6.396
REMARK  Name = 
REMARK  3 active torsions:
REMARK  status: ('A' for Active; 'I' for Inactive)
REMARK    1  A    between atoms: N_1  and  C_2
REMARK    2  A    between atoms: N_9  and  C_10
REMARK    3  A    between atoms: C_10  and  C_11
REMARK                            x       y       z     vdW  Elec       q    Type
REMARK                         _______ _______ _______ _____ _____    ______ ____
ROOT
ATOM      1  C   UNL     1       1.455   9.520  18.936  0.00  0.00    +0.000 A 
ATOM      2  C   UNL     1       0.685  10.115  19.929  0.00  0.00    +0.000 A 
ATOM      3  C   UNL     1       0.451   9.433  21.108  0.00  0.00    +0.000 A 
ATOM      4  N   UNL     1       0.868   8.172  21.332  0.00  0.00    +0.000 NA
ATOM      5  C   UNL     1       1.570   7.569  20.340  0.00  0.00    +0.000 A 
ATOM      6  C   UNL     1       1.917   8.210  19.142  0.00  0.00    +0.000 A 
ATOM      7  C   UNL     1       2.731   7.472  18.101  0.00  0.00    +0.000 C 
ATOM      8  N   UNL     1       3.458   6.310  18.648  0.00  0.00    +0.000 NA
ATOM      9  C   UNL     1       2.483   5.445  19.341  0.00  0.00    +0.000 C 
ATOM     10  C   UNL     1       1.974   6.144  20.599  0.00  0.00    +0.000 C 
ENDROOT
BRANCH   1  11
ATOM     11  N   UNL     1       1.530  10.145  17.679  0.00  0.00    +0.000 N 
ATOM     12  H   UNL     1       2.477  10.354  17.379  0.00  0.00    +0.000 HD
ATOM     13  H   UNL     1       0.991   9.705  16.942  0.00  0.00    +0.000 HD
ENDBRANCH   1  11
BRANCH   8  14
ATOM     14  C   UNL     1       4.152   5.539  17.609  0.00  0.00    +0.000 C 
BRANCH  14  15
ATOM     15  C   UNL     1       5.383   6.235  17.003  0.00  0.00    +0.000 C 
ATOM     16  C   UNL     1       6.793   5.554  16.790  0.00  0.00    +0.000 C 
ATOM     17  C   UNL     1       6.296   5.133  15.435  0.00  0.00    +0.000 C 
ATOM     18  C   UNL     1       7.128   5.046  14.173  0.00  0.00    +0.000 C 
ATOM     19  C   UNL     1       6.177   3.875  13.772  0.00  0.00    +0.000 C 
ATOM     20  C   UNL     1       5.924   3.671  15.281  0.00  0.00    +0.000 C 
ATOM     21  C   UNL     1       5.254   6.234  15.450  0.00  0.00    +0.000 C 
ENDBRANCH  14  15
ENDBRANCH   8  14
TORSDOF 3
ENDMDL
MODEL 6
REMARK VINA RESULT:      -6.7      0.972      1.175
REMARK  Name = 
REMARK  3 active torsions:
REMARK  status: ('A' for Active; 'I' for Inactive)
REMARK    1  A    between atoms: N_1  and  C_2
REMARK    2  A    between atoms: N_9  and  C_10
REMARK    3  A    between atoms: C_10  and  C_11
REMARK                            x       y       z     vdW  Elec       q    Type
REMARK                         _______ _______ _______ _____ _____    ______ ____
ROOT
ATOM      1  C   UNL     1       7.607   6.026  18.964  0.00  0.00    +0.000 A 
ATOM      2  C   UNL     1       8.203   7.228  18.595  0.00  0.00    +0.000 A 
ATOM      3  C   UNL     1       7.699   7.934  17.519  0.00  0.00    +0.000 A 
ATOM      4  N   UNL     1       6.693   7.488  16.743  0.00  0.00    +0.000 NA
ATOM      5  C   UNL     1       6.149   6.288  17.067  0.00  0.00    +0.000 A 
ATOM      6  C   UNL     1       6.546   5.538  18.184  0.00  0.00    +0.000 A 
ATOM      7  C   UNL     1       5.862   4.224  18.490  0.00  0.00    +0.000 C 
ATOM      8  N   UNL     1       4.544   4.089  17.841  0.00  0.00    +0.000 NA
ATOM      9  C   UNL     1       4.720   4.326  16.394  0.00  0.00    +0.000 C 
ATOM     10  C   UNL     1       5.064   5.793  16.150  0.00  0.00    +0.000 C 
ENDROOT
BRANCH   1  11
ATOM     11  N   UNL     1       8.239   5.234  19.937  0.00  0.00    +0.000 N 
ATOM     12  H   UNL     1       7.647   5.001  20.728  0.00  0.00    +0.000 HD
ATOM     13  H   UNL     1       8.730   4.420  19.583  0.00  0.00    +0.000 HD
ENDBRANCH   1  11
BRANCH   8  14
ATOM     14  C   UNL     1       3.943   2.766  18.055  0.00  0.00    +0.000 C 
BRANCH  14  15
ATOM     15  C   UNL     1       2.739   2.752  19.013  0.00  0.00    +0.000 C 
ATOM     16  C   UNL     1       2.749   3.321  20.487  0.00  0.00    +0.000 C 
ATOM     17  C   UNL     1       2.333   4.639  19.896  0.00  0.00    +0.000 C 
ATOM     18  C   UNL     1       1.394   5.640  20.534  0.00  0.00    +0.000 C 
ATOM     19  C   UNL     1       2.244   6.724  19.799  0.00  0.00    +0.000 C 
ATOM     20  C   UNL     1       3.406   5.709  19.817  0.00  0.00    +0.000 C 
ATOM     21  C   UNL     1       1.796   3.942  18.661  0.00  0.00    +0.000 C 
ENDBRANCH  14  15
ENDBRANCH   8  14
TORSDOF 3
ENDMDL
MODEL 7
REMARK VINA RESULT:      -6.6      4.848      6.385
REMARK  Name = 
REMARK  3 active torsions:
REMARK  status: ('A' for Active; 'I' for Inactive)
REMARK    1  A    between atoms: N_1  and  C_2
REMARK    2  A    between atoms: N_9  and  C_10
REMARK    3  A    between atoms: C_10  and  C_11
REMARK                            x       y       z     vdW  Elec       q    Type
REMARK                         _______ _______ _______ _____ _____    ______ ____
ROOT
ATOM      1  C   UNL     1      -0.047   9.953  21.837  0.00  0.00    +0.000 A 
ATOM      2  C   UNL     1      -0.849  11.078  21.676  0.00  0.00    +0.000 A 
ATOM      3  C   UNL     1      -1.050  11.593  20.410  0.00  0.00    +0.000 A 
ATOM      4  N   UNL     1      -0.447  11.111  19.307  0.00  0.00    +0.000 NA
ATOM      5  C   UNL     1       0.382  10.050  19.471  0.00  0.00    +0.000 A 
ATOM      6  C   UNL     1       0.587   9.416  20.705  0.00  0.00    +0.000 A 
ATOM      7  C   UNL     1       1.505   8.216  20.793  0.00  0.00    +0.000 C 
ATOM      8  N   UNL     1       1.733   7.562  19.490  0.00  0.00    +0.000 NA
ATOM      9  C   UNL     1       2.210   8.587  18.540  0.00  0.00    +0.000 C 
ATOM     10  C   UNL     1       1.082   9.568  18.230  0.00  0.00    +0.000 C 
ENDROOT
BRANCH   1  11
ATOM     11  N   UNL     1       0.295   9.552  23.140  0.00  0.00    +0.000 N 
ATOM     12  H   UNL     1      -0.004   8.610  23.374  0.00  0.00    +0.000 HD
ATOM     13  H   UNL     1       1.258   9.718  23.408  0.00  0.00    +0.000 HD
ENDBRANCH   1  11
BRANCH   8  14
ATOM     14  C   UNL     1       2.711   6.470  19.570  0.00  0.00    +0.000 C 
BRANCH  14  15
ATOM     15  C   UNL     1       2.284   5.284  20.451  0.00  0.00    +0.000 C 
ATOM     16  C   UNL     1       1.010   4.383  20.199  0.00  0.00    +0.000 C 
ATOM     17  C   UNL     1       1.896   3.508  19.355  0.00  0.00    +0.000 C 
ATOM     18  C   UNL     1       1.805   2.001  19.243  0.00  0.00    +0.000 C 
ATOM     19  C   UNL     1       2.314   2.201  17.781  0.00  0.00    +0.000 C 
ATOM     20  C   UNL     1       1.717   3.621  17.853  0.00  0.00    +0.000 C 
ATOM     21  C   UNL     1       3.129   4.033  20.063  0.00  0.00    +0.000 C 
ENDBRANCH  14  15
ENDBRANCH   8  14
TORSDOF 3
ENDMDL
MODEL 8
REMARK VINA RESULT:      -6.6      4.450      5.678
REMARK  Name = 
REMARK  3 active torsions:
REMARK  status: ('A' for Active; 'I' for Inactive)
REMARK    1  A    between atoms: N_1  and  C_2
REMARK    2  A    between atoms: N_9  and  C_10
REMARK    3  A    between atoms: C_10  and  C_11
REMARK                            x       y       z     vdW  Elec       q    Type
REMARK                         _______ _______ _______ _____ _____    ______ ____
ROOT
ATOM      1  C   UNL     1       0.533   9.424  21.310  0.00  0.00    +0.000 A 
ATOM      2  C   UNL     1      -0.392  10.462  21.265  0.00  0.00    +0.000 A 
ATOM      3  C   UNL     1      -0.757  10.994  20.043  0.00  0.00    +0.000 A 
ATOM      4  N   UNL     1      -0.209  10.614  18.873  0.00  0.00    +0.000 NA
ATOM      5  C   UNL     1       0.736   9.642  18.922  0.00  0.00    +0.000 A 
ATOM      6  C   UNL     1       1.115   8.994  20.107  0.00  0.00    +0.000 A 
ATOM      7  C   UNL     1       2.155   7.896  20.065  0.00  0.00    +0.000 C 
ATOM      8  N   UNL     1       2.332   7.313  18.721  0.00  0.00    +0.000 NA
ATOM      9  C   UNL     1       2.614   8.413  17.778  0.00  0.00    +0.000 C 
ATOM     10  C   UNL     1       1.368   9.278  17.606  0.00  0.00    +0.000 C 
ENDROOT
BRANCH   1  11
ATOM     11  N   UNL     1       1.029   9.020  22.561  0.00  0.00    +0.000 N 
ATOM     12  H   UNL     1       1.085   9.769  23.245  0.00  0.00    +0.000 HD
ATOM     13  H   UNL     1       0.601   8.188  22.951  0.00  0.00    +0.000 HD
ENDBRANCH   1  11
BRANCH   8  14
ATOM     14  C   UNL     1       3.421   6.329  18.672  0.00  0.00    +0.000 C 
BRANCH  14  15
ATOM     15  C   UNL     1       3.151   5.113  17.769  0.00  0.00    +0.000 C 
ATOM     16  C   UNL     1       3.465   3.613  18.154  0.00  0.00    +0.000 C 
ATOM     17  C   UNL     1       2.080   3.557  18.736  0.00  0.00    +0.000 C 
ATOM     18  C   UNL     1       1.156   2.358  18.713  0.00  0.00    +0.000 C 
ATOM     19  C   UNL     1       0.616   2.900  20.073  0.00  0.00    +0.000 C 
ATOM     20  C   UNL     1       1.985   3.590  20.249  0.00  0.00    +0.000 C 
ATOM     21  C   UNL     1       1.645   4.726  17.874  0.00  0.00    +0.000 C 
ENDBRANCH  14  15
ENDBRANCH   8  14
TORSDOF 3
ENDMDL
MODEL 9
REMARK VINA RESULT:      -6.5      1.919      5.599
REMARK  Name = 
REMARK  3 active torsions:
REMARK  status: ('A' for Active; 'I' for Inactive)
REMARK    1  A    between atoms: N_1  and  C_2
REMARK    2  A    between atoms: N_9  and  C_10
REMARK    3  A    between atoms: C_10  and  C_11
REMARK                            x       y       z     vdW  Elec       q    Type
REMARK                         _______ _______ _______ _____ _____    ______ ____
ROOT
ATOM      1  C   UNL     1       3.519   2.458  20.610  0.00  0.00    +0.000 A 
ATOM      2  C   UNL     1       2.471   2.424  21.524  0.00  0.00    +0.000 A 
ATOM      3  C   UNL     1       1.294   3.087  21.234  0.00  0.00    +0.000 A 
ATOM      4  N   UNL     1       1.118   3.841  20.132  0.00  0.00    +0.000 NA
ATOM      5  C   UNL     1       2.160   3.923  19.268  0.00  0.00    +0.000 A 
ATOM      6  C   UNL     1       3.364   3.225  19.444  0.00  0.00    +0.000 A 
ATOM      7  C   UNL     1       4.463   3.348  18.411  0.00  0.00    +0.000 C 
ATOM      8  N   UNL     1       3.982   3.830  17.102  0.00  0.00    +0.000 NA
ATOM      9  C   UNL     1       3.250   5.094  17.322  0.00  0.00    +0.000 C 
ATOM     10  C   UNL     1       1.952   4.815  18.075  0.00  0.00    +0.000 C 
ENDROOT
BRANCH   1  11
ATOM     11  N   UNL     1       4.765   1.937  20.996  0.00  0.00    +0.000 N 
ATOM     12  H   UNL     1       5.555   2.517  20.729  0.00  0.00    +0.000 HD
ATOM     13  H   UNL     1       4.830   1.636  21.962  0.00  0.00    +0.000 HD
ENDBRANCH   1  11
BRANCH   8  14
ATOM     14  C   UNL     1       5.073   4.051  16.146  0.00  0.00    +0.000 C 
BRANCH  14  15
ATOM     15  C   UNL     1       5.370   5.529  15.836  0.00  0.00    +0.000 C 
ATOM     16  C   UNL     1       5.167   6.725  16.849  0.00  0.00    +0.000 C 
ATOM     17  C   UNL     1       6.580   6.478  17.299  0.00  0.00    +0.000 C 
ATOM     18  C   UNL     1       7.571   7.538  17.728  0.00  0.00    +0.000 C 
ATOM     19  C   UNL     1       8.144   6.444  18.682  0.00  0.00    +0.000 C 
ATOM     20  C   UNL     1       6.748   5.791  18.640  0.00  0.00    +0.000 C 
ATOM     21  C   UNL     1       6.900   5.783  15.990  0.00  0.00    +0.000 C 
ENDBRANCH  14  15
ENDBRANCH   8  14
TORSDOF 3
ENDMDL
