MODEL 1
REMARK VINA RESULT:      -7.3      0.000      0.000
REMARK  Name = 
REMARK  9 active torsions:
REMARK  status: ('A' for Active; 'I' for Inactive)
REMARK    1  A    between atoms: C_1  and  C_2
REMARK    2  A    between atoms: C_2  and  C_3
REMARK    3  A    between atoms: C_2  and  C_4
REMARK    4  A    between atoms: C_2  and  C_5
REMARK    5  A    between atoms: C_8  and  N_9
REMARK    6  A    between atoms: N_9  and  C_10
REMARK    7  A    between atoms: C_10  and  C_11
REMARK    8  A    between atoms: C_13  and  N_14
REMARK    9  A    between atoms: C_19  and  O_20
REMARK                            x       y       z     vdW  Elec       q    Type
REMARK                         _______ _______ _______ _____ _____    ______ ____
ROOT
ATOM      1  N   UNL     1       5.650   5.623  16.150  0.00  0.00    +0.000 N 
ATOM      2  H   UNL     1       5.947   6.568  16.371  0.00  0.00    +0.000 HD
ENDROOT
BRANCH   1   6
ATOM      3  C   UNL     1       2.704   3.982  18.735  0.00  0.00    +0.000 A 
ATOM      4  C   UNL     1       3.432   3.195  17.830  0.00  0.00    +0.000 A 
ATOM      5  C   UNL     1       4.387   3.754  16.977  0.00  0.00    +0.000 A 
ATOM      6  C   UNL     1       4.643   5.126  16.971  0.00  0.00    +0.000 A 
ATOM      7  C   UNL     1       3.917   5.918  17.860  0.00  0.00    +0.000 A 
ATOM      8  C   UNL     1       2.962   5.362  18.724  0.00  0.00    +0.000 A 
BRANCH   3  10
ATOM      9  C   UNL     1       0.825   4.443  20.418  0.00  0.00    +0.000 C 
ATOM     10  C   UNL     1       1.708   3.374  19.735  0.00  0.00    +0.000 C 
ATOM     11  C   UNL     1       2.444   2.608  20.852  0.00  0.00    +0.000 C 
ATOM     12  C   UNL     1       0.775   2.394  18.991  0.00  0.00    +0.000 C 
ENDBRANCH   3  10
ENDBRANCH   1   6
BRANCH   1  13
ATOM     13  C   UNL     1       6.739   4.767  15.686  0.00  0.00    +0.000 C 
BRANCH  13  14
ATOM     14  C   UNL     1       6.756   4.540  14.186  0.00  0.00    +0.000 A 
ATOM     15  C   UNL     1       5.860   3.678  13.528  0.00  0.00    +0.000 A 
ATOM     16  C   UNL     1       5.998   3.418  12.159  0.00  0.00    +0.000 A 
ATOM     17  C   UNL     1       6.989   4.058  11.404  0.00  0.00    +0.000 A 
ATOM     18  C   UNL     1       7.854   4.953  12.036  0.00  0.00    +0.000 A 
ATOM     19  C   UNL     1       7.741   5.175  13.413  0.00  0.00    +0.000 A 
BRANCH  16  20
ATOM     20  N   UNL     1       5.117   2.428  11.521  0.00  0.00    +0.000 N 
ATOM     21  O   UNL     1       5.573   1.292  11.326  0.00  0.00    +0.000 OA
ATOM     22  O   UNL     1       3.978   2.795  11.197  0.00  0.00    +0.000 OA
ENDBRANCH  16  20
BRANCH  19  23
ATOM     23  O   UNL     1       8.610   6.023  14.035  0.00  0.00    +0.000 OA
ATOM     24  H   UNL     1       8.194   6.895  14.139  0.00  0.00    +0.000 HD
ENDBRANCH  19  23
ENDBRANCH  13  14
ENDBRANCH   1  13
TORSDOF 6
ENDMDL
MODEL 2
REMARK VINA RESULT:      -7.3      3.851      5.491
REMARK  Name = 
REMARK  9 active torsions:
REMARK  status: ('A' for Active; 'I' for Inactive)
REMARK    1  A    between atoms: C_1  and  C_2
REMARK    2  A    between atoms: C_2  and  C_3
REMARK    3  A    between atoms: C_2  and  C_4
REMARK    4  A    between atoms: C_2  and  C_5
REMARK    5  A    between atoms: C_8  and  N_9
REMARK    6  A    between atoms: N_9  and  C_10
REMARK    7  A    between atoms: C_10  and  C_11
REMARK    8  A    between atoms: C_13  and  N_14
REMARK    9  A    between atoms: C_19  and  O_20
REMARK                            x       y       z     vdW  Elec       q    Type
REMARK                         _______ _______ _______ _____ _____    ______ ____
ROOT
ATOM      1  N   UNL     1       3.435   5.932  19.234  0.00  0.00    +0.000 N 
ATOM      2  H   UNL     1       3.443   5.466  20.135  0.00  0.00    +0.000 HD
ENDROOT
BRANCH   1   6
ATOM      3  C   UNL     1       1.028   9.434  19.186  0.00  0.00    +0.000 A 
ATOM      4  C   UNL     1       1.163   8.631  20.328  0.00  0.00    +0.000 A 
ATOM      5  C   UNL     1       1.948   7.475  20.321  0.00  0.00    +0.000 A 
ATOM      6  C   UNL     1       2.614   7.053  19.169  0.00  0.00    +0.000 A 
ATOM      7  C   UNL     1       2.477   7.840  18.025  0.00  0.00    +0.000 A 
ATOM      8  C   UNL     1       1.698   9.006  18.028  0.00  0.00    +0.000 A 
BRANCH   3  10
ATOM      9  C   UNL     1      -0.978  10.722  18.241  0.00  0.00    +0.000 C 
ATOM     10  C   UNL     1       0.236  10.751  19.197  0.00  0.00    +0.000 C 
ATOM     11  C   UNL     1       1.125  11.936  18.769  0.00  0.00    +0.000 C 
ATOM     12  C   UNL     1      -0.292  11.014  20.625  0.00  0.00    +0.000 C 
ENDBRANCH   3  10
ENDBRANCH   1   6
BRANCH   1  13
ATOM     13  C   UNL     1       3.551   5.013  18.104  0.00  0.00    +0.000 C 
BRANCH  13  14
ATOM     14  C   UNL     1       4.942   4.937  17.505  0.00  0.00    +0.000 A 
ATOM     15  C   UNL     1       5.186   4.951  16.119  0.00  0.00    +0.000 A 
ATOM     16  C   UNL     1       6.481   4.760  15.623  0.00  0.00    +0.000 A 
ATOM     17  C   UNL     1       7.569   4.614  16.493  0.00  0.00    +0.000 A 
ATOM     18  C   UNL     1       7.347   4.647  17.870  0.00  0.00    +0.000 A 
ATOM     19  C   UNL     1       6.045   4.792  18.362  0.00  0.00    +0.000 A 
BRANCH  16  20
ATOM     20  N   UNL     1       6.689   4.668  14.169  0.00  0.00    +0.000 N 
ATOM     21  O   UNL     1       7.511   5.439  13.654  0.00  0.00    +0.000 OA
ATOM     22  O   UNL     1       6.012   3.840  13.542  0.00  0.00    +0.000 OA
ENDBRANCH  16  20
BRANCH  19  23
ATOM     23  O   UNL     1       5.826   4.788  19.708  0.00  0.00    +0.000 OA
ATOM     24  H   UNL     1       5.414   3.947  19.969  0.00  0.00    +0.000 HD
ENDBRANCH  19  23
ENDBRANCH  13  14
ENDBRANCH   1  13
TORSDOF 6
ENDMDL
MODEL 3
REMARK VINA RESULT:      -7.3      0.137      1.146
REMARK  Name = 
REMARK  9 active torsions:
REMARK  status: ('A' for Active; 'I' for Inactive)
REMARK    1  A    between atoms: C_1  and  C_2
REMARK    2  A    between atoms: C_2  and  C_3
REMARK    3  A    between atoms: C_2  and  C_4
REMARK    4  A    between atoms: C_2  and  C_5
REMARK    5  A    between atoms: C_8  and  N_9
REMARK    6  A    between atoms: N_9  and  C_10
REMARK    7  A    between atoms: C_10  and  C_11
REMARK    8  A    between atoms: C_13  and  N_14
REMARK    9  A    between atoms: C_19  and  O_20
REMARK                            x       y       z     vdW  Elec       q    Type
REMARK                         _______ _______ _______ _____ _____    ______ ____
ROOT
ATOM      1  N   UNL     1       5.790   5.553  16.295  0.00  0.00    +0.000 N 
ATOM      2  H   UNL     1       6.157   6.460  16.564  0.00  0.00    +0.000 HD
ENDROOT
BRANCH   1   6
ATOM      3  C   UNL     1       2.753   4.014  18.837  0.00  0.00    +0.000 A 
ATOM      4  C   UNL     1       3.534   3.188  18.015  0.00  0.00    +0.000 A 
ATOM      5  C   UNL     1       4.519   3.714  17.175  0.00  0.00    +0.000 A 
ATOM      6  C   UNL     1       4.754   5.087  17.097  0.00  0.00    +0.000 A 
ATOM      7  C   UNL     1       3.975   5.917  17.904  0.00  0.00    +0.000 A 
ATOM      8  C   UNL     1       2.990   5.396  18.756  0.00  0.00    +0.000 A 
BRANCH   3  10
ATOM      9  C   UNL     1       2.376   2.654  20.978  0.00  0.00    +0.000 C 
ATOM     10  C   UNL     1       1.721   3.449  19.826  0.00  0.00    +0.000 C 
ATOM     11  C   UNL     1       0.738   2.495  19.115  0.00  0.00    +0.000 C 
ATOM     12  C   UNL     1       0.921   4.614  20.448  0.00  0.00    +0.000 C 
ENDBRANCH   3  10
ENDBRANCH   1   6
BRANCH   1  13
ATOM     13  C   UNL     1       6.810   4.646  15.774  0.00  0.00    +0.000 C 
BRANCH  13  14
ATOM     14  C   UNL     1       6.794   4.494  14.265  0.00  0.00    +0.000 A 
ATOM     15  C   UNL     1       5.909   3.637  13.586  0.00  0.00    +0.000 A 
ATOM     16  C   UNL     1       6.020   3.450  12.203  0.00  0.00    +0.000 A 
ATOM     17  C   UNL     1       6.971   4.159  11.457  0.00  0.00    +0.000 A 
ATOM     18  C   UNL     1       7.823   5.049  12.112  0.00  0.00    +0.000 A 
ATOM     19  C   UNL     1       7.739   5.198  13.501  0.00  0.00    +0.000 A 
BRANCH  16  20
ATOM     20  N   UNL     1       5.154   2.464  11.538  0.00  0.00    +0.000 N 
ATOM     21  O   UNL     1       4.006   2.817  11.234  0.00  0.00    +0.000 OA
ATOM     22  O   UNL     1       5.618   1.331  11.341  0.00  0.00    +0.000 OA
ENDBRANCH  16  20
BRANCH  19  23
ATOM     23  O   UNL     1       8.597   6.042  14.143  0.00  0.00    +0.000 OA
ATOM     24  H   UNL     1       8.942   6.697  13.514  0.00  0.00    +0.000 HD
ENDBRANCH  19  23
ENDBRANCH  13  14
ENDBRANCH   1  13
TORSDOF 6
ENDMDL
MODEL 4
REMARK VINA RESULT:      -7.3      3.611      5.296
REMARK  Name = 
REMARK  9 active torsions:
REMARK  status: ('A' for Active; 'I' for Inactive)
REMARK    1  A    between atoms: C_1  and  C_2
REMARK    2  A    between atoms: C_2  and  C_3
REMARK    3  A    between atoms: C_2  and  C_4
REMARK    4  A    between atoms: C_2  and  C_5
REMARK    5  A    between atoms: C_8  and  N_9
REMARK    6  A    between atoms: N_9  and  C_10
REMARK    7  A    between atoms: C_10  and  C_11
REMARK    8  A    between atoms: C_13  and  N_14
REMARK    9  A    between atoms: C_19  and  O_20
REMARK                            x       y       z     vdW  Elec       q    Type
REMARK                         _______ _______ _______ _____ _____    ______ ____
ROOT
ATOM      1  N   UNL     1       3.350   5.280  19.441  0.00  0.00    +0.000 N 
ATOM      2  H   UNL     1       3.134   4.778  20.295  0.00  0.00    +0.000 HD
ENDROOT
BRANCH   1   6
ATOM      3  C   UNL     1       1.447   9.070  19.179  0.00  0.00    +0.000 A 
ATOM      4  C   UNL     1       1.380   8.274  20.332  0.00  0.00    +0.000 A 
ATOM      5  C   UNL     1       2.001   7.023  20.395  0.00  0.00    +0.000 A 
ATOM      6  C   UNL     1       2.695   6.499  19.304  0.00  0.00    +0.000 A 
ATOM      7  C   UNL     1       2.758   7.279  18.149  0.00  0.00    +0.000 A 
ATOM      8  C   UNL     1       2.144   8.539  18.082  0.00  0.00    +0.000 A 
BRANCH   3  10
ATOM      9  C   UNL     1       1.752  11.489  18.384  0.00  0.00    +0.000 C 
ATOM     10  C   UNL     1       0.839  10.480  19.118  0.00  0.00    +0.000 C 
ATOM     11  C   UNL     1       0.592  11.037  20.535  0.00  0.00    +0.000 C 
ATOM     12  C   UNL     1      -0.507  10.422  18.364  0.00  0.00    +0.000 C 
ENDBRANCH   3  10
ENDBRANCH   1   6
BRANCH   1  13
ATOM     13  C   UNL     1       3.566   4.404  18.292  0.00  0.00    +0.000 C 
BRANCH  13  14
ATOM     14  C   UNL     1       4.916   4.579  17.622  0.00  0.00    +0.000 A 
ATOM     15  C   UNL     1       5.081   4.633  16.226  0.00  0.00    +0.000 A 
ATOM     16  C   UNL     1       6.362   4.678  15.662  0.00  0.00    +0.000 A 
ATOM     17  C   UNL     1       7.502   4.732  16.474  0.00  0.00    +0.000 A 
ATOM     18  C   UNL     1       7.349   4.728  17.861  0.00  0.00    +0.000 A 
ATOM     19  C   UNL     1       6.070   4.637  18.420  0.00  0.00    +0.000 A 
BRANCH  16  20
ATOM     20  N   UNL     1       6.507   4.622  14.199  0.00  0.00    +0.000 N 
ATOM     21  O   UNL     1       5.742   3.877  13.572  0.00  0.00    +0.000 OA
ATOM     22  O   UNL     1       7.403   5.307  13.683  0.00  0.00    +0.000 OA
ENDBRANCH  16  20
BRANCH  19  23
ATOM     23  O   UNL     1       5.925   4.597  19.776  0.00  0.00    +0.000 OA
ATOM     24  H   UNL     1       6.681   4.130  20.170  0.00  0.00    +0.000 HD
ENDBRANCH  19  23
ENDBRANCH  13  14
ENDBRANCH   1  13
TORSDOF 6
ENDMDL
MODEL 5
REMARK VINA RESULT:      -7.3      3.635      5.403
REMARK  Name = 
REMARK  9 active torsions:
REMARK  status: ('A' for Active; 'I' for Inactive)
REMARK    1  A    between atoms: C_1  and  C_2
REMARK    2  A    between atoms: C_2  and  C_3
REMARK    3  A    between atoms: C_2  and  C_4
REMARK    4  A    between atoms: C_2  and  C_5
REMARK    5  A    between atoms: C_8  and  N_9
REMARK    6  A    between atoms: N_9  and  C_10
REMARK    7  A    between atoms: C_10  and  C_11
REMARK    8  A    between atoms: C_13  and  N_14
REMARK    9  A    between atoms: C_19  and  O_20
REMARK                            x       y       z     vdW  Elec       q    Type
REMARK                         _______ _______ _______ _____ _____    ______ ____
ROOT
ATOM      1  N   UNL     1       3.181   5.194  19.347  0.00  0.00    +0.000 N 
ATOM      2  H   UNL     1       2.888   4.641  20.145  0.00  0.00    +0.000 HD
ENDROOT
BRANCH   1   6
ATOM      3  C   UNL     1       1.402   9.049  19.173  0.00  0.00    +0.000 A 
ATOM      4  C   UNL     1       1.415   8.279  20.347  0.00  0.00    +0.000 A 
ATOM      5  C   UNL     1       1.993   7.007  20.381  0.00  0.00    +0.000 A 
ATOM      6  C   UNL     1       2.561   6.435  19.243  0.00  0.00    +0.000 A 
ATOM      7  C   UNL     1       2.544   7.188  18.069  0.00  0.00    +0.000 A 
ATOM      8  C   UNL     1       1.973   8.469  18.029  0.00  0.00    +0.000 A 
BRANCH   3  10
ATOM      9  C   UNL     1       0.617  11.066  20.549  0.00  0.00    +0.000 C 
ATOM     10  C   UNL     1       0.843  10.480  19.137  0.00  0.00    +0.000 C 
ATOM     11  C   UNL     1      -0.511  10.527  18.402  0.00  0.00    +0.000 C 
ATOM     12  C   UNL     1       1.843  11.396  18.398  0.00  0.00    +0.000 C 
ENDBRANCH   3  10
ENDBRANCH   1   6
BRANCH   1  13
ATOM     13  C   UNL     1       3.473   4.392  18.161  0.00  0.00    +0.000 C 
BRANCH  13  14
ATOM     14  C   UNL     1       4.877   4.573  17.618  0.00  0.00    +0.000 A 
ATOM     15  C   UNL     1       5.164   4.682  16.245  0.00  0.00    +0.000 A 
ATOM     16  C   UNL     1       6.490   4.729  15.796  0.00  0.00    +0.000 A 
ATOM     17  C   UNL     1       7.555   4.733  16.705  0.00  0.00    +0.000 A 
ATOM     18  C   UNL     1       7.282   4.674  18.073  0.00  0.00    +0.000 A 
ATOM     19  C   UNL     1       5.958   4.580  18.515  0.00  0.00    +0.000 A 
BRANCH  16  20
ATOM     20  N   UNL     1       6.761   4.731  14.351  0.00  0.00    +0.000 N 
ATOM     21  O   UNL     1       7.674   5.459  13.936  0.00  0.00    +0.000 OA
ATOM     22  O   UNL     1       6.044   4.021  13.630  0.00  0.00    +0.000 OA
ENDBRANCH  16  20
BRANCH  19  23
ATOM     23  O   UNL     1       5.696   4.487  19.850  0.00  0.00    +0.000 OA
ATOM     24  H   UNL     1       5.705   3.553  20.119  0.00  0.00    +0.000 HD
ENDBRANCH  19  23
ENDBRANCH  13  14
ENDBRANCH   1  13
TORSDOF 6
ENDMDL
MODEL 6
REMARK VINA RESULT:      -7.2      3.432      5.132
REMARK  Name = 
REMARK  9 active torsions:
REMARK  status: ('A' for Active; 'I' for Inactive)
REMARK    1  A    between atoms: C_1  and  C_2
REMARK    2  A    between atoms: C_2  and  C_3
REMARK    3  A    between atoms: C_2  and  C_4
REMARK    4  A    between atoms: C_2  and  C_5
REMARK    5  A    between atoms: C_8  and  N_9
REMARK    6  A    between atoms: N_9  and  C_10
REMARK    7  A    between atoms: C_10  and  C_11
REMARK    8  A    between atoms: C_13  and  N_14
REMARK    9  A    between atoms: C_19  and  O_20
REMARK                            x       y       z     vdW  Elec       q    Type
REMARK                         _______ _______ _______ _____ _____    ______ ____
ROOT
ATOM      1  N   UNL     1       3.197   4.826  19.194  0.00  0.00    +0.000 N 
ATOM      2  H   UNL     1       2.779   4.236  19.905  0.00  0.00    +0.000 HD
ENDROOT
BRANCH   1   6
ATOM      3  C   UNL     1       1.664   8.786  19.025  0.00  0.00    +0.000 A 
ATOM      4  C   UNL     1       2.243   8.156  17.913  0.00  0.00    +0.000 A 
ATOM      5  C   UNL     1       2.755   6.858  17.991  0.00  0.00    +0.000 A 
ATOM      6  C   UNL     1       2.735   6.138  19.186  0.00  0.00    +0.000 A 
ATOM      7  C   UNL     1       2.170   6.760  20.300  0.00  0.00    +0.000 A 
ATOM      8  C   UNL     1       1.648   8.059  20.226  0.00  0.00    +0.000 A 
BRANCH   3  10
ATOM      9  C   UNL     1       0.751  10.796  20.328  0.00  0.00    +0.000 C 
ATOM     10  C   UNL     1       1.025  10.180  18.938  0.00  0.00    +0.000 C 
ATOM     11  C   UNL     1      -0.323  10.125  18.190  0.00  0.00    +0.000 C 
ATOM     12  C   UNL     1       1.977  11.129  18.178  0.00  0.00    +0.000 C 
ENDBRANCH   3  10
ENDBRANCH   1   6
BRANCH   1  13
ATOM     13  C   UNL     1       3.487   4.118  17.950  0.00  0.00    +0.000 C 
BRANCH  13  14
ATOM     14  C   UNL     1       4.871   4.384  17.391  0.00  0.00    +0.000 A 
ATOM     15  C   UNL     1       5.135   4.516  16.015  0.00  0.00    +0.000 A 
ATOM     16  C   UNL     1       6.450   4.643  15.551  0.00  0.00    +0.000 A 
ATOM     17  C   UNL     1       7.524   4.705  16.448  0.00  0.00    +0.000 A 
ATOM     18  C   UNL     1       7.272   4.624  17.818  0.00  0.00    +0.000 A 
ATOM     19  C   UNL     1       5.961   4.451  18.275  0.00  0.00    +0.000 A 
BRANCH  16  20
ATOM     20  N   UNL     1       6.703   4.667  14.102  0.00  0.00    +0.000 N 
ATOM     21  O   UNL     1       6.051   3.891  13.390  0.00  0.00    +0.000 OA
ATOM     22  O   UNL     1       7.571   5.447  13.683  0.00  0.00    +0.000 OA
ENDBRANCH  16  20
BRANCH  19  23
ATOM     23  O   UNL     1       5.720   4.336  19.613  0.00  0.00    +0.000 OA
ATOM     24  H   UNL     1       5.563   5.217  19.992  0.00  0.00    +0.000 HD
ENDBRANCH  19  23
ENDBRANCH  13  14
ENDBRANCH   1  13
TORSDOF 6
ENDMDL
MODEL 7
REMARK VINA RESULT:      -7.2      4.212      6.554
REMARK  Name = 
REMARK  9 active torsions:
REMARK  status: ('A' for Active; 'I' for Inactive)
REMARK    1  A    between atoms: C_1  and  C_2
REMARK    2  A    between atoms: C_2  and  C_3
REMARK    3  A    between atoms: C_2  and  C_4
REMARK    4  A    between atoms: C_2  and  C_5
REMARK    5  A    between atoms: C_8  and  N_9
REMARK    6  A    between atoms: N_9  and  C_10
REMARK    7  A    between atoms: C_10  and  C_11
REMARK    8  A    between atoms: C_13  and  N_14
REMARK    9  A    between atoms: C_19  and  O_20
REMARK                            x       y       z     vdW  Elec       q    Type
REMARK                         _______ _______ _______ _____ _____    ______ ____
ROOT
ATOM      1  N   UNL     1       2.865   6.267  20.061  0.00  0.00    +0.000 N 
ATOM      2  H   UNL     1       2.963   5.957  21.022  0.00  0.00    +0.000 HD
ENDROOT
BRANCH   1   6
ATOM      3  C   UNL     1       0.589   9.798  19.428  0.00  0.00    +0.000 A 
ATOM      4  C   UNL     1       1.422   9.254  18.438  0.00  0.00    +0.000 A 
ATOM      5  C   UNL     1       2.174   8.099  18.669  0.00  0.00    +0.000 A 
ATOM      6  C   UNL     1       2.150   7.449  19.904  0.00  0.00    +0.000 A 
ATOM      7  C   UNL     1       1.332   7.989  20.897  0.00  0.00    +0.000 A 
ATOM      8  C   UNL     1       0.568   9.143  20.669  0.00  0.00    +0.000 A 
BRANCH   3  10
ATOM      9  C   UNL     1      -1.372  10.753  18.078  0.00  0.00    +0.000 C 
ATOM     10  C   UNL     1      -0.307  11.020  19.166  0.00  0.00    +0.000 C 
ATOM     11  C   UNL     1       0.529  12.229  18.699  0.00  0.00    +0.000 C 
ATOM     12  C   UNL     1      -1.044  11.398  20.469  0.00  0.00    +0.000 C 
ENDBRANCH   3  10
ENDBRANCH   1   6
BRANCH   1  13
ATOM     13  C   UNL     1       2.730   5.168  19.108  0.00  0.00    +0.000 C 
BRANCH  13  14
ATOM     14  C   UNL     1       3.933   4.977  18.205  0.00  0.00    +0.000 A 
ATOM     15  C   UNL     1       5.126   5.710  18.345  0.00  0.00    +0.000 A 
ATOM     16  C   UNL     1       6.159   5.574  17.410  0.00  0.00    +0.000 A 
ATOM     17  C   UNL     1       6.055   4.661  16.353  0.00  0.00    +0.000 A 
ATOM     18  C   UNL     1       4.896   3.893  16.231  0.00  0.00    +0.000 A 
ATOM     19  C   UNL     1       3.848   4.065  17.140  0.00  0.00    +0.000 A 
BRANCH  16  20
ATOM     20  N   UNL     1       7.348   6.434  17.519  0.00  0.00    +0.000 N 
ATOM     21  O   UNL     1       7.844   6.591  18.644  0.00  0.00    +0.000 OA
ATOM     22  O   UNL     1       7.768   6.970  16.483  0.00  0.00    +0.000 OA
ENDBRANCH  16  20
BRANCH  19  23
ATOM     23  O   UNL     1       2.702   3.338  16.998  0.00  0.00    +0.000 OA
ATOM     24  H   UNL     1       2.016   3.889  16.585  0.00  0.00    +0.000 HD
ENDBRANCH  19  23
ENDBRANCH  13  14
ENDBRANCH   1  13
TORSDOF 6
ENDMDL
MODEL 8
REMARK VINA RESULT:      -7.2      6.521      9.348
REMARK  Name = 
REMARK  9 active torsions:
REMARK  status: ('A' for Active; 'I' for Inactive)
REMARK    1  A    between atoms: C_1  and  C_2
REMARK    2  A    between atoms: C_2  and  C_3
REMARK    3  A    between atoms: C_2  and  C_4
REMARK    4  A    between atoms: C_2  and  C_5
REMARK    5  A    between atoms: C_8  and  N_9
REMARK    6  A    between atoms: N_9  and  C_10
REMARK    7  A    between atoms: C_10  and  C_11
REMARK    8  A    between atoms: C_13  and  N_14
REMARK    9  A    between atoms: C_19  and  O_20
REMARK                            x       y       z     vdW  Elec       q    Type
REMARK                         _______ _______ _______ _____ _____    ______ ____
ROOT
ATOM      1  N   UNL     1       2.251   8.722  18.675  0.00  0.00    +0.000 N 
ATOM      2  H   UNL     1       3.154   9.093  18.401  0.00  0.00    +0.000 HD
ENDROOT
BRANCH   1   6
ATOM      3  C   UNL     1       2.044   4.571  19.557  0.00  0.00    +0.000 A 
ATOM      4  C   UNL     1       1.919   5.556  20.547  0.00  0.00    +0.000 A 
ATOM      5  C   UNL     1       2.004   6.917  20.241  0.00  0.00    +0.000 A 
ATOM      6  C   UNL     1       2.241   7.356  18.937  0.00  0.00    +0.000 A 
ATOM      7  C   UNL     1       2.377   6.383  17.947  0.00  0.00    +0.000 A 
ATOM      8  C   UNL     1       2.285   5.016  18.247  0.00  0.00    +0.000 A 
BRANCH   3  10
ATOM      9  C   UNL     1       1.353   2.815  21.294  0.00  0.00    +0.000 C 
ATOM     10  C   UNL     1       1.874   3.074  19.862  0.00  0.00    +0.000 C 
ATOM     11  C   UNL     1       3.214   2.325  19.722  0.00  0.00    +0.000 C 
ATOM     12  C   UNL     1       0.858   2.466  18.870  0.00  0.00    +0.000 C 
ENDBRANCH   3  10
ENDBRANCH   1   6
BRANCH   1  13
ATOM     13  C   UNL     1       1.129   9.371  18.000  0.00  0.00    +0.000 C 
BRANCH  13  14
ATOM     14  C   UNL     1       0.236  10.182  18.919  0.00  0.00    +0.000 A 
ATOM     15  C   UNL     1       0.470  10.315  20.301  0.00  0.00    +0.000 A 
ATOM     16  C   UNL     1      -0.452  10.979  21.118  0.00  0.00    +0.000 A 
ATOM     17  C   UNL     1      -1.594  11.578  20.572  0.00  0.00    +0.000 A 
ATOM     18  C   UNL     1      -1.814  11.495  19.196  0.00  0.00    +0.000 A 
ATOM     19  C   UNL     1      -0.913  10.791  18.389  0.00  0.00    +0.000 A 
BRANCH  16  20
ATOM     20  N   UNL     1      -0.237  11.006  22.573  0.00  0.00    +0.000 N 
ATOM     21  O   UNL     1       0.487  10.129  23.065  0.00  0.00    +0.000 OA
ATOM     22  O   UNL     1      -0.811  11.891  23.224  0.00  0.00    +0.000 OA
ENDBRANCH  16  20
BRANCH  19  23
ATOM     23  O   UNL     1      -1.148  10.681  17.050  0.00  0.00    +0.000 OA
ATOM     24  H   UNL     1      -0.575   9.991  16.675  0.00  0.00    +0.000 HD
ENDBRANCH  19  23
ENDBRANCH  13  14
ENDBRANCH   1  13
TORSDOF 6
ENDMDL
MODEL 9
REMARK VINA RESULT:      -7.2      4.817      6.845
REMARK  Name = 
REMARK  9 active torsions:
REMARK  status: ('A' for Active; 'I' for Inactive)
REMARK    1  A    between atoms: C_1  and  C_2
REMARK    2  A    between atoms: C_2  and  C_3
REMARK    3  A    between atoms: C_2  and  C_4
REMARK    4  A    between atoms: C_2  and  C_5
REMARK    5  A    between atoms: C_8  and  N_9
REMARK    6  A    between atoms: N_9  and  C_10
REMARK    7  A    between atoms: C_10  and  C_11
REMARK    8  A    between atoms: C_13  and  N_14
REMARK    9  A    between atoms: C_19  and  O_20
REMARK                            x       y       z     vdW  Elec       q    Type
REMARK                         _______ _______ _______ _____ _____    ______ ____
ROOT
ATOM      1  N   UNL     1       2.386   7.341  19.410  0.00  0.00    +0.000 N 
ATOM      2  H   UNL     1       2.078   6.412  19.678  0.00  0.00    +0.000 HD
ENDROOT
BRANCH   1   6
ATOM      3  C   UNL     1       0.042  10.534  20.950  0.00  0.00    +0.000 A 
ATOM      4  C   UNL     1       0.446   9.448  21.742  0.00  0.00    +0.000 A 
ATOM      5  C   UNL     1       1.205   8.400  21.215  0.00  0.00    +0.000 A 
ATOM      6  C   UNL     1       1.575   8.374  19.869  0.00  0.00    +0.000 A 
ATOM      7  C   UNL     1       1.169   9.444  19.071  0.00  0.00    +0.000 A 
ATOM      8  C   UNL     1       0.414  10.503  19.596  0.00  0.00    +0.000 A 
BRANCH   3  10
ATOM      9  C   UNL     1       0.164  12.992  21.671  0.00  0.00    +0.000 C 
ATOM     10  C   UNL     1      -0.723  11.734  21.530  0.00  0.00    +0.000 C 
ATOM     11  C   UNL     1      -1.280  11.409  22.931  0.00  0.00    +0.000 C 
ATOM     12  C   UNL     1      -1.900  12.086  20.595  0.00  0.00    +0.000 C 
ENDBRANCH   3  10
ENDBRANCH   1   6
BRANCH   1  13
ATOM     13  C   UNL     1       2.996   7.390  18.084  0.00  0.00    +0.000 C 
BRANCH  13  14
ATOM     14  C   UNL     1       3.754   6.134  17.701  0.00  0.00    +0.000 A 
ATOM     15  C   UNL     1       5.120   6.131  17.363  0.00  0.00    +0.000 A 
ATOM     16  C   UNL     1       5.737   4.961  16.905  0.00  0.00    +0.000 A 
ATOM     17  C   UNL     1       5.027   3.756  16.833  0.00  0.00    +0.000 A 
ATOM     18  C   UNL     1       3.684   3.735  17.212  0.00  0.00    +0.000 A 
ATOM     19  C   UNL     1       3.059   4.916  17.626  0.00  0.00    +0.000 A 
BRANCH  16  20
ATOM     20  N   UNL     1       7.136   5.014  16.453  0.00  0.00    +0.000 N 
ATOM     21  O   UNL     1       7.975   4.367  17.096  0.00  0.00    +0.000 OA
ATOM     22  O   UNL     1       7.397   5.723  15.469  0.00  0.00    +0.000 OA
ENDBRANCH  16  20
BRANCH  19  23
ATOM     23  O   UNL     1       1.737   4.900  17.962  0.00  0.00    +0.000 OA
ATOM     24  H   UNL     1       1.196   4.872  17.154  0.00  0.00    +0.000 HD
ENDBRANCH  19  23
ENDBRANCH  13  14
ENDBRANCH   1  13
TORSDOF 6
ENDMDL
