MODEL 1
REMARK VINA RESULT:      -8.6      0.000      0.000
REMARK  Name = 
REMARK  8 active torsions:
REMARK  status: ('A' for Active; 'I' for Inactive)
REMARK    1  A    between atoms: C_1  and  C_2
REMARK    2  A    between atoms: C_5  and  C_6
REMARK    3  A    between atoms: C_7  and  C_8
REMARK    4  A    between atoms: C_8  and  N_9
REMARK    5  A    between atoms: C_11  and  N_12
REMARK    6  A    between atoms: N_16  and  C_17
REMARK    7  A    between atoms: C_17  and  C_18
REMARK    8  A    between atoms: C_22  and  C_23
REMARK                            x       y       z     vdW  Elec       q    Type
REMARK                         _______ _______ _______ _____ _____    ______ ____
ROOT
ATOM      1  N   UNL     1       2.041   7.625  19.089  0.00  0.00    +0.000 N 
ATOM      2  C   UNL     1       1.524   7.660  20.363  0.00  0.00    +0.000 C 
ATOM      3  O   UNL     1       1.517   6.778  21.214  0.00  0.00    +0.000 OA
ATOM      4  C   UNL     1       0.951   9.047  20.606  0.00  0.00    +0.000 C 
ATOM      5  N   UNL     1       1.169   9.671  19.328  0.00  0.00    +0.000 N 
ATOM      6  C   UNL     1       1.851   8.833  18.455  0.00  0.00    +0.000 C 
ATOM      7  O   UNL     1       2.146   9.139  17.308  0.00  0.00    +0.000 OA
ENDROOT
BRANCH   1  10
ATOM      8  N   UNL     1       3.944   4.978  17.671  0.00  0.00    +0.000 N 
ATOM      9  C   UNL     1       3.872   6.270  18.119  0.00  0.00    +0.000 A 
ATOM     10  C   UNL     1       2.556   6.498  18.465  0.00  0.00    +0.000 A 
ATOM     11  C   UNL     1       1.901   5.298  18.095  0.00  0.00    +0.000 A 
ATOM     12  N   UNL     1       2.738   4.378  17.604  0.00  0.00    +0.000 NA
BRANCH   8  13
ATOM     13  C   UNL     1       5.161   4.187  17.503  0.00  0.00    +0.000 C 
BRANCH  13  20
ATOM     14  C   UNL     1       7.520   6.234  18.421  0.00  0.00    +0.000 C 
ATOM     15  C   UNL     1       7.185   5.769  17.051  0.00  0.00    +0.000 A 
ATOM     16  N   UNL     1       7.874   6.228  15.999  0.00  0.00    +0.000 NA
ATOM     17  O   UNL     1       7.311   5.633  14.890  0.00  0.00    +0.000 OA
ATOM     18  C   UNL     1       6.286   4.829  15.273  0.00  0.00    +0.000 A 
ATOM     19  C   UNL     1       5.564   4.140  14.188  0.00  0.00    +0.000 C 
ATOM     20  C   UNL     1       6.160   4.868  16.648  0.00  0.00    +0.000 A 
ENDBRANCH  13  20
ENDBRANCH   8  13
ENDBRANCH   1  10
BRANCH   5  21
ATOM     21  C   UNL     1       0.646  10.980  18.990  0.00  0.00    +0.000 C 
BRANCH  21  22
ATOM     22  C   UNL     1      -0.808  10.967  18.571  0.00  0.00    +0.000 A 
ATOM     23  C   UNL     1      -1.768  11.687  19.301  0.00  0.00    +0.000 A 
ATOM     24  C   UNL     1      -3.099  11.752  18.872  0.00  0.00    +0.000 A 
ATOM     25  C   UNL     1      -3.491  11.099  17.706  0.00  0.00    +0.000 A 
ATOM     26  C   UNL     1      -2.551  10.372  16.972  0.00  0.00    +0.000 A 
ATOM     27  C   UNL     1      -1.219  10.300  17.402  0.00  0.00    +0.000 A 
BRANCH  26  28
ATOM     28  C   UNL     1      -2.956   9.695  15.719  0.00  0.00    +0.000 C 
ATOM     29  O   UNL     1      -2.944  10.266  14.635  0.00  0.00    +0.000 OA
ENDBRANCH  26  28
ENDBRANCH  21  22
ENDBRANCH   5  21
TORSDOF 6
ENDMDL
MODEL 2
REMARK VINA RESULT:      -8.5      1.174      2.246
REMARK  Name = 
REMARK  8 active torsions:
REMARK  status: ('A' for Active; 'I' for Inactive)
REMARK    1  A    between atoms: C_1  and  C_2
REMARK    2  A    between atoms: C_5  and  C_6
REMARK    3  A    between atoms: C_7  and  C_8
REMARK    4  A    between atoms: C_8  and  N_9
REMARK    5  A    between atoms: C_11  and  N_12
REMARK    6  A    between atoms: N_16  and  C_17
REMARK    7  A    between atoms: C_17  and  C_18
REMARK    8  A    between atoms: C_22  and  C_23
REMARK                            x       y       z     vdW  Elec       q    Type
REMARK                         _______ _______ _______ _____ _____    ______ ____
ROOT
ATOM      1  N   UNL     1       2.097   7.478  18.982  0.00  0.00    +0.000 N 
ATOM      2  C   UNL     1       1.607   7.516  20.266  0.00  0.00    +0.000 C 
ATOM      3  O   UNL     1       1.613   6.633  21.117  0.00  0.00    +0.000 OA
ATOM      4  C   UNL     1       1.048   8.906  20.521  0.00  0.00    +0.000 C 
ATOM      5  N   UNL     1       1.244   9.530  19.240  0.00  0.00    +0.000 N 
ATOM      6  C   UNL     1       1.902   8.688  18.352  0.00  0.00    +0.000 C 
ATOM      7  O   UNL     1       2.175   8.994  17.199  0.00  0.00    +0.000 OA
ENDROOT
BRANCH   1  10
ATOM      8  N   UNL     1       3.955   4.843  17.484  0.00  0.00    +0.000 N 
ATOM      9  C   UNL     1       3.884   6.144  17.905  0.00  0.00    +0.000 A 
ATOM     10  C   UNL     1       2.593   6.349  18.346  0.00  0.00    +0.000 A 
ATOM     11  C   UNL     1       1.942   5.124  18.056  0.00  0.00    +0.000 A 
ATOM     12  N   UNL     1       2.764   4.213  17.525  0.00  0.00    +0.000 NA
BRANCH   8  13
ATOM     13  C   UNL     1       5.176   4.078  17.242  0.00  0.00    +0.000 C 
BRANCH  13  20
ATOM     14  C   UNL     1       5.694   3.871  14.034  0.00  0.00    +0.000 C 
ATOM     15  C   UNL     1       6.389   4.730  15.025  0.00  0.00    +0.000 A 
ATOM     16  N   UNL     1       7.389   5.529  14.637  0.00  0.00    +0.000 NA
ATOM     17  O   UNL     1       7.831   6.165  15.778  0.00  0.00    +0.000 OA
ATOM     18  C   UNL     1       7.104   5.744  16.846  0.00  0.00    +0.000 A 
ATOM     19  C   UNL     1       7.479   6.319  18.151  0.00  0.00    +0.000 C 
ATOM     20  C   UNL     1       6.158   4.830  16.427  0.00  0.00    +0.000 A 
ENDBRANCH  13  20
ENDBRANCH   8  13
ENDBRANCH   1  10
BRANCH   5  21
ATOM     21  C   UNL     1       0.722  10.842  18.913  0.00  0.00    +0.000 C 
BRANCH  21  22
ATOM     22  C   UNL     1      -0.745  10.841  18.541  0.00  0.00    +0.000 A 
ATOM     23  C   UNL     1      -1.235   9.953  17.570  0.00  0.00    +0.000 A 
ATOM     24  C   UNL     1      -2.603   9.884  17.281  0.00  0.00    +0.000 A 
ATOM     25  C   UNL     1      -3.503  10.703  17.960  0.00  0.00    +0.000 A 
ATOM     26  C   UNL     1      -3.032  11.597  18.923  0.00  0.00    +0.000 A 
ATOM     27  C   UNL     1      -1.662  11.673  19.210  0.00  0.00    +0.000 A 
BRANCH  26  28
ATOM     28  C   UNL     1      -3.986  12.454  19.664  0.00  0.00    +0.000 C 
ATOM     29  O   UNL     1      -5.082  12.758  19.207  0.00  0.00    +0.000 OA
ENDBRANCH  26  28
ENDBRANCH  21  22
ENDBRANCH   5  21
TORSDOF 6
ENDMDL
MODEL 3
REMARK VINA RESULT:      -8.5      0.430      1.523
REMARK  Name = 
REMARK  8 active torsions:
REMARK  status: ('A' for Active; 'I' for Inactive)
REMARK    1  A    between atoms: C_1  and  C_2
REMARK    2  A    between atoms: C_5  and  C_6
REMARK    3  A    between atoms: C_7  and  C_8
REMARK    4  A    between atoms: C_8  and  N_9
REMARK    5  A    between atoms: C_11  and  N_12
REMARK    6  A    between atoms: N_16  and  C_17
REMARK    7  A    between atoms: C_17  and  C_18
REMARK    8  A    between atoms: C_22  and  C_23
REMARK                            x       y       z     vdW  Elec       q    Type
REMARK                         _______ _______ _______ _____ _____    ______ ____
ROOT
ATOM      1  N   UNL     1       2.111   7.514  19.170  0.00  0.00    +0.000 N 
ATOM      2  C   UNL     1       1.575   7.657  20.428  0.00  0.00    +0.000 C 
ATOM      3  O   UNL     1       1.525   6.838  21.340  0.00  0.00    +0.000 OA
ATOM      4  C   UNL     1       1.044   9.075  20.561  0.00  0.00    +0.000 C 
ATOM      5  N   UNL     1       1.305   9.599  19.247  0.00  0.00    +0.000 N 
ATOM      6  C   UNL     1       1.973   8.679  18.448  0.00  0.00    +0.000 C 
ATOM      7  O   UNL     1       2.297   8.893  17.288  0.00  0.00    +0.000 OA
ENDROOT
BRANCH   1  10
ATOM      8  N   UNL     1       3.944   4.781  17.823  0.00  0.00    +0.000 N 
ATOM      9  C   UNL     1       3.839   6.124  18.068  0.00  0.00    +0.000 A 
ATOM     10  C   UNL     1       2.600   6.329  18.637  0.00  0.00    +0.000 A 
ATOM     11  C   UNL     1       2.000   5.046  18.603  0.00  0.00    +0.000 A 
ATOM     12  N   UNL     1       2.809   4.108  18.101  0.00  0.00    +0.000 NA
BRANCH   8  13
ATOM     13  C   UNL     1       5.173   4.048  17.534  0.00  0.00    +0.000 C 
BRANCH  13  20
ATOM     14  C   UNL     1       5.470   4.051  14.292  0.00  0.00    +0.000 C 
ATOM     15  C   UNL     1       6.250   4.827  15.289  0.00  0.00    +0.000 A 
ATOM     16  N   UNL     1       7.241   5.631  14.887  0.00  0.00    +0.000 NA
ATOM     17  O   UNL     1       7.773   6.179  16.035  0.00  0.00    +0.000 OA
ATOM     18  C   UNL     1       7.110   5.700  17.120  0.00  0.00    +0.000 A 
ATOM     19  C   UNL     1       7.585   6.177  18.431  0.00  0.00    +0.000 C 
ATOM     20  C   UNL     1       6.116   4.835  16.706  0.00  0.00    +0.000 A 
ENDBRANCH  13  20
ENDBRANCH   8  13
ENDBRANCH   1  10
BRANCH   5  21
ATOM     21  C   UNL     1       0.831  10.896  18.807  0.00  0.00    +0.000 C 
BRANCH  21  22
ATOM     22  C   UNL     1      -0.654  10.941  18.523  0.00  0.00    +0.000 A 
ATOM     23  C   UNL     1      -1.521  11.654  19.367  0.00  0.00    +0.000 A 
ATOM     24  C   UNL     1      -2.883  11.774  19.066  0.00  0.00    +0.000 A 
ATOM     25  C   UNL     1      -3.399  11.181  17.915  0.00  0.00    +0.000 A 
ATOM     26  C   UNL     1      -2.553  10.462  17.069  0.00  0.00    +0.000 A 
ATOM     27  C   UNL     1      -1.190  10.335  17.371  0.00  0.00    +0.000 A 
BRANCH  26  28
ATOM     28  C   UNL     1      -3.091   9.849  15.833  0.00  0.00    +0.000 C 
ATOM     29  O   UNL     1      -2.732  10.208  14.717  0.00  0.00    +0.000 OA
ENDBRANCH  26  28
ENDBRANCH  21  22
ENDBRANCH   5  21
TORSDOF 6
ENDMDL
MODEL 4
REMARK VINA RESULT:      -8.1      2.869      8.641
REMARK  Name = 
REMARK  8 active torsions:
REMARK  status: ('A' for Active; 'I' for Inactive)
REMARK    1  A    between atoms: C_1  and  C_2
REMARK    2  A    between atoms: C_5  and  C_6
REMARK    3  A    between atoms: C_7  and  C_8
REMARK    4  A    between atoms: C_8  and  N_9
REMARK    5  A    between atoms: C_11  and  N_12
REMARK    6  A    between atoms: N_16  and  C_17
REMARK    7  A    between atoms: C_17  and  C_18
REMARK    8  A    between atoms: C_22  and  C_23
REMARK                            x       y       z     vdW  Elec       q    Type
REMARK                         _______ _______ _______ _____ _____    ______ ____
ROOT
ATOM      1  N   UNL     1       3.264   5.944  17.809  0.00  0.00    +0.000 N 
ATOM      2  C   UNL     1       2.707   4.700  17.625  0.00  0.00    +0.000 C 
ATOM      3  O   UNL     1       1.573   4.319  17.894  0.00  0.00    +0.000 OA
ATOM      4  C   UNL     1       3.746   3.806  16.967  0.00  0.00    +0.000 C 
ATOM      5  N   UNL     1       4.878   4.691  16.901  0.00  0.00    +0.000 N 
ATOM      6  C   UNL     1       4.568   5.963  17.363  0.00  0.00    +0.000 C 
ATOM      7  O   UNL     1       5.369   6.885  17.410  0.00  0.00    +0.000 OA
ENDROOT
BRANCH   1  10
ATOM      8  N   UNL     1       1.539   8.849  18.916  0.00  0.00    +0.000 N 
ATOM      9  C   UNL     1       2.184   8.170  17.917  0.00  0.00    +0.000 A 
ATOM     10  C   UNL     1       2.661   7.002  18.475  0.00  0.00    +0.000 A 
ATOM     11  C   UNL     1       2.324   7.124  19.845  0.00  0.00    +0.000 A 
ATOM     12  N   UNL     1       1.653   8.248  20.117  0.00  0.00    +0.000 NA
BRANCH   8  13
ATOM     13  C   UNL     1       0.608   9.962  18.744  0.00  0.00    +0.000 C 
BRANCH  13  20
ATOM     14  C   UNL     1      -0.458  10.606  21.752  0.00  0.00    +0.000 C 
ATOM     15  C   UNL     1       0.475  11.402  20.915  0.00  0.00    +0.000 A 
ATOM     16  N   UNL     1       0.960  12.563  21.370  0.00  0.00    +0.000 NA
ATOM     17  O   UNL     1       1.763  13.058  20.364  0.00  0.00    +0.000 OA
ATOM     18  C   UNL     1       1.751  12.204  19.308  0.00  0.00    +0.000 A 
ATOM     19  C   UNL     1       2.547  12.613  18.136  0.00  0.00    +0.000 C 
ATOM     20  C   UNL     1       0.950  11.118  19.603  0.00  0.00    +0.000 A 
ENDBRANCH  13  20
ENDBRANCH   8  13
ENDBRANCH   1  10
BRANCH   5  21
ATOM     21  C   UNL     1       6.197   4.253  16.486  0.00  0.00    +0.000 C 
BRANCH  21  22
ATOM     22  C   UNL     1       6.438   4.364  14.997  0.00  0.00    +0.000 A 
ATOM     23  C   UNL     1       7.442   5.208  14.496  0.00  0.00    +0.000 A 
ATOM     24  C   UNL     1       7.730   5.251  13.126  0.00  0.00    +0.000 A 
ATOM     25  C   UNL     1       7.018   4.450  12.236  0.00  0.00    +0.000 A 
ATOM     26  C   UNL     1       6.011   3.610  12.716  0.00  0.00    +0.000 A 
ATOM     27  C   UNL     1       5.716   3.569  14.086  0.00  0.00    +0.000 A 
BRANCH  26  28
ATOM     28  C   UNL     1       5.266   2.740  11.778  0.00  0.00    +0.000 C 
ATOM     29  O   UNL     1       4.144   3.025  11.374  0.00  0.00    +0.000 OA
ENDBRANCH  26  28
ENDBRANCH  21  22
ENDBRANCH   5  21
TORSDOF 6
ENDMDL
MODEL 5
REMARK VINA RESULT:      -8.1      2.892      8.696
REMARK  Name = 
REMARK  8 active torsions:
REMARK  status: ('A' for Active; 'I' for Inactive)
REMARK    1  A    between atoms: C_1  and  C_2
REMARK    2  A    between atoms: C_5  and  C_6
REMARK    3  A    between atoms: C_7  and  C_8
REMARK    4  A    between atoms: C_8  and  N_9
REMARK    5  A    between atoms: C_11  and  N_12
REMARK    6  A    between atoms: N_16  and  C_17
REMARK    7  A    between atoms: C_17  and  C_18
REMARK    8  A    between atoms: C_22  and  C_23
REMARK                            x       y       z     vdW  Elec       q    Type
REMARK                         _______ _______ _______ _____ _____    ______ ____
ROOT
ATOM      1  N   UNL     1       3.484   5.991  17.734  0.00  0.00    +0.000 N 
ATOM      2  C   UNL     1       3.021   4.709  17.558  0.00  0.00    +0.000 C 
ATOM      3  O   UNL     1       1.929   4.238  17.855  0.00  0.00    +0.000 OA
ATOM      4  C   UNL     1       4.108   3.902  16.865  0.00  0.00    +0.000 C 
ATOM      5  N   UNL     1       5.165   4.874  16.773  0.00  0.00    +0.000 N 
ATOM      6  C   UNL     1       4.769   6.115  17.253  0.00  0.00    +0.000 C 
ATOM      7  O   UNL     1       5.497   7.098  17.284  0.00  0.00    +0.000 OA
ENDROOT
BRANCH   1  10
ATOM      8  N   UNL     1       1.617   8.782  18.906  0.00  0.00    +0.000 N 
ATOM      9  C   UNL     1       2.325   8.173  17.904  0.00  0.00    +0.000 A 
ATOM     10  C   UNL     1       2.818   6.995  18.425  0.00  0.00    +0.000 A 
ATOM     11  C   UNL     1       2.423   7.039  19.784  0.00  0.00    +0.000 A 
ATOM     12  N   UNL     1       1.703   8.126  20.081  0.00  0.00    +0.000 NA
BRANCH   8  13
ATOM     13  C   UNL     1       0.657   9.871  18.749  0.00  0.00    +0.000 C 
BRANCH  13  20
ATOM     14  C   UNL     1       2.486  12.487  18.108  0.00  0.00    +0.000 C 
ATOM     15  C   UNL     1       1.762  12.154  19.360  0.00  0.00    +0.000 A 
ATOM     16  N   UNL     1       1.845  12.966  20.420  0.00  0.00    +0.000 NA
ATOM     17  O   UNL     1       1.092  12.374  21.412  0.00  0.00    +0.000 OA
ATOM     18  C   UNL     1       0.568  11.208  20.952  0.00  0.00    +0.000 A 
ATOM     19  C   UNL     1      -0.245  10.441  21.914  0.00  0.00    +0.000 C 
ATOM     20  C   UNL     1       0.954  11.015  19.641  0.00  0.00    +0.000 A 
ENDBRANCH  13  20
ENDBRANCH   8  13
ENDBRANCH   1  10
BRANCH   5  21
ATOM     21  C   UNL     1       6.502   4.543  16.319  0.00  0.00    +0.000 C 
BRANCH  21  22
ATOM     22  C   UNL     1       6.649   4.524  14.814  0.00  0.00    +0.000 A 
ATOM     23  C   UNL     1       7.617   5.320  14.179  0.00  0.00    +0.000 A 
ATOM     24  C   UNL     1       7.819   5.244  12.796  0.00  0.00    +0.000 A 
ATOM     25  C   UNL     1       7.056   4.370  12.025  0.00  0.00    +0.000 A 
ATOM     26  C   UNL     1       6.084   3.577  12.637  0.00  0.00    +0.000 A 
ATOM     27  C   UNL     1       5.875   3.655  14.021  0.00  0.00    +0.000 A 
BRANCH  26  28
ATOM     28  C   UNL     1       5.285   2.630  11.827  0.00  0.00    +0.000 C 
ATOM     29  O   UNL     1       4.267   2.973  11.237  0.00  0.00    +0.000 OA
ENDBRANCH  26  28
ENDBRANCH  21  22
ENDBRANCH   5  21
TORSDOF 6
ENDMDL
MODEL 6
REMARK VINA RESULT:      -7.9      1.150      1.913
REMARK  Name = 
REMARK  8 active torsions:
REMARK  status: ('A' for Active; 'I' for Inactive)
REMARK    1  A    between atoms: C_1  and  C_2
REMARK    2  A    between atoms: C_5  and  C_6
REMARK    3  A    between atoms: C_7  and  C_8
REMARK    4  A    between atoms: C_8  and  N_9
REMARK    5  A    between atoms: C_11  and  N_12
REMARK    6  A    between atoms: N_16  and  C_17
REMARK    7  A    between atoms: C_17  and  C_18
REMARK    8  A    between atoms: C_22  and  C_23
REMARK                            x       y       z     vdW  Elec       q    Type
REMARK                         _______ _______ _______ _____ _____    ______ ____
ROOT
ATOM      1  N   UNL     1       2.677   6.660  19.173  0.00  0.00    +0.000 N 
ATOM      2  C   UNL     1       1.833   6.806  20.249  0.00  0.00    +0.000 C 
ATOM      3  O   UNL     1       1.545   5.988  21.116  0.00  0.00    +0.000 OA
ATOM      4  C   UNL     1       1.294   8.227  20.242  0.00  0.00    +0.000 C 
ATOM      5  N   UNL     1       1.888   8.749  19.040  0.00  0.00    +0.000 N 
ATOM      6  C   UNL     1       2.735   7.826  18.441  0.00  0.00    +0.000 C 
ATOM      7  O   UNL     1       3.350   8.038  17.405  0.00  0.00    +0.000 OA
ENDROOT
BRANCH   1  10
ATOM      8  N   UNL     1       4.322   3.927  17.604  0.00  0.00    +0.000 N 
ATOM      9  C   UNL     1       3.615   5.094  17.500  0.00  0.00    +0.000 A 
ATOM     10  C   UNL     1       3.281   5.473  18.783  0.00  0.00    +0.000 A 
ATOM     11  C   UNL     1       3.760   4.406  19.582  0.00  0.00    +0.000 A 
ATOM     12  N   UNL     1       4.383   3.462  18.868  0.00  0.00    +0.000 NA
BRANCH   8  13
ATOM     13  C   UNL     1       5.154   3.324  16.566  0.00  0.00    +0.000 C 
BRANCH  13  20
ATOM     14  C   UNL     1       5.834   3.803  13.418  0.00  0.00    +0.000 C 
ATOM     15  C   UNL     1       6.410   4.492  14.600  0.00  0.00    +0.000 A 
ATOM     16  N   UNL     1       7.359   5.421  14.439  0.00  0.00    +0.000 NA
ATOM     17  O   UNL     1       7.695   5.844  15.708  0.00  0.00    +0.000 OA
ATOM     18  C   UNL     1       6.957   5.167  16.625  0.00  0.00    +0.000 A 
ATOM     19  C   UNL     1       7.223   5.493  18.038  0.00  0.00    +0.000 C 
ATOM     20  C   UNL     1       6.108   4.291  15.977  0.00  0.00    +0.000 A 
ENDBRANCH  13  20
ENDBRANCH   8  13
ENDBRANCH   1  10
BRANCH   5  21
ATOM     21  C   UNL     1       1.551  10.049  18.494  0.00  0.00    +0.000 C 
BRANCH  21  22
ATOM     22  C   UNL     1       0.068  10.349  18.502  0.00  0.00    +0.000 A 
ATOM     23  C   UNL     1      -0.491  11.164  19.500  0.00  0.00    +0.000 A 
ATOM     24  C   UNL     1      -1.845  11.519  19.466  0.00  0.00    +0.000 A 
ATOM     25  C   UNL     1      -2.662  11.063  18.434  0.00  0.00    +0.000 A 
ATOM     26  C   UNL     1      -2.125  10.245  17.438  0.00  0.00    +0.000 A 
ATOM     27  C   UNL     1      -0.771   9.884  17.472  0.00  0.00    +0.000 A 
BRANCH  26  28
ATOM     28  C   UNL     1      -2.982   9.776  16.326  0.00  0.00    +0.000 C 
ATOM     29  O   UNL     1      -2.883  10.227  15.190  0.00  0.00    +0.000 OA
ENDBRANCH  26  28
ENDBRANCH  21  22
ENDBRANCH   5  21
TORSDOF 6
ENDMDL
MODEL 7
REMARK VINA RESULT:      -7.9      1.066      1.170
REMARK  Name = 
REMARK  8 active torsions:
REMARK  status: ('A' for Active; 'I' for Inactive)
REMARK    1  A    between atoms: C_1  and  C_2
REMARK    2  A    between atoms: C_5  and  C_6
REMARK    3  A    between atoms: C_7  and  C_8
REMARK    4  A    between atoms: C_8  and  N_9
REMARK    5  A    between atoms: C_11  and  N_12
REMARK    6  A    between atoms: N_16  and  C_17
REMARK    7  A    between atoms: C_17  and  C_18
REMARK    8  A    between atoms: C_22  and  C_23
REMARK                            x       y       z     vdW  Elec       q    Type
REMARK                         _______ _______ _______ _____ _____    ______ ____
ROOT
ATOM      1  N   UNL     1       2.313   7.100  18.812  0.00  0.00    +0.000 N 
ATOM      2  C   UNL     1       1.795   7.160  20.084  0.00  0.00    +0.000 C 
ATOM      3  O   UNL     1       1.636   6.253  20.893  0.00  0.00    +0.000 OA
ATOM      4  C   UNL     1       1.451   8.609  20.390  0.00  0.00    +0.000 C 
ATOM      5  N   UNL     1       1.783   9.247  19.143  0.00  0.00    +0.000 N 
ATOM      6  C   UNL     1       2.329   8.351  18.234  0.00  0.00    +0.000 C 
ATOM      7  O   UNL     1       2.683   8.657  17.104  0.00  0.00    +0.000 OA
ENDROOT
BRANCH   1  10
ATOM      8  N   UNL     1       3.783   4.337  17.124  0.00  0.00    +0.000 N 
ATOM      9  C   UNL     1       3.848   5.645  17.524  0.00  0.00    +0.000 A 
ATOM     10  C   UNL     1       2.647   5.934  18.137  0.00  0.00    +0.000 A 
ATOM     11  C   UNL     1       1.891   4.748  17.967  0.00  0.00    +0.000 A 
ATOM     12  N   UNL     1       2.574   3.781  17.345  0.00  0.00    +0.000 NA
BRANCH   8  13
ATOM     13  C   UNL     1       4.909   3.496  16.729  0.00  0.00    +0.000 C 
BRANCH  13  20
ATOM     14  C   UNL     1       7.422   5.272  17.794  0.00  0.00    +0.000 C 
ATOM     15  C   UNL     1       7.001   5.019  16.393  0.00  0.00    +0.000 A 
ATOM     16  N   UNL     1       7.668   5.582  15.379  0.00  0.00    +0.000 NA
ATOM     17  O   UNL     1       7.024   5.176  14.229  0.00  0.00    +0.000 OA
ATOM     18  C   UNL     1       5.971   4.381  14.552  0.00  0.00    +0.000 A 
ATOM     19  C   UNL     1       5.163   3.887  13.422  0.00  0.00    +0.000 C 
ATOM     20  C   UNL     1       5.908   4.235  15.924  0.00  0.00    +0.000 A 
ENDBRANCH  13  20
ENDBRANCH   8  13
ENDBRANCH   1  10
BRANCH   5  21
ATOM     21  C   UNL     1       1.482  10.638  18.865  0.00  0.00    +0.000 C 
BRANCH  21  22
ATOM     22  C   UNL     1       0.007  10.969  18.926  0.00  0.00    +0.000 A 
ATOM     23  C   UNL     1      -0.452  12.046  19.702  0.00  0.00    +0.000 A 
ATOM     24  C   UNL     1      -1.803  12.413  19.696  0.00  0.00    +0.000 A 
ATOM     25  C   UNL     1      -2.716  11.709  18.914  0.00  0.00    +0.000 A 
ATOM     26  C   UNL     1      -2.278  10.630  18.143  0.00  0.00    +0.000 A 
ATOM     27  C   UNL     1      -0.927  10.256  18.151  0.00  0.00    +0.000 A 
BRANCH  26  28
ATOM     28  C   UNL     1      -3.239   9.892  17.293  0.00  0.00    +0.000 C 
ATOM     29  O   UNL     1      -4.030   9.078  17.757  0.00  0.00    +0.000 OA
ENDBRANCH  26  28
ENDBRANCH  21  22
ENDBRANCH   5  21
TORSDOF 6
ENDMDL
MODEL 8
REMARK VINA RESULT:      -7.9      1.573      2.005
REMARK  Name = 
REMARK  8 active torsions:
REMARK  status: ('A' for Active; 'I' for Inactive)
REMARK    1  A    between atoms: C_1  and  C_2
REMARK    2  A    between atoms: C_5  and  C_6
REMARK    3  A    between atoms: C_7  and  C_8
REMARK    4  A    between atoms: C_8  and  N_9
REMARK    5  A    between atoms: C_11  and  N_12
REMARK    6  A    between atoms: N_16  and  C_17
REMARK    7  A    between atoms: C_17  and  C_18
REMARK    8  A    between atoms: C_22  and  C_23
REMARK                            x       y       z     vdW  Elec       q    Type
REMARK                         _______ _______ _______ _____ _____    ______ ____
ROOT
ATOM      1  N   UNL     1       1.859   8.176  19.572  0.00  0.00    +0.000 N 
ATOM      2  C   UNL     1       1.212   8.531  20.732  0.00  0.00    +0.000 C 
ATOM      3  O   UNL     1       1.196   7.951  21.812  0.00  0.00    +0.000 OA
ATOM      4  C   UNL     1       0.495   9.851  20.493  0.00  0.00    +0.000 C 
ATOM      5  N   UNL     1       0.788  10.084  19.104  0.00  0.00    +0.000 N 
ATOM      6  C   UNL     1       1.629   9.108  18.583  0.00  0.00    +0.000 C 
ATOM      7  O   UNL     1       2.013   9.089  17.423  0.00  0.00    +0.000 OA
ENDROOT
BRANCH   1  10
ATOM      8  N   UNL     1       4.119   5.499  18.966  0.00  0.00    +0.000 N 
ATOM      9  C   UNL     1       3.803   6.826  18.845  0.00  0.00    +0.000 A 
ATOM     10  C   UNL     1       2.535   6.982  19.365  0.00  0.00    +0.000 A 
ATOM     11  C   UNL     1       2.141   5.660  19.688  0.00  0.00    +0.000 A 
ATOM     12  N   UNL     1       3.096   4.758  19.438  0.00  0.00    +0.000 NA
BRANCH   8  13
ATOM     13  C   UNL     1       5.452   4.914  18.857  0.00  0.00    +0.000 C 
BRANCH  13  20
ATOM     14  C   UNL     1       7.983   6.947  18.604  0.00  0.00    +0.000 C 
ATOM     15  C   UNL     1       7.257   6.240  17.519  0.00  0.00    +0.000 A 
ATOM     16  N   UNL     1       7.606   6.433  16.242  0.00  0.00    +0.000 NA
ATOM     17  O   UNL     1       6.739   5.666  15.492  0.00  0.00    +0.000 OA
ATOM     18  C   UNL     1       5.870   5.023  16.315  0.00  0.00    +0.000 A 
ATOM     19  C   UNL     1       4.858   4.179  15.654  0.00  0.00    +0.000 C 
ATOM     20  C   UNL     1       6.156   5.344  17.627  0.00  0.00    +0.000 A 
ENDBRANCH  13  20
ENDBRANCH   8  13
ENDBRANCH   1  10
BRANCH   5  21
ATOM     21  C   UNL     1       0.188  11.161  18.342  0.00  0.00    +0.000 C 
BRANCH  21  22
ATOM     22  C   UNL     1      -1.296  10.988  18.103  0.00  0.00    +0.000 A 
ATOM     23  C   UNL     1      -1.771   9.950  17.284  0.00  0.00    +0.000 A 
ATOM     24  C   UNL     1      -3.145   9.728  17.127  0.00  0.00    +0.000 A 
ATOM     25  C   UNL     1      -4.064  10.541  17.787  0.00  0.00    +0.000 A 
ATOM     26  C   UNL     1      -3.609  11.581  18.599  0.00  0.00    +0.000 A 
ATOM     27  C   UNL     1      -2.235  11.810  18.753  0.00  0.00    +0.000 A 
BRANCH  26  28
ATOM     28  C   UNL     1      -4.581  12.434  19.321  0.00  0.00    +0.000 C 
ATOM     29  O   UNL     1      -4.746  12.354  20.533  0.00  0.00    +0.000 OA
ENDBRANCH  26  28
ENDBRANCH  21  22
ENDBRANCH   5  21
TORSDOF 6
ENDMDL
MODEL 9
REMARK VINA RESULT:      -7.7      3.688      9.435
REMARK  Name = 
REMARK  8 active torsions:
REMARK  status: ('A' for Active; 'I' for Inactive)
REMARK    1  A    between atoms: C_1  and  C_2
REMARK    2  A    between atoms: C_5  and  C_6
REMARK    3  A    between atoms: C_7  and  C_8
REMARK    4  A    between atoms: C_8  and  N_9
REMARK    5  A    between atoms: C_11  and  N_12
REMARK    6  A    between atoms: N_16  and  C_17
REMARK    7  A    between atoms: C_17  and  C_18
REMARK    8  A    between atoms: C_22  and  C_23
REMARK                            x       y       z     vdW  Elec       q    Type
REMARK                         _______ _______ _______ _____ _____    ______ ____
ROOT
ATOM      1  N   UNL     1       0.796   9.800  20.142  0.00  0.00    +0.000 N 
ATOM      2  C   UNL     1       0.815   9.114  21.333  0.00  0.00    +0.000 C 
ATOM      3  O   UNL     1       0.349   9.445  22.418  0.00  0.00    +0.000 OA
ATOM      4  C   UNL     1       1.509   7.781  21.104  0.00  0.00    +0.000 C 
ATOM      5  N   UNL     1       1.886   7.893  19.720  0.00  0.00    +0.000 N 
ATOM      6  C   UNL     1       1.423   9.073  19.153  0.00  0.00    +0.000 C 
ATOM      7  O   UNL     1       1.625   9.395  17.990  0.00  0.00    +0.000 OA
ENDROOT
BRANCH   1  10
ATOM      8  N   UNL     1      -0.946  12.891  19.914  0.00  0.00    +0.000 N 
ATOM      9  C   UNL     1      -0.972  11.523  19.947  0.00  0.00    +0.000 A 
ATOM     10  C   UNL     1       0.341  11.100  19.973  0.00  0.00    +0.000 A 
ATOM     11  C   UNL     1       1.081  12.302  19.857  0.00  0.00    +0.000 A 
ATOM     12  N   UNL     1       0.303  13.389  19.811  0.00  0.00    +0.000 NA
BRANCH   8  13
ATOM     13  C   UNL     1      -2.064  13.785  20.201  0.00  0.00    +0.000 C 
BRANCH  13  20
ATOM     14  C   UNL     1      -1.552  13.124  23.348  0.00  0.00    +0.000 C 
ATOM     15  C   UNL     1      -2.785  12.905  22.549  0.00  0.00    +0.000 A 
ATOM     16  N   UNL     1      -3.858  12.339  23.113  0.00  0.00    +0.000 NA
ATOM     17  O   UNL     1      -4.809  12.256  22.118  0.00  0.00    +0.000 OA
ATOM     18  C   UNL     1      -4.305  12.762  20.962  0.00  0.00    +0.000 A 
ATOM     19  C   UNL     1      -5.202  12.718  19.792  0.00  0.00    +0.000 C 
ATOM     20  C   UNL     1      -3.014  13.202  21.176  0.00  0.00    +0.000 A 
ENDBRANCH  13  20
ENDBRANCH   8  13
ENDBRANCH   1  10
BRANCH   5  21
ATOM     21  C   UNL     1       2.730   6.922  19.052  0.00  0.00    +0.000 C 
BRANCH  21  22
ATOM     22  C   UNL     1       2.170   5.517  19.060  0.00  0.00    +0.000 A 
ATOM     23  C   UNL     1       1.832   4.875  17.857  0.00  0.00    +0.000 A 
ATOM     24  C   UNL     1       1.396   3.545  17.849  0.00  0.00    +0.000 A 
ATOM     25  C   UNL     1       1.289   2.836  19.043  0.00  0.00    +0.000 A 
ATOM     26  C   UNL     1       1.612   3.461  20.249  0.00  0.00    +0.000 A 
ATOM     27  C   UNL     1       2.045   4.794  20.262  0.00  0.00    +0.000 A 
BRANCH  26  28
ATOM     28  C   UNL     1       1.523   2.706  21.519  0.00  0.00    +0.000 C 
ATOM     29  O   UNL     1       2.480   2.585  22.276  0.00  0.00    +0.000 OA
ENDBRANCH  26  28
ENDBRANCH  21  22
ENDBRANCH   5  21
TORSDOF 6
ENDMDL
