MODEL 1
REMARK VINA RESULT:      -6.4      0.000      0.000
REMARK  Name = 
REMARK  6 active torsions:
REMARK  status: ('A' for Active; 'I' for Inactive)
REMARK    1  A    between atoms: C_1  and  C_2
REMARK    2  A    between atoms: C_5  and  N_6
REMARK    3  A    between atoms: C_7  and  C_9
REMARK    4  A    between atoms: C_17  and  C_18
REMARK    5  A    between atoms: C_20  and  C_21
REMARK    6  A    between atoms: N_22  and  C_23
REMARK                            x       y       z     vdW  Elec       q    Type
REMARK                         _______ _______ _______ _____ _____    ______ ____
ROOT
ATOM      1  C   UNL     1      -4.390  11.220  17.463  0.00  0.00    +0.000 C 
ATOM      2  C   UNL     1      -5.191  11.997  16.394  0.00  0.00    +0.000 C 
ATOM      3  C   UNL     1      -6.458  12.738  16.859  0.00  0.00    +0.000 C 
ATOM      4  C   UNL     1      -7.100  12.105  18.089  0.00  0.00    +0.000 C 
ATOM      5  N   UNL     1      -6.028  12.061  19.062  0.00  0.00    +0.000 N 
ATOM      6  C   UNL     1      -6.297  12.417  20.369  0.00  0.00    +0.000 A 
ATOM      7  N   UNL     1      -7.552  12.356  20.907  0.00  0.00    +0.000 NA
ATOM      8  N   UNL     1      -7.915  12.836  22.234  0.00  0.00    +0.000 NA
ATOM      9  C   UNL     1      -7.050  13.462  23.083  0.00  0.00    +0.000 A 
ATOM     10  C   UNL     1      -7.581  13.925  24.393  0.00  0.00    +0.000 C 
ATOM     11  C   UNL     1      -5.761  13.577  22.532  0.00  0.00    +0.000 A 
ATOM     12  C   UNL     1      -4.668  14.226  23.071  0.00  0.00    +0.000 A 
ATOM     13  C   UNL     1      -4.450  14.884  24.388  0.00  0.00    +0.000 C 
ATOM     14  N   UNL     1      -3.666  14.099  22.108  0.00  0.00    +0.000 N 
ATOM     15  N   UNL     1      -4.041  13.311  21.070  0.00  0.00    +0.000 NA
ATOM     16  C   UNL     1      -5.354  13.056  21.246  0.00  0.00    +0.000 A 
ATOM     17  C   UNL     1      -5.050  11.014  18.833  0.00  0.00    +0.000 C 
ENDROOT
BRANCH  14  18
ATOM     18  C   UNL     1      -2.363  14.680  22.103  0.00  0.00    +0.000 A 
ATOM     19  C   UNL     1      -1.301  14.003  22.716  0.00  0.00    +0.000 A 
ATOM     20  C   UNL     1      -0.032  14.588  22.752  0.00  0.00    +0.000 A 
ATOM     21  C   UNL     1       0.204  15.813  22.129  0.00  0.00    +0.000 A 
ATOM     22  C   UNL     1      -0.837  16.467  21.485  0.00  0.00    +0.000 A 
ATOM     23  C   UNL     1      -2.115  15.906  21.469  0.00  0.00    +0.000 A 
ENDBRANCH  14  18
BRANCH   1  25
ATOM     24  N   UNL     1      -2.512  12.178  18.835  0.00  0.00    +0.000 N 
ATOM     25  C   UNL     1      -2.916  11.528  17.685  0.00  0.00    +0.000 C 
ATOM     26  O   UNL     1      -2.141  11.092  16.829  0.00  0.00    +0.000 OA
ATOM     27  H   UNL     1      -3.197  12.315  19.565  0.00  0.00    +0.000 HD
BRANCH  24  32
ATOM     28  C   UNL     1       2.863  13.660  20.380  0.00  0.00    +0.000 C 
ATOM     29  C   UNL     1       1.502  13.264  19.881  0.00  0.00    +0.000 A 
ATOM     30  C   UNL     1       0.980  12.029  20.260  0.00  0.00    +0.000 A 
ATOM     31  C   UNL     1      -0.316  11.653  19.888  0.00  0.00    +0.000 A 
ATOM     32  C   UNL     1      -1.153  12.500  19.152  0.00  0.00    +0.000 A 
ATOM     33  C   UNL     1      -0.619  13.724  18.732  0.00  0.00    +0.000 A 
ATOM     34  C   UNL     1       0.694  14.100  19.091  0.00  0.00    +0.000 A 
ATOM     35 CL   UNL     1       1.272  15.648  18.574  0.00  0.00    +0.000 Cl
ENDBRANCH  24  32
ENDBRANCH   1  25
TORSDOF 3
ENDMDL
MODEL 2
REMARK VINA RESULT:      -6.3      2.965      6.748
REMARK  Name = 
REMARK  6 active torsions:
REMARK  status: ('A' for Active; 'I' for Inactive)
REMARK    1  A    between atoms: C_1  and  C_2
REMARK    2  A    between atoms: C_5  and  N_6
REMARK    3  A    between atoms: C_7  and  C_9
REMARK    4  A    between atoms: C_17  and  C_18
REMARK    5  A    between atoms: C_20  and  C_21
REMARK    6  A    between atoms: N_22  and  C_23
REMARK                            x       y       z     vdW  Elec       q    Type
REMARK                         _______ _______ _______ _____ _____    ______ ____
ROOT
ATOM      1  C   UNL     1      -1.276  11.697  18.474  0.00  0.00    +0.000 C 
ATOM      2  C   UNL     1      -0.451  10.427  18.781  0.00  0.00    +0.000 C 
ATOM      3  C   UNL     1       1.038  10.616  19.125  0.00  0.00    +0.000 C 
ATOM      4  C   UNL     1       1.637  11.873  18.503  0.00  0.00    +0.000 C 
ATOM      5  N   UNL     1       0.767  12.938  18.955  0.00  0.00    +0.000 N 
ATOM      6  C   UNL     1       1.331  14.122  19.389  0.00  0.00    +0.000 A 
ATOM      7  N   UNL     1       2.575  14.534  19.000  0.00  0.00    +0.000 NA
ATOM      8  N   UNL     1       3.267  15.704  19.522  0.00  0.00    +0.000 NA
ATOM      9  C   UNL     1       2.777  16.503  20.514  0.00  0.00    +0.000 A 
ATOM     10  C   UNL     1       3.620  17.643  20.963  0.00  0.00    +0.000 C 
ATOM     11  C   UNL     1       1.517  16.071  20.964  0.00  0.00    +0.000 A 
ATOM     12  C   UNL     1       0.771  16.585  22.007  0.00  0.00    +0.000 A 
ATOM     13  C   UNL     1       0.971  17.771  22.884  0.00  0.00    +0.000 C 
ATOM     14  N   UNL     1      -0.357  15.768  22.076  0.00  0.00    +0.000 N 
ATOM     15  N   UNL     1      -0.406  14.863  21.066  0.00  0.00    +0.000 NA
ATOM     16  C   UNL     1       0.776  14.953  20.423  0.00  0.00    +0.000 A 
ATOM     17  C   UNL     1      -0.508  13.008  18.265  0.00  0.00    +0.000 C 
ENDROOT
BRANCH  14  18
ATOM     18  C   UNL     1      -1.405  15.783  23.044  0.00  0.00    +0.000 A 
ATOM     19  C   UNL     1      -2.501  16.637  22.866  0.00  0.00    +0.000 A 
ATOM     20  C   UNL     1      -3.508  16.688  23.834  0.00  0.00    +0.000 A 
ATOM     21  C   UNL     1      -3.465  15.852  24.949  0.00  0.00    +0.000 A 
ATOM     22  C   UNL     1      -2.400  14.975  25.109  0.00  0.00    +0.000 A 
ATOM     23  C   UNL     1      -1.374  14.937  24.163  0.00  0.00    +0.000 A 
ENDBRANCH  14  18
BRANCH   1  25
ATOM     24  N   UNL     1      -2.463  12.840  20.374  0.00  0.00    +0.000 N 
ATOM     25  C   UNL     1      -2.532  12.003  19.277  0.00  0.00    +0.000 C 
ATOM     26  O   UNL     1      -3.582  11.529  18.834  0.00  0.00    +0.000 OA
ATOM     27  H   UNL     1      -1.598  13.335  20.537  0.00  0.00    +0.000 HD
BRANCH  24  32
ATOM     28  C   UNL     1      -6.784  14.539  23.827  0.00  0.00    +0.000 C 
ATOM     29  C   UNL     1      -5.712  14.007  22.917  0.00  0.00    +0.000 A 
ATOM     30  C   UNL     1      -5.567  14.568  21.650  0.00  0.00    +0.000 A 
ATOM     31  C   UNL     1      -4.531  14.162  20.801  0.00  0.00    +0.000 A 
ATOM     32  C   UNL     1      -3.583  13.207  21.188  0.00  0.00    +0.000 A 
ATOM     33  C   UNL     1      -3.749  12.610  22.443  0.00  0.00    +0.000 A 
ATOM     34  C   UNL     1      -4.803  13.005  23.296  0.00  0.00    +0.000 A 
ATOM     35 CL   UNL     1      -4.919  12.255  24.853  0.00  0.00    +0.000 Cl
ENDBRANCH  24  32
ENDBRANCH   1  25
TORSDOF 3
ENDMDL
MODEL 3
REMARK VINA RESULT:      -6.2      2.696      7.156
REMARK  Name = 
REMARK  6 active torsions:
REMARK  status: ('A' for Active; 'I' for Inactive)
REMARK    1  A    between atoms: C_1  and  C_2
REMARK    2  A    between atoms: C_5  and  N_6
REMARK    3  A    between atoms: C_7  and  C_9
REMARK    4  A    between atoms: C_17  and  C_18
REMARK    5  A    between atoms: C_20  and  C_21
REMARK    6  A    between atoms: N_22  and  C_23
REMARK                            x       y       z     vdW  Elec       q    Type
REMARK                         _______ _______ _______ _____ _____    ______ ____
ROOT
ATOM      1  C   UNL     1      -0.068  13.520  22.388  0.00  0.00    +0.000 C 
ATOM      2  C   UNL     1       0.816  14.620  21.758  0.00  0.00    +0.000 C 
ATOM      3  C   UNL     1       1.172  14.475  20.267  0.00  0.00    +0.000 C 
ATOM      4  C   UNL     1       1.180  13.024  19.797  0.00  0.00    +0.000 C 
ATOM      5  N   UNL     1      -0.131  12.529  20.161  0.00  0.00    +0.000 N 
ATOM      6  C   UNL     1      -0.824  11.745  19.259  0.00  0.00    +0.000 A 
ATOM      7  N   UNL     1      -0.203  11.031  18.272  0.00  0.00    +0.000 NA
ATOM      8  N   UNL     1      -0.888  10.292  17.220  0.00  0.00    +0.000 NA
ATOM      9  C   UNL     1      -2.242  10.273  17.057  0.00  0.00    +0.000 A 
ATOM     10  C   UNL     1      -2.790   9.499  15.911  0.00  0.00    +0.000 C 
ATOM     11  C   UNL     1      -2.901  11.041  18.034  0.00  0.00    +0.000 A 
ATOM     12  C   UNL     1      -4.252  11.315  18.122  0.00  0.00    +0.000 A 
ATOM     13  C   UNL     1      -5.420  10.830  17.338  0.00  0.00    +0.000 C 
ATOM     14  N   UNL     1      -4.374  12.160  19.225  0.00  0.00    +0.000 N 
ATOM     15  N   UNL     1      -3.201  12.323  19.887  0.00  0.00    +0.000 NA
ATOM     16  C   UNL     1      -2.256  11.733  19.127  0.00  0.00    +0.000 A 
ATOM     17  C   UNL     1      -0.295  12.239  21.573  0.00  0.00    +0.000 C 
ENDROOT
BRANCH  14  18
ATOM     18  C   UNL     1      -5.538  12.834  19.701  0.00  0.00    +0.000 A 
ATOM     19  C   UNL     1      -6.464  12.142  20.492  0.00  0.00    +0.000 A 
ATOM     20  C   UNL     1      -7.627  12.785  20.924  0.00  0.00    +0.000 A 
ATOM     21  C   UNL     1      -7.849  14.130  20.628  0.00  0.00    +0.000 A 
ATOM     22  C   UNL     1      -6.913  14.830  19.879  0.00  0.00    +0.000 A 
ATOM     23  C   UNL     1      -5.761  14.190  19.417  0.00  0.00    +0.000 A 
ENDBRANCH  14  18
BRANCH   1  25
ATOM     24  N   UNL     1      -2.581  13.624  22.443  0.00  0.00    +0.000 N 
ATOM     25  C   UNL     1      -1.378  13.891  23.068  0.00  0.00    +0.000 C 
ATOM     26  O   UNL     1      -1.279  14.350  24.210  0.00  0.00    +0.000 OA
ATOM     27  H   UNL     1      -2.561  13.066  21.601  0.00  0.00    +0.000 HD
BRANCH  24  32
ATOM     28  C   UNL     1      -7.916  14.736  24.384  0.00  0.00    +0.000 C 
ATOM     29  C   UNL     1      -6.493  14.509  23.956  0.00  0.00    +0.000 A 
ATOM     30  C   UNL     1      -5.926  13.251  24.149  0.00  0.00    +0.000 A 
ATOM     31  C   UNL     1      -4.634  12.969  23.692  0.00  0.00    +0.000 A 
ATOM     32  C   UNL     1      -3.868  13.914  22.999  0.00  0.00    +0.000 A 
ATOM     33  C   UNL     1      -4.416  15.192  22.839  0.00  0.00    +0.000 A 
ATOM     34  C   UNL     1      -5.714  15.486  23.314  0.00  0.00    +0.000 A 
ATOM     35 CL   UNL     1      -6.344  17.074  23.040  0.00  0.00    +0.000 Cl
ENDBRANCH  24  32
ENDBRANCH   1  25
TORSDOF 3
ENDMDL
MODEL 4
REMARK VINA RESULT:      -6.2      1.573      2.092
REMARK  Name = 
REMARK  6 active torsions:
REMARK  status: ('A' for Active; 'I' for Inactive)
REMARK    1  A    between atoms: C_1  and  C_2
REMARK    2  A    between atoms: C_5  and  N_6
REMARK    3  A    between atoms: C_7  and  C_9
REMARK    4  A    between atoms: C_17  and  C_18
REMARK    5  A    between atoms: C_20  and  C_21
REMARK    6  A    between atoms: N_22  and  C_23
REMARK                            x       y       z     vdW  Elec       q    Type
REMARK                         _______ _______ _______ _____ _____    ______ ____
ROOT
ATOM      1  C   UNL     1      -1.949  10.028  17.274  0.00  0.00    +0.000 C 
ATOM      2  C   UNL     1      -2.358  10.409  15.833  0.00  0.00    +0.000 C 
ATOM      3  C   UNL     1      -3.729  11.082  15.640  0.00  0.00    +0.000 C 
ATOM      4  C   UNL     1      -4.735  10.702  16.722  0.00  0.00    +0.000 C 
ATOM      5  N   UNL     1      -4.062  11.035  17.961  0.00  0.00    +0.000 N 
ATOM      6  C   UNL     1      -4.774  11.670  18.959  0.00  0.00    +0.000 A 
ATOM      7  N   UNL     1      -6.135  11.593  19.058  0.00  0.00    +0.000 NA
ATOM      8  N   UNL     1      -6.946  12.341  20.009  0.00  0.00    +0.000 NA
ATOM      9  C   UNL     1      -6.445  13.261  20.883  0.00  0.00    +0.000 A 
ATOM     10  C   UNL     1      -7.408  13.968  21.770  0.00  0.00    +0.000 C 
ATOM     11  C   UNL     1      -5.050  13.392  20.768  0.00  0.00    +0.000 A 
ATOM     12  C   UNL     1      -4.228  14.284  21.429  0.00  0.00    +0.000 A 
ATOM     13  C   UNL     1      -4.496  15.272  22.509  0.00  0.00    +0.000 C 
ATOM     14  N   UNL     1      -2.954  14.045  20.915  0.00  0.00    +0.000 N 
ATOM     15  N   UNL     1      -2.925  12.982  20.072  0.00  0.00    +0.000 NA
ATOM     16  C   UNL     1      -4.210  12.620  19.880  0.00  0.00    +0.000 A 
ATOM     17  C   UNL     1      -3.032  10.092  18.359  0.00  0.00    +0.000 C 
ENDROOT
BRANCH  14  18
ATOM     18  C   UNL     1      -1.746  14.761  21.169  0.00  0.00    +0.000 A 
ATOM     19  C   UNL     1      -1.109  14.625  22.409  0.00  0.00    +0.000 A 
ATOM     20  C   UNL     1       0.050  15.359  22.679  0.00  0.00    +0.000 A 
ATOM     21  C   UNL     1       0.615  16.180  21.704  0.00  0.00    +0.000 A 
ATOM     22  C   UNL     1       0.008  16.286  20.460  0.00  0.00    +0.000 A 
ATOM     23  C   UNL     1      -1.166  15.580  20.189  0.00  0.00    +0.000 A 
ENDBRANCH  14  18
BRANCH   1  25
ATOM     24  N   UNL     1      -0.589  11.858  18.337  0.00  0.00    +0.000 N 
ATOM     25  C   UNL     1      -0.651  10.561  17.864  0.00  0.00    +0.000 C 
ATOM     26  O   UNL     1       0.271   9.746  17.958  0.00  0.00    +0.000 OA
ATOM     27  H   UNL     1      -1.451  12.380  18.399  0.00  0.00    +0.000 HD
BRANCH  24  32
ATOM     28  C   UNL     1       3.920  14.541  20.777  0.00  0.00    +0.000 C 
ATOM     29  C   UNL     1       2.817  13.786  20.089  0.00  0.00    +0.000 A 
ATOM     30  C   UNL     1       2.044  12.898  20.834  0.00  0.00    +0.000 A 
ATOM     31  C   UNL     1       0.955  12.236  20.256  0.00  0.00    +0.000 A 
ATOM     32  C   UNL     1       0.573  12.453  18.927  0.00  0.00    +0.000 A 
ATOM     33  C   UNL     1       1.371  13.311  18.162  0.00  0.00    +0.000 A 
ATOM     34  C   UNL     1       2.481  13.969  18.737  0.00  0.00    +0.000 A 
ATOM     35 CL   UNL     1       3.396  15.052  17.743  0.00  0.00    +0.000 Cl
ENDBRANCH  24  32
ENDBRANCH   1  25
TORSDOF 3
ENDMDL
MODEL 5
REMARK VINA RESULT:      -6.2      1.528      2.024
REMARK  Name = 
REMARK  6 active torsions:
REMARK  status: ('A' for Active; 'I' for Inactive)
REMARK    1  A    between atoms: C_1  and  C_2
REMARK    2  A    between atoms: C_5  and  N_6
REMARK    3  A    between atoms: C_7  and  C_9
REMARK    4  A    between atoms: C_17  and  C_18
REMARK    5  A    between atoms: C_20  and  C_21
REMARK    6  A    between atoms: N_22  and  C_23
REMARK                            x       y       z     vdW  Elec       q    Type
REMARK                         _______ _______ _______ _____ _____    ______ ____
ROOT
ATOM      1  C   UNL     1      -5.886  12.119  16.985  0.00  0.00    +0.000 C 
ATOM      2  C   UNL     1      -6.294  13.465  16.345  0.00  0.00    +0.000 C 
ATOM      3  C   UNL     1      -7.029  14.480  17.239  0.00  0.00    +0.000 C 
ATOM      4  C   UNL     1      -7.812  13.819  18.369  0.00  0.00    +0.000 C 
ATOM      5  N   UNL     1      -6.827  13.007  19.052  0.00  0.00    +0.000 N 
ATOM      6  C   UNL     1      -6.811  12.995  20.433  0.00  0.00    +0.000 A 
ATOM      7  N   UNL     1      -7.910  13.305  21.186  0.00  0.00    +0.000 NA
ATOM      8  N   UNL     1      -7.917  13.432  22.637  0.00  0.00    +0.000 NA
ATOM      9  C   UNL     1      -6.806  13.313  23.420  0.00  0.00    +0.000 A 
ATOM     10  C   UNL     1      -6.970  13.503  24.886  0.00  0.00    +0.000 C 
ATOM     11  C   UNL     1      -5.653  13.039  22.662  0.00  0.00    +0.000 A 
ATOM     12  C   UNL     1      -4.351  12.943  23.111  0.00  0.00    +0.000 A 
ATOM     13  C   UNL     1      -3.764  12.975  24.479  0.00  0.00    +0.000 C 
ATOM     14  N   UNL     1      -3.592  12.722  21.962  0.00  0.00    +0.000 N 
ATOM     15  N   UNL     1      -4.360  12.557  20.856  0.00  0.00    +0.000 NA
ATOM     16  C   UNL     1      -5.624  12.845  21.229  0.00  0.00    +0.000 A 
ATOM     17  C   UNL     1      -6.475  11.780  18.361  0.00  0.00    +0.000 C 
ENDROOT
BRANCH  14  18
ATOM     18  C   UNL     1      -2.173  12.656  21.836  0.00  0.00    +0.000 A 
ATOM     19  C   UNL     1      -1.524  11.420  21.947  0.00  0.00    +0.000 A 
ATOM     20  C   UNL     1      -0.130  11.357  21.868  0.00  0.00    +0.000 A 
ATOM     21  C   UNL     1       0.622  12.505  21.619  0.00  0.00    +0.000 A 
ATOM     22  C   UNL     1      -0.022  13.726  21.467  0.00  0.00    +0.000 A 
ATOM     23  C   UNL     1      -1.411  13.805  21.573  0.00  0.00    +0.000 A 
ENDBRANCH  14  18
BRANCH   1  25
ATOM     24  N   UNL     1      -3.604  11.976  18.034  0.00  0.00    +0.000 N 
ATOM     25  C   UNL     1      -4.430  11.676  16.967  0.00  0.00    +0.000 C 
ATOM     26  O   UNL     1      -4.090  10.986  16.002  0.00  0.00    +0.000 OA
ATOM     27  H   UNL     1      -4.027  12.369  18.862  0.00  0.00    +0.000 HD
BRANCH  24  32
ATOM     28  C   UNL     1       1.948  10.510  18.745  0.00  0.00    +0.000 C 
ATOM     29  C   UNL     1       0.527  10.911  18.459  0.00  0.00    +0.000 A 
ATOM     30  C   UNL     1      -0.463   9.930  18.472  0.00  0.00    +0.000 A 
ATOM     31  C   UNL     1      -1.809  10.268  18.294  0.00  0.00    +0.000 A 
ATOM     32  C   UNL     1      -2.227  11.594  18.128  0.00  0.00    +0.000 A 
ATOM     33  C   UNL     1      -1.233  12.578  18.072  0.00  0.00    +0.000 A 
ATOM     34  C   UNL     1       0.129  12.239  18.234  0.00  0.00    +0.000 A 
ATOM     35 CL   UNL     1       1.299  13.514  18.199  0.00  0.00    +0.000 Cl
ENDBRANCH  24  32
ENDBRANCH   1  25
TORSDOF 3
ENDMDL
MODEL 6
REMARK VINA RESULT:      -6.1      2.674      5.528
REMARK  Name = 
REMARK  6 active torsions:
REMARK  status: ('A' for Active; 'I' for Inactive)
REMARK    1  A    between atoms: C_1  and  C_2
REMARK    2  A    between atoms: C_5  and  N_6
REMARK    3  A    between atoms: C_7  and  C_9
REMARK    4  A    between atoms: C_17  and  C_18
REMARK    5  A    between atoms: C_20  and  C_21
REMARK    6  A    between atoms: N_22  and  C_23
REMARK                            x       y       z     vdW  Elec       q    Type
REMARK                         _______ _______ _______ _____ _____    ______ ____
ROOT
ATOM      1  C   UNL     1      -6.479  13.049  18.608  0.00  0.00    +0.000 C 
ATOM      2  C   UNL     1      -7.349  11.884  19.130  0.00  0.00    +0.000 C 
ATOM      3  C   UNL     1      -6.738  10.471  19.094  0.00  0.00    +0.000 C 
ATOM      4  C   UNL     1      -5.687  10.306  18.000  0.00  0.00    +0.000 C 
ATOM      5  N   UNL     1      -4.742  11.373  18.255  0.00  0.00    +0.000 N 
ATOM      6  C   UNL     1      -3.391  11.103  18.172  0.00  0.00    +0.000 A 
ATOM      7  N   UNL     1      -2.890  10.068  17.432  0.00  0.00    +0.000 NA
ATOM      8  N   UNL     1      -1.491   9.660  17.409  0.00  0.00    +0.000 NA
ATOM      9  C   UNL     1      -0.516  10.231  18.174  0.00  0.00    +0.000 A 
ATOM     10  C   UNL     1       0.862   9.680  18.062  0.00  0.00    +0.000 C 
ATOM     11  C   UNL     1      -1.017  11.270  18.978  0.00  0.00    +0.000 A 
ATOM     12  C   UNL     1      -0.337  12.003  19.931  0.00  0.00    +0.000 A 
ATOM     13  C   UNL     1       1.097  12.030  20.330  0.00  0.00    +0.000 C 
ATOM     14  N   UNL     1      -1.296  12.855  20.479  0.00  0.00    +0.000 N 
ATOM     15  N   UNL     1      -2.489  12.773  19.838  0.00  0.00    +0.000 NA
ATOM     16  C   UNL     1      -2.385  11.739  18.978  0.00  0.00    +0.000 A 
ATOM     17  C   UNL     1      -5.196  12.690  17.846  0.00  0.00    +0.000 C 
ENDROOT
BRANCH  14  18
ATOM     18  C   UNL     1      -1.161  13.751  21.580  0.00  0.00    +0.000 A 
ATOM     19  C   UNL     1      -0.630  15.030  21.371  0.00  0.00    +0.000 A 
ATOM     20  C   UNL     1      -0.454  15.895  22.454  0.00  0.00    +0.000 A 
ATOM     21  C   UNL     1      -0.858  15.523  23.736  0.00  0.00    +0.000 A 
ATOM     22  C   UNL     1      -1.423  14.271  23.939  0.00  0.00    +0.000 A 
ATOM     23  C   UNL     1      -1.576  13.387  22.870  0.00  0.00    +0.000 A 
ENDBRANCH  14  18
BRANCH   1  25
ATOM     24  N   UNL     1      -4.931  14.383  20.075  0.00  0.00    +0.000 N 
ATOM     25  C   UNL     1      -6.182  14.241  19.506  0.00  0.00    +0.000 C 
ATOM     26  O   UNL     1      -7.087  15.075  19.608  0.00  0.00    +0.000 OA
ATOM     27  H   UNL     1      -4.201  13.755  19.771  0.00  0.00    +0.000 HD
BRANCH  24  32
ATOM     28  C   UNL     1      -3.057  18.626  23.534  0.00  0.00    +0.000 C 
ATOM     29  C   UNL     1      -3.641  17.550  22.661  0.00  0.00    +0.000 A 
ATOM     30  C   UNL     1      -3.547  17.682  21.277  0.00  0.00    +0.000 A 
ATOM     31  C   UNL     1      -4.003  16.668  20.428  0.00  0.00    +0.000 A 
ATOM     32  C   UNL     1      -4.540  15.472  20.919  0.00  0.00    +0.000 A 
ATOM     33  C   UNL     1      -4.677  15.352  22.307  0.00  0.00    +0.000 A 
ATOM     34  C   UNL     1      -4.233  16.381  23.167  0.00  0.00    +0.000 A 
ATOM     35 CL   UNL     1      -4.392  16.143  24.875  0.00  0.00    +0.000 Cl
ENDBRANCH  24  32
ENDBRANCH   1  25
TORSDOF 3
ENDMDL
MODEL 7
REMARK VINA RESULT:      -6.1      2.371      5.497
REMARK  Name = 
REMARK  6 active torsions:
REMARK  status: ('A' for Active; 'I' for Inactive)
REMARK    1  A    between atoms: C_1  and  C_2
REMARK    2  A    between atoms: C_5  and  N_6
REMARK    3  A    between atoms: C_7  and  C_9
REMARK    4  A    between atoms: C_17  and  C_18
REMARK    5  A    between atoms: C_20  and  C_21
REMARK    6  A    between atoms: N_22  and  C_23
REMARK                            x       y       z     vdW  Elec       q    Type
REMARK                         _______ _______ _______ _____ _____    ______ ____
ROOT
ATOM      1  C   UNL     1      -6.897  13.116  19.417  0.00  0.00    +0.000 C 
ATOM      2  C   UNL     1      -7.686  11.906  19.964  0.00  0.00    +0.000 C 
ATOM      3  C   UNL     1      -7.059  10.512  19.786  0.00  0.00    +0.000 C 
ATOM      4  C   UNL     1      -6.129  10.427  18.579  0.00  0.00    +0.000 C 
ATOM      5  N   UNL     1      -5.180  11.500  18.791  0.00  0.00    +0.000 N 
ATOM      6  C   UNL     1      -3.841  11.265  18.550  0.00  0.00    +0.000 A 
ATOM      7  N   UNL     1      -3.404  10.282  17.707  0.00  0.00    +0.000 NA
ATOM      8  N   UNL     1      -2.010   9.907  17.513  0.00  0.00    +0.000 NA
ATOM      9  C   UNL     1      -0.968  10.459  18.200  0.00  0.00    +0.000 A 
ATOM     10  C   UNL     1       0.398   9.945  17.913  0.00  0.00    +0.000 C 
ATOM     11  C   UNL     1      -1.398  11.442  19.109  0.00  0.00    +0.000 A 
ATOM     12  C   UNL     1      -0.632  12.139  20.023  0.00  0.00    +0.000 A 
ATOM     13  C   UNL     1       0.836  12.177  20.269  0.00  0.00    +0.000 C 
ATOM     14  N   UNL     1      -1.541  12.940  20.714  0.00  0.00    +0.000 N 
ATOM     15  N   UNL     1      -2.794  12.865  20.200  0.00  0.00    +0.000 NA
ATOM     16  C   UNL     1      -2.765  11.881  19.279  0.00  0.00    +0.000 A 
ATOM     17  C   UNL     1      -5.696  12.826  18.505  0.00  0.00    +0.000 C 
ENDROOT
BRANCH  14  18
ATOM     18  C   UNL     1      -1.303  13.780  21.842  0.00  0.00    +0.000 A 
ATOM     19  C   UNL     1      -0.555  14.954  21.687  0.00  0.00    +0.000 A 
ATOM     20  C   UNL     1      -0.282  15.757  22.797  0.00  0.00    +0.000 A 
ATOM     21  C   UNL     1      -0.799  15.435  24.052  0.00  0.00    +0.000 A 
ATOM     22  C   UNL     1      -1.575  14.294  24.202  0.00  0.00    +0.000 A 
ATOM     23  C   UNL     1      -1.829  13.469  23.105  0.00  0.00    +0.000 A 
ENDBRANCH  14  18
BRANCH   1  25
ATOM     24  N   UNL     1      -5.409  14.170  21.150  0.00  0.00    +0.000 N 
ATOM     25  C   UNL     1      -6.525  14.266  20.342  0.00  0.00    +0.000 C 
ATOM     26  O   UNL     1      -7.226  15.278  20.249  0.00  0.00    +0.000 OA
ATOM     27  H   UNL     1      -4.789  13.385  21.007  0.00  0.00    +0.000 HD
BRANCH  24  32
ATOM     28  C   UNL     1      -3.836  18.518  24.628  0.00  0.00    +0.000 C 
ATOM     29  C   UNL     1      -4.147  17.352  23.731  0.00  0.00    +0.000 A 
ATOM     30  C   UNL     1      -4.986  16.345  24.205  0.00  0.00    +0.000 A 
ATOM     31  C   UNL     1      -5.369  15.284  23.378  0.00  0.00    +0.000 A 
ATOM     32  C   UNL     1      -4.960  15.196  22.042  0.00  0.00    +0.000 A 
ATOM     33  C   UNL     1      -4.082  16.181  21.574  0.00  0.00    +0.000 A 
ATOM     34  C   UNL     1      -3.680  17.246  22.411  0.00  0.00    +0.000 A 
ATOM     35 CL   UNL     1      -2.629  18.453  21.750  0.00  0.00    +0.000 Cl
ENDBRANCH  24  32
ENDBRANCH   1  25
TORSDOF 3
ENDMDL
MODEL 8
REMARK VINA RESULT:      -6.1      1.506      1.933
REMARK  Name = 
REMARK  6 active torsions:
REMARK  status: ('A' for Active; 'I' for Inactive)
REMARK    1  A    between atoms: C_1  and  C_2
REMARK    2  A    between atoms: C_5  and  N_6
REMARK    3  A    between atoms: C_7  and  C_9
REMARK    4  A    between atoms: C_17  and  C_18
REMARK    5  A    between atoms: C_20  and  C_21
REMARK    6  A    between atoms: N_22  and  C_23
REMARK                            x       y       z     vdW  Elec       q    Type
REMARK                         _______ _______ _______ _____ _____    ______ ____
ROOT
ATOM      1  C   UNL     1      -5.284  11.547  17.079  0.00  0.00    +0.000 C 
ATOM      2  C   UNL     1      -6.045  12.644  16.302  0.00  0.00    +0.000 C 
ATOM      3  C   UNL     1      -7.090  13.467  17.078  0.00  0.00    +0.000 C 
ATOM      4  C   UNL     1      -7.692  12.705  18.255  0.00  0.00    +0.000 C 
ATOM      5  N   UNL     1      -6.542  12.292  19.032  0.00  0.00    +0.000 N 
ATOM      6  C   UNL     1      -6.586  12.409  20.407  0.00  0.00    +0.000 A 
ATOM      7  N   UNL     1      -7.761  12.441  21.107  0.00  0.00    +0.000 NA
ATOM      8  N   UNL     1      -7.872  12.690  22.538  0.00  0.00    +0.000 NA
ATOM      9  C   UNL     1      -6.813  12.981  23.348  0.00  0.00    +0.000 A 
ATOM     10  C   UNL     1      -7.094  13.244  24.785  0.00  0.00    +0.000 C 
ATOM     11  C   UNL     1      -5.598  13.001  22.640  0.00  0.00    +0.000 A 
ATOM     12  C   UNL     1      -4.348  13.342  23.118  0.00  0.00    +0.000 A 
ATOM     13  C   UNL     1      -3.861  13.672  24.485  0.00  0.00    +0.000 C 
ATOM     14  N   UNL     1      -3.506  13.257  22.010  0.00  0.00    +0.000 N 
ATOM     15  N   UNL     1      -4.138  12.770  20.913  0.00  0.00    +0.000 NA
ATOM     16  C   UNL     1      -5.446  12.696  21.235  0.00  0.00    +0.000 A 
ATOM     17  C   UNL     1      -5.808  11.172  18.472  0.00  0.00    +0.000 C 
ENDROOT
BRANCH  14  18
ATOM     18  C   UNL     1      -2.127  13.611  21.914  0.00  0.00    +0.000 A 
ATOM     19  C   UNL     1      -1.770  14.944  21.672  0.00  0.00    +0.000 A 
ATOM     20  C   UNL     1      -0.422  15.288  21.534  0.00  0.00    +0.000 A 
ATOM     21  C   UNL     1       0.577  14.329  21.696  0.00  0.00    +0.000 A 
ATOM     22  C   UNL     1       0.228  13.015  21.977  0.00  0.00    +0.000 A 
ATOM     23  C   UNL     1      -1.116  12.654  22.088  0.00  0.00    +0.000 A 
ENDBRANCH  14  18
BRANCH   1  25
ATOM     24  N   UNL     1      -3.115  12.003  18.269  0.00  0.00    +0.000 N 
ATOM     25  C   UNL     1      -3.763  11.564  17.130  0.00  0.00    +0.000 C 
ATOM     26  O   UNL     1      -3.187  11.093  16.145  0.00  0.00    +0.000 OA
ATOM     27  H   UNL     1      -3.674  12.179  19.092  0.00  0.00    +0.000 HD
BRANCH  24  32
ATOM     28  C   UNL     1       2.661  12.057  18.601  0.00  0.00    +0.000 C 
ATOM     29  C   UNL     1       1.158  12.031  18.619  0.00  0.00    +0.000 A 
ATOM     30  C   UNL     1       0.462  13.205  18.338  0.00  0.00    +0.000 A 
ATOM     31  C   UNL     1      -0.935  13.209  18.261  0.00  0.00    +0.000 A 
ATOM     32  C   UNL     1      -1.693  12.044  18.430  0.00  0.00    +0.000 A 
ATOM     33  C   UNL     1      -1.002  10.871  18.755  0.00  0.00    +0.000 A 
ATOM     34  C   UNL     1       0.408  10.866  18.849  0.00  0.00    +0.000 A 
ATOM     35 CL   UNL     1       1.198   9.368  19.209  0.00  0.00    +0.000 Cl
ENDBRANCH  24  32
ENDBRANCH   1  25
TORSDOF 3
ENDMDL
MODEL 9
REMARK VINA RESULT:      -5.9      2.757      6.597
REMARK  Name = 
REMARK  6 active torsions:
REMARK  status: ('A' for Active; 'I' for Inactive)
REMARK    1  A    between atoms: C_1  and  C_2
REMARK    2  A    between atoms: C_5  and  N_6
REMARK    3  A    between atoms: C_7  and  C_9
REMARK    4  A    between atoms: C_17  and  C_18
REMARK    5  A    between atoms: C_20  and  C_21
REMARK    6  A    between atoms: N_22  and  C_23
REMARK                            x       y       z     vdW  Elec       q    Type
REMARK                         _______ _______ _______ _____ _____    ______ ____
ROOT
ATOM      1  C   UNL     1      -1.781  11.580  18.544  0.00  0.00    +0.000 C 
ATOM      2  C   UNL     1      -1.255  10.160  18.850  0.00  0.00    +0.000 C 
ATOM      3  C   UNL     1       0.216  10.027  19.283  0.00  0.00    +0.000 C 
ATOM      4  C   UNL     1       1.099  11.147  18.742  0.00  0.00    +0.000 C 
ATOM      5  N   UNL     1       0.441  12.359  19.184  0.00  0.00    +0.000 N 
ATOM      6  C   UNL     1       1.207  13.389  19.692  0.00  0.00    +0.000 A 
ATOM      7  N   UNL     1       2.531  13.543  19.388  0.00  0.00    +0.000 NA
ATOM      8  N   UNL     1       3.415  14.532  19.991  0.00  0.00    +0.000 NA
ATOM      9  C   UNL     1       3.040  15.390  20.982  0.00  0.00    +0.000 A 
ATOM     10  C   UNL     1       4.069  16.320  21.519  0.00  0.00    +0.000 C 
ATOM     11  C   UNL     1       1.692  15.218  21.345  0.00  0.00    +0.000 A 
ATOM     12  C   UNL     1       1.004  15.850  22.362  0.00  0.00    +0.000 A 
ATOM     13  C   UNL     1       1.389  16.947  23.293  0.00  0.00    +0.000 C 
ATOM     14  N   UNL     1      -0.270  15.284  22.339  0.00  0.00    +0.000 N 
ATOM     15  N   UNL     1      -0.441  14.434  21.296  0.00  0.00    +0.000 NA
ATOM     16  C   UNL     1       0.772  14.292  20.723  0.00  0.00    +0.000 A 
ATOM     17  C   UNL     1      -0.747  12.709  18.427  0.00  0.00    +0.000 C 
ENDROOT
BRANCH  14  18
ATOM     18  C   UNL     1      -1.350  15.492  23.247  0.00  0.00    +0.000 A 
ATOM     19  C   UNL     1      -2.330  16.448  22.950  0.00  0.00    +0.000 A 
ATOM     20  C   UNL     1      -3.366  16.687  23.858  0.00  0.00    +0.000 A 
ATOM     21  C   UNL     1      -3.470  15.941  25.031  0.00  0.00    +0.000 A 
ATOM     22  C   UNL     1      -2.523  14.965  25.309  0.00  0.00    +0.000 A 
ATOM     23  C   UNL     1      -1.468  14.737  24.424  0.00  0.00    +0.000 A 
ENDBRANCH  14  18
BRANCH   1  25
ATOM     24  N   UNL     1      -2.826  12.832  20.459  0.00  0.00    +0.000 N 
ATOM     25  C   UNL     1      -2.994  12.120  19.287  0.00  0.00    +0.000 C 
ATOM     26  O   UNL     1      -4.083  11.949  18.733  0.00  0.00    +0.000 OA
ATOM     27  H   UNL     1      -1.886  13.089  20.724  0.00  0.00    +0.000 HD
BRANCH  24  32
ATOM     28  C   UNL     1      -7.360  14.945  23.367  0.00  0.00    +0.000 C 
ATOM     29  C   UNL     1      -6.129  14.482  22.639  0.00  0.00    +0.000 A 
ATOM     30  C   UNL     1      -5.420  13.393  23.143  0.00  0.00    +0.000 A 
ATOM     31  C   UNL     1      -4.317  12.875  22.455  0.00  0.00    +0.000 A 
ATOM     32  C   UNL     1      -3.894  13.398  21.227  0.00  0.00    +0.000 A 
ATOM     33  C   UNL     1      -4.576  14.519  20.738  0.00  0.00    +0.000 A 
ATOM     34  C   UNL     1      -5.680  15.055  21.438  0.00  0.00    +0.000 A 
ATOM     35 CL   UNL     1      -6.503  16.413  20.749  0.00  0.00    +0.000 Cl
ENDBRANCH  24  32
ENDBRANCH   1  25
TORSDOF 3
ENDMDL
