MODEL 1
REMARK VINA RESULT:      -8.5      0.000      0.000
REMARK  Name = 
REMARK  4 active torsions:
REMARK  status: ('A' for Active; 'I' for Inactive)
REMARK    1  A    between atoms: C_1  and  N_2
REMARK    2  A    between atoms: C_7  and  C_8
REMARK    3  A    between atoms: C_9  and  C_10
REMARK    4  A    between atoms: C_16  and  C_17
REMARK                            x       y       z     vdW  Elec       q    Type
REMARK                         _______ _______ _______ _____ _____    ______ ____
ROOT
ATOM      1  C   UNL     1       2.054   3.282  21.655  0.00  0.00    +0.000 C 
ATOM      2  N   UNL     1       2.515   3.389  20.291  0.00  0.00    +0.000 NA
ATOM      3  C   UNL     1       3.167   2.238  19.746  0.00  0.00    +0.000 C 
ATOM      4  C   UNL     1       1.879   1.684  19.063  0.00  0.00    +0.000 C 
ATOM      5  C   UNL     1       1.124   2.841  18.474  0.00  0.00    +0.000 C 
ATOM      6  C   UNL     1       1.631   4.009  19.297  0.00  0.00    +0.000 C 
ATOM      7  C   UNL     1       2.513   4.949  18.431  0.00  0.00    +0.000 C 
ATOM      8  C   UNL     1       3.938   4.337  18.228  0.00  0.00    +0.000 C 
ATOM      9  C   UNL     1       4.319   3.251  19.273  0.00  0.00    +0.000 C 
ENDROOT
BRANCH   8  10
ATOM     10  C   UNL     1       5.060   5.348  18.036  0.00  0.00    +0.000 A 
ATOM     11  C   UNL     1       4.977   6.385  17.080  0.00  0.00    +0.000 A 
ATOM     12  C   UNL     1       6.005   7.320  16.933  0.00  0.00    +0.000 A 
ATOM     13  C   UNL     1       7.135   7.223  17.736  0.00  0.00    +0.000 A 
ATOM     14 CL   UNL     1       8.404   8.366  17.558  0.00  0.00    +0.000 Cl
ATOM     15  C   UNL     1       7.245   6.203  18.681  0.00  0.00    +0.000 A 
ATOM     16  C   UNL     1       6.213   5.274  18.827  0.00  0.00    +0.000 A 
ENDBRANCH   8  10
BRANCH   7  17
ATOM     17  C   UNL     1       2.355   6.379  18.901  0.00  0.00    +0.000 C 
ATOM     18  C   UNL     1       2.063   6.773  20.143  0.00  0.00    +0.000 C 
BRANCH  18  19
ATOM     19  C   UNL     1       1.517   8.114  20.388  0.00  0.00    +0.000 A 
ATOM     20  C   UNL     1       1.383   8.973  19.288  0.00  0.00    +0.000 A 
ATOM     21  C   UNL     1       0.933  10.279  19.465  0.00  0.00    +0.000 A 
ATOM     22  C   UNL     1       0.596  10.734  20.737  0.00  0.00    +0.000 A 
ATOM     23  C   UNL     1       0.718   9.879  21.834  0.00  0.00    +0.000 A 
ATOM     24  C   UNL     1       1.178   8.565  21.662  0.00  0.00    +0.000 A 
ENDBRANCH  18  19
ENDBRANCH   7  17
TORSDOF 3
ENDMDL
MODEL 2
REMARK VINA RESULT:      -8.4      0.183      1.404
REMARK  Name = 
REMARK  4 active torsions:
REMARK  status: ('A' for Active; 'I' for Inactive)
REMARK    1  A    between atoms: C_1  and  N_2
REMARK    2  A    between atoms: C_7  and  C_8
REMARK    3  A    between atoms: C_9  and  C_10
REMARK    4  A    between atoms: C_16  and  C_17
REMARK                            x       y       z     vdW  Elec       q    Type
REMARK                         _______ _______ _______ _____ _____    ______ ____
ROOT
ATOM      1  C   UNL     1       1.913   3.410  21.566  0.00  0.00    +0.000 C 
ATOM      2  N   UNL     1       2.475   3.459  20.237  0.00  0.00    +0.000 NA
ATOM      3  C   UNL     1       3.198   2.301  19.807  0.00  0.00    +0.000 C 
ATOM      4  C   UNL     1       1.980   1.673  19.060  0.00  0.00    +0.000 C 
ATOM      5  C   UNL     1       1.242   2.773  18.354  0.00  0.00    +0.000 C 
ATOM      6  C   UNL     1       1.654   3.998  19.147  0.00  0.00    +0.000 C 
ATOM      7  C   UNL     1       2.574   4.917  18.299  0.00  0.00    +0.000 C 
ATOM      8  C   UNL     1       4.026   4.340  18.238  0.00  0.00    +0.000 C 
ATOM      9  C   UNL     1       4.355   3.323  19.367  0.00  0.00    +0.000 C 
ENDROOT
BRANCH   8  10
ATOM     10  C   UNL     1       5.132   5.373  18.075  0.00  0.00    +0.000 A 
ATOM     11  C   UNL     1       6.306   5.344  18.860  0.00  0.00    +0.000 A 
ATOM     12  C   UNL     1       7.323   6.285  18.680  0.00  0.00    +0.000 A 
ATOM     13  C   UNL     1       7.173   7.275  17.717  0.00  0.00    +0.000 A 
ATOM     14 CL   UNL     1       8.417   8.438  17.493  0.00  0.00    +0.000 Cl
ATOM     15  C   UNL     1       6.019   7.331  16.934  0.00  0.00    +0.000 A 
ATOM     16  C   UNL     1       5.008   6.386  17.115  0.00  0.00    +0.000 A 
ENDBRANCH   8  10
BRANCH   7  17
ATOM     17  C   UNL     1       2.343   6.365  18.676  0.00  0.00    +0.000 C 
ATOM     18  C   UNL     1       2.295   6.858  19.916  0.00  0.00    +0.000 C 
BRANCH  18  19
ATOM     19  C   UNL     1       1.649   8.151  20.177  0.00  0.00    +0.000 A 
ATOM     20  C   UNL     1       1.271   8.436  21.496  0.00  0.00    +0.000 A 
ATOM     21  C   UNL     1       0.596   9.616  21.797  0.00  0.00    +0.000 A 
ATOM     22  C   UNL     1       0.308  10.531  20.788  0.00  0.00    +0.000 A 
ATOM     23  C   UNL     1       0.692  10.257  19.474  0.00  0.00    +0.000 A 
ATOM     24  C   UNL     1       1.365   9.066  19.164  0.00  0.00    +0.000 A 
ENDBRANCH  18  19
ENDBRANCH   7  17
TORSDOF 3
ENDMDL
MODEL 3
REMARK VINA RESULT:      -7.8      0.840      1.322
REMARK  Name = 
REMARK  4 active torsions:
REMARK  status: ('A' for Active; 'I' for Inactive)
REMARK    1  A    between atoms: C_1  and  N_2
REMARK    2  A    between atoms: C_7  and  C_8
REMARK    3  A    between atoms: C_9  and  C_10
REMARK    4  A    between atoms: C_16  and  C_17
REMARK                            x       y       z     vdW  Elec       q    Type
REMARK                         _______ _______ _______ _____ _____    ______ ____
ROOT
ATOM      1  C   UNL     1       2.675   3.115  20.964  0.00  0.00    +0.000 C 
ATOM      2  N   UNL     1       3.264   3.422  19.683  0.00  0.00    +0.000 NA
ATOM      3  C   UNL     1       4.061   2.396  19.084  0.00  0.00    +0.000 C 
ATOM      4  C   UNL     1       2.899   1.843  18.201  0.00  0.00    +0.000 C 
ATOM      5  C   UNL     1       2.117   3.009  17.670  0.00  0.00    +0.000 C 
ATOM      6  C   UNL     1       2.439   4.098  18.675  0.00  0.00    +0.000 C 
ATOM      7  C   UNL     1       3.325   5.197  18.027  0.00  0.00    +0.000 C 
ATOM      8  C   UNL     1       4.809   4.716  17.916  0.00  0.00    +0.000 C 
ATOM      9  C   UNL     1       5.168   3.537  18.864  0.00  0.00    +0.000 C 
ENDROOT
BRANCH   8  10
ATOM     10  C   UNL     1       5.858   5.818  17.968  0.00  0.00    +0.000 A 
ATOM     11  C   UNL     1       7.007   5.719  18.784  0.00  0.00    +0.000 A 
ATOM     12  C   UNL     1       7.972   6.729  18.802  0.00  0.00    +0.000 A 
ATOM     13  C   UNL     1       7.795   7.855  18.009  0.00  0.00    +0.000 A 
ATOM     14 CL   UNL     1       8.977   9.102  18.029  0.00  0.00    +0.000 Cl
ATOM     15  C   UNL     1       6.665   7.981  17.201  0.00  0.00    +0.000 A 
ATOM     16  C   UNL     1       5.705   6.968  17.184  0.00  0.00    +0.000 A 
ENDBRANCH   8  10
BRANCH   7  17
ATOM     17  C   UNL     1       3.003   6.544  18.640  0.00  0.00    +0.000 C 
ATOM     18  C   UNL     1       2.242   6.759  19.715  0.00  0.00    +0.000 C 
BRANCH  18  19
ATOM     19  C   UNL     1       1.653   8.082  19.956  0.00  0.00    +0.000 A 
ATOM     20  C   UNL     1       1.463   8.921  18.850  0.00  0.00    +0.000 A 
ATOM     21  C   UNL     1       0.970  10.213  19.021  0.00  0.00    +0.000 A 
ATOM     22  C   UNL     1       0.646  10.671  20.295  0.00  0.00    +0.000 A 
ATOM     23  C   UNL     1       0.824   9.836  21.399  0.00  0.00    +0.000 A 
ATOM     24  C   UNL     1       1.327   8.537  21.233  0.00  0.00    +0.000 A 
ENDBRANCH  18  19
ENDBRANCH   7  17
TORSDOF 3
ENDMDL
MODEL 4
REMARK VINA RESULT:      -7.8      2.971      5.976
REMARK  Name = 
REMARK  4 active torsions:
REMARK  status: ('A' for Active; 'I' for Inactive)
REMARK    1  A    between atoms: C_1  and  N_2
REMARK    2  A    between atoms: C_7  and  C_8
REMARK    3  A    between atoms: C_9  and  C_10
REMARK    4  A    between atoms: C_16  and  C_17
REMARK                            x       y       z     vdW  Elec       q    Type
REMARK                         _______ _______ _______ _____ _____    ______ ____
ROOT
ATOM      1  C   UNL     1       1.284   4.125  17.704  0.00  0.00    +0.000 C 
ATOM      2  N   UNL     1       2.592   3.999  18.302  0.00  0.00    +0.000 NA
ATOM      3  C   UNL     1       2.652   4.074  19.730  0.00  0.00    +0.000 C 
ATOM      4  C   UNL     1       2.623   2.527  19.931  0.00  0.00    +0.000 C 
ATOM      5  C   UNL     1       3.487   1.900  18.875  0.00  0.00    +0.000 C 
ATOM      6  C   UNL     1       3.500   2.964  17.795  0.00  0.00    +0.000 C 
ATOM      7  C   UNL     1       4.906   3.611  17.678  0.00  0.00    +0.000 C 
ATOM      8  C   UNL     1       5.140   4.636  18.836  0.00  0.00    +0.000 C 
ATOM      9  C   UNL     1       3.834   5.138  19.515  0.00  0.00    +0.000 C 
ENDROOT
BRANCH   8  10
ATOM     10  C   UNL     1       6.079   5.788  18.508  0.00  0.00    +0.000 A 
ATOM     11  C   UNL     1       5.711   6.826  17.623  0.00  0.00    +0.000 A 
ATOM     12  C   UNL     1       6.576   7.889  17.352  0.00  0.00    +0.000 A 
ATOM     13  C   UNL     1       7.826   7.921  17.957  0.00  0.00    +0.000 A 
ATOM     14 CL   UNL     1       8.897   9.223  17.625  0.00  0.00    +0.000 Cl
ATOM     15  C   UNL     1       8.218   6.904  18.828  0.00  0.00    +0.000 A 
ATOM     16  C   UNL     1       7.348   5.846  19.099  0.00  0.00    +0.000 A 
ENDBRANCH   8  10
BRANCH   7  17
ATOM     17  C   UNL     1       5.172   4.008  16.242  0.00  0.00    +0.000 C 
ATOM     18  C   UNL     1       5.772   3.258  15.315  0.00  0.00    +0.000 C 
BRANCH  18  19
ATOM     19  C   UNL     1       6.356   3.880  14.119  0.00  0.00    +0.000 A 
ATOM     20  C   UNL     1       6.060   3.305  12.876  0.00  0.00    +0.000 A 
ATOM     21  C   UNL     1       6.635   3.808  11.712  0.00  0.00    +0.000 A 
ATOM     22  C   UNL     1       7.495   4.901  11.775  0.00  0.00    +0.000 A 
ATOM     23  C   UNL     1       7.785   5.484  13.010  0.00  0.00    +0.000 A 
ATOM     24  C   UNL     1       7.214   4.976  14.187  0.00  0.00    +0.000 A 
ENDBRANCH  18  19
ENDBRANCH   7  17
TORSDOF 3
ENDMDL
MODEL 5
REMARK VINA RESULT:      -7.7      2.301      5.660
REMARK  Name = 
REMARK  4 active torsions:
REMARK  status: ('A' for Active; 'I' for Inactive)
REMARK    1  A    between atoms: C_1  and  N_2
REMARK    2  A    between atoms: C_7  and  C_8
REMARK    3  A    between atoms: C_9  and  C_10
REMARK    4  A    between atoms: C_16  and  C_17
REMARK                            x       y       z     vdW  Elec       q    Type
REMARK                         _______ _______ _______ _____ _____    ______ ____
ROOT
ATOM      1  C   UNL     1       1.350   1.912  18.668  0.00  0.00    +0.000 C 
ATOM      2  N   UNL     1       1.736   2.974  19.567  0.00  0.00    +0.000 NA
ATOM      3  C   UNL     1       0.921   3.154  20.730  0.00  0.00    +0.000 C 
ATOM      4  C   UNL     1       1.842   2.298  21.653  0.00  0.00    +0.000 C 
ATOM      5  C   UNL     1       3.271   2.610  21.314  0.00  0.00    +0.000 C 
ATOM      6  C   UNL     1       3.157   3.134  19.895  0.00  0.00    +0.000 C 
ATOM      7  C   UNL     1       3.465   4.655  19.846  0.00  0.00    +0.000 C 
ATOM      8  C   UNL     1       2.241   5.483  20.360  0.00  0.00    +0.000 C 
ATOM      9  C   UNL     1       0.893   4.709  20.334  0.00  0.00    +0.000 C 
ENDROOT
BRANCH   8  10
ATOM     10  C   UNL     1       2.100   6.876  19.764  0.00  0.00    +0.000 A 
ATOM     11  C   UNL     1       2.477   7.163  18.433  0.00  0.00    +0.000 A 
ATOM     12  C   UNL     1       2.317   8.442  17.894  0.00  0.00    +0.000 A 
ATOM     13  C   UNL     1       1.785   9.453  18.684  0.00  0.00    +0.000 A 
ATOM     14 CL   UNL     1       1.589  11.029  18.028  0.00  0.00    +0.000 Cl
ATOM     15  C   UNL     1       1.412   9.198  20.004  0.00  0.00    +0.000 A 
ATOM     16  C   UNL     1       1.570   7.918  20.537  0.00  0.00    +0.000 A 
ENDBRANCH   8  10
BRANCH   7  17
ATOM     17  C   UNL     1       4.123   5.004  18.528  0.00  0.00    +0.000 C 
ATOM     18  C   UNL     1       4.256   4.194  17.475  0.00  0.00    +0.000 C 
BRANCH  18  19
ATOM     19  C   UNL     1       5.264   4.476  16.444  0.00  0.00    +0.000 A 
ATOM     20  C   UNL     1       4.977   4.085  15.129  0.00  0.00    +0.000 A 
ATOM     21  C   UNL     1       5.918   4.265  14.119  0.00  0.00    +0.000 A 
ATOM     22  C   UNL     1       7.147   4.852  14.408  0.00  0.00    +0.000 A 
ATOM     23  C   UNL     1       7.434   5.253  15.714  0.00  0.00    +0.000 A 
ATOM     24  C   UNL     1       6.492   5.067  16.737  0.00  0.00    +0.000 A 
ENDBRANCH  18  19
ENDBRANCH   7  17
TORSDOF 3
ENDMDL
MODEL 6
REMARK VINA RESULT:      -7.6      2.815      5.907
REMARK  Name = 
REMARK  4 active torsions:
REMARK  status: ('A' for Active; 'I' for Inactive)
REMARK    1  A    between atoms: C_1  and  N_2
REMARK    2  A    between atoms: C_7  and  C_8
REMARK    3  A    between atoms: C_9  and  C_10
REMARK    4  A    between atoms: C_16  and  C_17
REMARK                            x       y       z     vdW  Elec       q    Type
REMARK                         _______ _______ _______ _____ _____    ______ ____
ROOT
ATOM      1  C   UNL     1       0.911   4.139  17.419  0.00  0.00    +0.000 C 
ATOM      2  N   UNL     1       2.159   3.999  18.131  0.00  0.00    +0.000 NA
ATOM      3  C   UNL     1       2.109   4.176  19.550  0.00  0.00    +0.000 C 
ATOM      4  C   UNL     1       1.987   2.650  19.855  0.00  0.00    +0.000 C 
ATOM      5  C   UNL     1       2.899   1.910  18.921  0.00  0.00    +0.000 C 
ATOM      6  C   UNL     1       3.051   2.890  17.773  0.00  0.00    +0.000 C 
ATOM      7  C   UNL     1       4.493   3.463  17.730  0.00  0.00    +0.000 C 
ATOM      8  C   UNL     1       4.685   4.559  18.829  0.00  0.00    +0.000 C 
ATOM      9  C   UNL     1       3.357   5.167  19.360  0.00  0.00    +0.000 C 
ENDROOT
BRANCH   8  10
ATOM     10  C   UNL     1       5.705   5.641  18.501  0.00  0.00    +0.000 A 
ATOM     11  C   UNL     1       7.002   5.641  19.060  0.00  0.00    +0.000 A 
ATOM     12  C   UNL     1       7.935   6.627  18.729  0.00  0.00    +0.000 A 
ATOM     13  C   UNL     1       7.577   7.632  17.839  0.00  0.00    +0.000 A 
ATOM     14 CL   UNL     1       8.717   8.850  17.430  0.00  0.00    +0.000 Cl
ATOM     15  C   UNL     1       6.299   7.659  17.279  0.00  0.00    +0.000 A 
ATOM     16  C   UNL     1       5.372   6.670  17.610  0.00  0.00    +0.000 A 
ENDBRANCH   8  10
BRANCH   7  17
ATOM     17  C   UNL     1       4.892   3.742  16.296  0.00  0.00    +0.000 C 
ATOM     18  C   UNL     1       5.992   3.299  15.683  0.00  0.00    +0.000 C 
BRANCH  18  19
ATOM     19  C   UNL     1       6.488   3.966  14.472  0.00  0.00    +0.000 A 
ATOM     20  C   UNL     1       6.070   3.461  13.234  0.00  0.00    +0.000 A 
ATOM     21  C   UNL     1       6.556   4.008  12.049  0.00  0.00    +0.000 A 
ATOM     22  C   UNL     1       7.449   5.074  12.089  0.00  0.00    +0.000 A 
ATOM     23  C   UNL     1       7.862   5.588  13.320  0.00  0.00    +0.000 A 
ATOM     24  C   UNL     1       7.380   5.036  14.517  0.00  0.00    +0.000 A 
ENDBRANCH  18  19
ENDBRANCH   7  17
TORSDOF 3
ENDMDL
MODEL 7
REMARK VINA RESULT:      -7.6      2.968      6.089
REMARK  Name = 
REMARK  4 active torsions:
REMARK  status: ('A' for Active; 'I' for Inactive)
REMARK    1  A    between atoms: C_1  and  N_2
REMARK    2  A    between atoms: C_7  and  C_8
REMARK    3  A    between atoms: C_9  and  C_10
REMARK    4  A    between atoms: C_16  and  C_17
REMARK                            x       y       z     vdW  Elec       q    Type
REMARK                         _______ _______ _______ _____ _____    ______ ____
ROOT
ATOM      1  C   UNL     1       1.275   4.161  17.515  0.00  0.00    +0.000 C 
ATOM      2  N   UNL     1       2.557   4.013  18.161  0.00  0.00    +0.000 NA
ATOM      3  C   UNL     1       2.561   4.058  19.591  0.00  0.00    +0.000 C 
ATOM      4  C   UNL     1       2.514   2.508  19.759  0.00  0.00    +0.000 C 
ATOM      5  C   UNL     1       3.414   1.895  18.725  0.00  0.00    +0.000 C 
ATOM      6  C   UNL     1       3.476   2.980  17.668  0.00  0.00    +0.000 C 
ATOM      7  C   UNL     1       4.891   3.618  17.620  0.00  0.00    +0.000 C 
ATOM      8  C   UNL     1       5.086   4.618  18.806  0.00  0.00    +0.000 C 
ATOM      9  C   UNL     1       3.759   5.117  19.444  0.00  0.00    +0.000 C 
ENDROOT
BRANCH   8  10
ATOM     10  C   UNL     1       6.047   5.769  18.539  0.00  0.00    +0.000 A 
ATOM     11  C   UNL     1       7.330   5.824  19.126  0.00  0.00    +0.000 A 
ATOM     12  C   UNL     1       8.209   6.875  18.850  0.00  0.00    +0.000 A 
ATOM     13  C   UNL     1       7.810   7.889  17.988  0.00  0.00    +0.000 A 
ATOM     14 CL   UNL     1       8.884   9.186  17.647  0.00  0.00    +0.000 Cl
ATOM     15  C   UNL     1       6.544   7.862  17.402  0.00  0.00    +0.000 A 
ATOM     16  C   UNL     1       5.671   6.808  17.678  0.00  0.00    +0.000 A 
ENDBRANCH   8  10
BRANCH   7  17
ATOM     17  C   UNL     1       5.216   4.042  16.203  0.00  0.00    +0.000 C 
ATOM     18  C   UNL     1       5.627   3.243  15.216  0.00  0.00    +0.000 C 
BRANCH  18  19
ATOM     19  C   UNL     1       6.314   3.803  14.044  0.00  0.00    +0.000 A 
ATOM     20  C   UNL     1       7.146   4.912  14.246  0.00  0.00    +0.000 A 
ATOM     21  C   UNL     1       7.773   5.529  13.166  0.00  0.00    +0.000 A 
ATOM     22  C   UNL     1       7.590   5.033  11.878  0.00  0.00    +0.000 A 
ATOM     23  C   UNL     1       6.770   3.921  11.673  0.00  0.00    +0.000 A 
ATOM     24  C   UNL     1       6.131   3.301  12.757  0.00  0.00    +0.000 A 
ENDBRANCH  18  19
ENDBRANCH   7  17
TORSDOF 3
ENDMDL
MODEL 8
REMARK VINA RESULT:      -7.5      2.266      5.681
REMARK  Name = 
REMARK  4 active torsions:
REMARK  status: ('A' for Active; 'I' for Inactive)
REMARK    1  A    between atoms: C_1  and  N_2
REMARK    2  A    between atoms: C_7  and  C_8
REMARK    3  A    between atoms: C_9  and  C_10
REMARK    4  A    between atoms: C_16  and  C_17
REMARK                            x       y       z     vdW  Elec       q    Type
REMARK                         _______ _______ _______ _____ _____    ______ ____
ROOT
ATOM      1  C   UNL     1       1.186   1.900  18.707  0.00  0.00    +0.000 C 
ATOM      2  N   UNL     1       1.616   2.964  19.583  0.00  0.00    +0.000 NA
ATOM      3  C   UNL     1       0.821   3.190  20.751  0.00  0.00    +0.000 C 
ATOM      4  C   UNL     1       1.724   2.321  21.680  0.00  0.00    +0.000 C 
ATOM      5  C   UNL     1       3.158   2.581  21.320  0.00  0.00    +0.000 C 
ATOM      6  C   UNL     1       3.046   3.084  19.893  0.00  0.00    +0.000 C 
ATOM      7  C   UNL     1       3.402   4.593  19.814  0.00  0.00    +0.000 C 
ATOM      8  C   UNL     1       2.212   5.469  20.326  0.00  0.00    +0.000 C 
ATOM      9  C   UNL     1       0.839   4.739  20.328  0.00  0.00    +0.000 C 
ENDROOT
BRANCH   8  10
ATOM     10  C   UNL     1       2.109   6.855  19.707  0.00  0.00    +0.000 A 
ATOM     11  C   UNL     1       1.598   7.960  20.426  0.00  0.00    +0.000 A 
ATOM     12  C   UNL     1       1.534   9.232  19.851  0.00  0.00    +0.000 A 
ATOM     13  C   UNL     1       1.971   9.412  18.545  0.00  0.00    +0.000 A 
ATOM     14 CL   UNL     1       1.891  10.972  17.830  0.00  0.00    +0.000 Cl
ATOM     15  C   UNL     1       2.472   8.336  17.811  0.00  0.00    +0.000 A 
ATOM     16  C   UNL     1       2.538   7.068  18.391  0.00  0.00    +0.000 A 
ENDBRANCH   8  10
BRANCH   7  17
ATOM     17  C   UNL     1       4.056   4.897  18.482  0.00  0.00    +0.000 C 
ATOM     18  C   UNL     1       4.179   4.055  17.454  0.00  0.00    +0.000 C 
BRANCH  18  19
ATOM     19  C   UNL     1       5.184   4.298  16.411  0.00  0.00    +0.000 A 
ATOM     20  C   UNL     1       6.316   5.046  16.760  0.00  0.00    +0.000 A 
ATOM     21  C   UNL     1       7.273   5.366  15.800  0.00  0.00    +0.000 A 
ATOM     22  C   UNL     1       7.117   4.928  14.488  0.00  0.00    +0.000 A 
ATOM     23  C   UNL     1       5.996   4.174  14.137  0.00  0.00    +0.000 A 
ATOM     24  C   UNL     1       5.026   3.855  15.099  0.00  0.00    +0.000 A 
ENDBRANCH  18  19
ENDBRANCH   7  17
TORSDOF 3
ENDMDL
MODEL 9
REMARK VINA RESULT:      -7.3      0.762      1.726
REMARK  Name = 
REMARK  4 active torsions:
REMARK  status: ('A' for Active; 'I' for Inactive)
REMARK    1  A    between atoms: C_1  and  N_2
REMARK    2  A    between atoms: C_7  and  C_8
REMARK    3  A    between atoms: C_9  and  C_10
REMARK    4  A    between atoms: C_16  and  C_17
REMARK                            x       y       z     vdW  Elec       q    Type
REMARK                         _______ _______ _______ _____ _____    ______ ____
ROOT
ATOM      1  C   UNL     1       2.152   3.286  21.562  0.00  0.00    +0.000 C 
ATOM      2  N   UNL     1       2.655   3.431  20.216  0.00  0.00    +0.000 NA
ATOM      3  C   UNL     1       3.361   2.311  19.674  0.00  0.00    +0.000 C 
ATOM      4  C   UNL     1       2.114   1.729  18.939  0.00  0.00    +0.000 C 
ATOM      5  C   UNL     1       1.342   2.871  18.345  0.00  0.00    +0.000 C 
ATOM      6  C   UNL     1       1.785   4.040  19.204  0.00  0.00    +0.000 C 
ATOM      7  C   UNL     1       2.664   5.022  18.382  0.00  0.00    +0.000 C 
ATOM      8  C   UNL     1       4.114   4.459  18.218  0.00  0.00    +0.000 C 
ATOM      9  C   UNL     1       4.495   3.368  19.256  0.00  0.00    +0.000 C 
ENDROOT
BRANCH   8  10
ATOM     10  C   UNL     1       5.208   5.508  18.079  0.00  0.00    +0.000 A 
ATOM     11  C   UNL     1       6.413   5.434  18.814  0.00  0.00    +0.000 A 
ATOM     12  C   UNL     1       7.418   6.392  18.656  0.00  0.00    +0.000 A 
ATOM     13  C   UNL     1       7.226   7.442  17.767  0.00  0.00    +0.000 A 
ATOM     14 CL   UNL     1       8.457   8.624  17.571  0.00  0.00    +0.000 Cl
ATOM     15  C   UNL     1       6.042   7.542  17.036  0.00  0.00    +0.000 A 
ATOM     16  C   UNL     1       5.043   6.581  17.194  0.00  0.00    +0.000 A 
ENDBRANCH   8  10
BRANCH   7  17
ATOM     17  C   UNL     1       2.445   6.439  18.871  0.00  0.00    +0.000 C 
ATOM     18  C   UNL     1       1.455   7.255  18.503  0.00  0.00    +0.000 C 
BRANCH  18  19
ATOM     19  C   UNL     1       1.581   8.706  18.691  0.00  0.00    +0.000 A 
ATOM     20  C   UNL     1       1.007   9.265  19.841  0.00  0.00    +0.000 A 
ATOM     21  C   UNL     1       1.035  10.643  20.044  0.00  0.00    +0.000 A 
ATOM     22  C   UNL     1       1.651  11.472  19.111  0.00  0.00    +0.000 A 
ATOM     23  C   UNL     1       2.233  10.919  17.969  0.00  0.00    +0.000 A 
ATOM     24  C   UNL     1       2.202   9.533  17.756  0.00  0.00    +0.000 A 
ENDBRANCH  18  19
ENDBRANCH   7  17
TORSDOF 3
ENDMDL
