MODEL 1
REMARK VINA RESULT:      -7.7      0.000      0.000
REMARK  Name = 
REMARK  13 active torsions:
REMARK  status: ('A' for Active; 'I' for Inactive)
REMARK    1  A    between atoms: C_1  and  C_2
REMARK    2  A    between atoms: C_3  and  C_4
REMARK    3  A    between atoms: N_6  and  C_7
REMARK    4  A    between atoms: C_7  and  C_8
REMARK    5  A    between atoms: C_8  and  C_9
REMARK    6  A    between atoms: C_9  and  N_10
REMARK    7  A    between atoms: N_10  and  C_11
REMARK    8  A    between atoms: N_10  and  C_12
REMARK    9  A    between atoms: N_19  and  C_20
REMARK   10  A    between atoms: C_26  and  O_27
REMARK   11  A    between atoms: O_27  and  C_28
REMARK   12  A    between atoms: C_28  and  C_29
REMARK   13  A    between atoms: C_28  and  C_30
REMARK                            x       y       z     vdW  Elec       q    Type
REMARK                         _______ _______ _______ _____ _____    ______ ____
ROOT
ATOM      1  C   UNL     1       0.625   8.978  22.363  0.00  0.00    +0.000 C 
ATOM      2  C   UNL     1       0.860   9.643  21.041  0.00  0.00    +0.000 A 
ATOM      3  C   UNL     1       0.616  10.995  20.765  0.00  0.00    +0.000 A 
ATOM      4  S   UNL     1       1.004  11.384  19.147  0.00  0.00    +0.000 S 
ATOM      5  C   UNL     1       1.493   9.805  18.803  0.00  0.00    +0.000 A 
ATOM      6  N   UNL     1       1.929   9.542  17.564  0.00  0.00    +0.000 NA
ATOM      7  C   UNL     1       2.294   8.279  17.421  0.00  0.00    +0.000 A 
ATOM      8  N   UNL     1       2.253   7.329  18.357  0.00  0.00    +0.000 NA
ATOM      9  C   UNL     1       1.795   7.587  19.618  0.00  0.00    +0.000 A 
ATOM     10  N   UNL     1       1.787   6.519  20.559  0.00  0.00    +0.000 N 
ATOM     11  C   UNL     1       1.390   8.930  19.879  0.00  0.00    +0.000 A 
ATOM     12  H   UNL     1       1.779   6.792  21.531  0.00  0.00    +0.000 HD
ENDROOT
BRANCH  10  13
ATOM     13  C   UNL     1       2.183   5.171  20.328  0.00  0.00    +0.000 A 
ATOM     14  C   UNL     1       1.277   4.122  20.600  0.00  0.00    +0.000 A 
ATOM     15  C   UNL     1       1.505   2.810  20.190  0.00  0.00    +0.000 A 
ATOM     16  C   UNL     1       2.662   2.526  19.497  0.00  0.00    +0.000 A 
ATOM     17  F   UNL     1       2.883   1.282  19.054  0.00  0.00    +0.000 F 
ATOM     18  C   UNL     1       3.615   3.508  19.274  0.00  0.00    +0.000 A 
ATOM     19  C   UNL     1       3.428   4.819  19.749  0.00  0.00    +0.000 A 
BRANCH  19  20
ATOM     20  O   UNL     1       4.427   5.770  19.645  0.00  0.00    +0.000 OA
BRANCH  20  21
ATOM     21  C   UNL     1       5.520   5.417  18.748  0.00  0.00    +0.000 C 
ATOM     22  C   UNL     1       5.602   6.416  17.591  0.00  0.00    +0.000 C 
BRANCH  21  23
ATOM     23  C   UNL     1       6.812   5.383  19.466  0.00  0.00    +0.000 C 
ATOM     24  N   UNL     1       7.830   5.428  20.022  0.00  0.00    +0.000 NA
ENDBRANCH  21  23
ENDBRANCH  20  21
ENDBRANCH  19  20
ENDBRANCH  10  13
BRANCH   3  25
ATOM     25  C   UNL     1       0.104  12.046  21.648  0.00  0.00    +0.000 C 
ATOM     26  O   UNL     1       0.728  13.072  21.905  0.00  0.00    +0.000 OA
ATOM     27  N   UNL     1      -1.152  11.832  22.191  0.00  0.00    +0.000 N 
ATOM     28  H   UNL     1      -1.660  11.000  21.921  0.00  0.00    +0.000 HD
BRANCH  27  29
ATOM     29  C   UNL     1      -1.766  12.772  23.106  0.00  0.00    +0.000 C 
BRANCH  29  30
ATOM     30  C   UNL     1      -3.185  12.352  23.485  0.00  0.00    +0.000 C 
BRANCH  30  31
ATOM     31  C   UNL     1      -4.246  13.127  22.693  0.00  0.00    +0.000 C 
BRANCH  31  32
ATOM     32  N   UNL     1      -3.815  13.537  21.347  0.00  0.00    +0.000 NA
ATOM     33  C   UNL     1      -4.387  12.687  20.299  0.00  0.00    +0.000 C 
ATOM     34  C   UNL     1      -4.163  14.936  21.100  0.00  0.00    +0.000 C 
ENDBRANCH  31  32
ENDBRANCH  30  31
ENDBRANCH  29  30
ENDBRANCH  27  29
ENDBRANCH   3  25
TORSDOF 9
ENDMDL
MODEL 2
REMARK VINA RESULT:      -7.6      2.928      4.292
REMARK  Name = 
REMARK  13 active torsions:
REMARK  status: ('A' for Active; 'I' for Inactive)
REMARK    1  A    between atoms: C_1  and  C_2
REMARK    2  A    between atoms: C_3  and  C_4
REMARK    3  A    between atoms: N_6  and  C_7
REMARK    4  A    between atoms: C_7  and  C_8
REMARK    5  A    between atoms: C_8  and  C_9
REMARK    6  A    between atoms: C_9  and  N_10
REMARK    7  A    between atoms: N_10  and  C_11
REMARK    8  A    between atoms: N_10  and  C_12
REMARK    9  A    between atoms: N_19  and  C_20
REMARK   10  A    between atoms: C_26  and  O_27
REMARK   11  A    between atoms: O_27  and  C_28
REMARK   12  A    between atoms: C_28  and  C_29
REMARK   13  A    between atoms: C_28  and  C_30
REMARK                            x       y       z     vdW  Elec       q    Type
REMARK                         _______ _______ _______ _____ _____    ______ ____
ROOT
ATOM      1  C   UNL     1       2.312   9.397  18.131  0.00  0.00    +0.000 C 
ATOM      2  C   UNL     1       1.902   8.540  19.289  0.00  0.00    +0.000 A 
ATOM      3  C   UNL     1       1.047   8.942  20.323  0.00  0.00    +0.000 A 
ATOM      4  S   UNL     1       0.816   7.692  21.466  0.00  0.00    +0.000 S 
ATOM      5  C   UNL     1       1.820   6.629  20.621  0.00  0.00    +0.000 A 
ATOM      6  N   UNL     1       1.999   5.402  21.128  0.00  0.00    +0.000 NA
ATOM      7  C   UNL     1       2.792   4.660  20.373  0.00  0.00    +0.000 A 
ATOM      8  N   UNL     1       3.381   5.032  19.235  0.00  0.00    +0.000 NA
ATOM      9  C   UNL     1       3.215   6.287  18.721  0.00  0.00    +0.000 A 
ATOM     10  N   UNL     1       3.875   6.602  17.500  0.00  0.00    +0.000 N 
ATOM     11  C   UNL     1       2.361   7.162  19.456  0.00  0.00    +0.000 A 
ATOM     12  H   UNL     1       3.484   7.372  16.977  0.00  0.00    +0.000 HD
ENDROOT
BRANCH  10  13
ATOM     13  C   UNL     1       4.734   5.752  16.746  0.00  0.00    +0.000 A 
ATOM     14  C   UNL     1       4.270   4.486  16.326  0.00  0.00    +0.000 A 
ATOM     15  C   UNL     1       4.960   3.704  15.404  0.00  0.00    +0.000 A 
ATOM     16  C   UNL     1       6.144   4.182  14.885  0.00  0.00    +0.000 A 
ATOM     17  F   UNL     1       6.803   3.469  13.964  0.00  0.00    +0.000 F 
ATOM     18  C   UNL     1       6.677   5.385  15.325  0.00  0.00    +0.000 A 
ATOM     19  C   UNL     1       6.024   6.147  16.312  0.00  0.00    +0.000 A 
BRANCH  19  20
ATOM     20  O   UNL     1       6.611   7.279  16.849  0.00  0.00    +0.000 OA
BRANCH  20  21
ATOM     21  C   UNL     1       7.778   7.029  17.685  0.00  0.00    +0.000 C 
ATOM     22  C   UNL     1       8.342   8.349  18.217  0.00  0.00    +0.000 C 
BRANCH  21  23
ATOM     23  C   UNL     1       7.444   6.139  18.817  0.00  0.00    +0.000 C 
ATOM     24  N   UNL     1       7.113   5.444  19.686  0.00  0.00    +0.000 NA
ENDBRANCH  21  23
ENDBRANCH  20  21
ENDBRANCH  19  20
ENDBRANCH  10  13
BRANCH   3  25
ATOM     25  C   UNL     1       0.366  10.223  20.523  0.00  0.00    +0.000 C 
ATOM     26  O   UNL     1       0.692  11.030  21.389  0.00  0.00    +0.000 OA
ATOM     27  N   UNL     1      -0.685  10.498  19.665  0.00  0.00    +0.000 N 
ATOM     28  H   UNL     1      -0.897   9.835  18.931  0.00  0.00    +0.000 HD
BRANCH  27  29
ATOM     29  C   UNL     1      -1.467  11.713  19.769  0.00  0.00    +0.000 C 
BRANCH  29  30
ATOM     30  C   UNL     1      -2.546  11.789  18.690  0.00  0.00    +0.000 C 
BRANCH  30  31
ATOM     31  C   UNL     1      -1.962  11.622  17.280  0.00  0.00    +0.000 C 
BRANCH  31  32
ATOM     32  N   UNL     1      -2.494  10.468  16.539  0.00  0.00    +0.000 NA
ATOM     33  C   UNL     1      -3.304   9.589  17.388  0.00  0.00    +0.000 C 
ATOM     34  C   UNL     1      -3.281  10.914  15.389  0.00  0.00    +0.000 C 
ENDBRANCH  31  32
ENDBRANCH  30  31
ENDBRANCH  29  30
ENDBRANCH  27  29
ENDBRANCH   3  25
TORSDOF 9
ENDMDL
MODEL 3
REMARK VINA RESULT:      -7.6      0.954      1.181
REMARK  Name = 
REMARK  13 active torsions:
REMARK  status: ('A' for Active; 'I' for Inactive)
REMARK    1  A    between atoms: C_1  and  C_2
REMARK    2  A    between atoms: C_3  and  C_4
REMARK    3  A    between atoms: N_6  and  C_7
REMARK    4  A    between atoms: C_7  and  C_8
REMARK    5  A    between atoms: C_8  and  C_9
REMARK    6  A    between atoms: C_9  and  N_10
REMARK    7  A    between atoms: N_10  and  C_11
REMARK    8  A    between atoms: N_10  and  C_12
REMARK    9  A    between atoms: N_19  and  C_20
REMARK   10  A    between atoms: C_26  and  O_27
REMARK   11  A    between atoms: O_27  and  C_28
REMARK   12  A    between atoms: C_28  and  C_29
REMARK   13  A    between atoms: C_28  and  C_30
REMARK                            x       y       z     vdW  Elec       q    Type
REMARK                         _______ _______ _______ _____ _____    ______ ____
ROOT
ATOM      1  C   UNL     1       0.645   8.977  22.347  0.00  0.00    +0.000 C 
ATOM      2  C   UNL     1       0.888   9.641  21.026  0.00  0.00    +0.000 A 
ATOM      3  C   UNL     1       0.657  10.996  20.752  0.00  0.00    +0.000 A 
ATOM      4  S   UNL     1       1.048  11.383  19.134  0.00  0.00    +0.000 S 
ATOM      5  C   UNL     1       1.522   9.799  18.788  0.00  0.00    +0.000 A 
ATOM      6  N   UNL     1       1.955   9.533  17.549  0.00  0.00    +0.000 NA
ATOM      7  C   UNL     1       2.307   8.267  17.404  0.00  0.00    +0.000 A 
ATOM      8  N   UNL     1       2.256   7.317  18.339  0.00  0.00    +0.000 NA
ATOM      9  C   UNL     1       1.801   7.578  19.600  0.00  0.00    +0.000 A 
ATOM     10  N   UNL     1       1.783   6.509  20.540  0.00  0.00    +0.000 N 
ATOM     11  C   UNL     1       1.410   8.925  19.863  0.00  0.00    +0.000 A 
ATOM     12  H   UNL     1       1.778   6.781  21.513  0.00  0.00    +0.000 HD
ENDROOT
BRANCH  10  13
ATOM     13  C   UNL     1       2.164   5.157  20.307  0.00  0.00    +0.000 A 
ATOM     14  C   UNL     1       1.243   4.117  20.565  0.00  0.00    +0.000 A 
ATOM     15  C   UNL     1       1.460   2.805  20.152  0.00  0.00    +0.000 A 
ATOM     16  C   UNL     1       2.620   2.509  19.470  0.00  0.00    +0.000 A 
ATOM     17  F   UNL     1       2.831   1.265  19.023  0.00  0.00    +0.000 F 
ATOM     18  C   UNL     1       3.588   3.481  19.261  0.00  0.00    +0.000 A 
ATOM     19  C   UNL     1       3.411   4.792  19.739  0.00  0.00    +0.000 A 
BRANCH  19  20
ATOM     20  O   UNL     1       4.422   5.732  19.649  0.00  0.00    +0.000 OA
BRANCH  20  21
ATOM     21  C   UNL     1       5.512   5.376  18.750  0.00  0.00    +0.000 C 
ATOM     22  C   UNL     1       5.539   6.324  17.548  0.00  0.00    +0.000 C 
BRANCH  21  23
ATOM     23  C   UNL     1       6.816   5.420  19.446  0.00  0.00    +0.000 C 
ATOM     24  N   UNL     1       7.805   5.473  20.053  0.00  0.00    +0.000 NA
ENDBRANCH  21  23
ENDBRANCH  20  21
ENDBRANCH  19  20
ENDBRANCH  10  13
BRANCH   3  25
ATOM     25  C   UNL     1       0.156  12.051  21.636  0.00  0.00    +0.000 C 
ATOM     26  O   UNL     1       0.774  13.087  21.864  0.00  0.00    +0.000 OA
ATOM     27  N   UNL     1      -1.082  11.828  22.215  0.00  0.00    +0.000 N 
ATOM     28  H   UNL     1      -1.587  10.987  21.969  0.00  0.00    +0.000 HD
BRANCH  27  29
ATOM     29  C   UNL     1      -1.684  12.771  23.135  0.00  0.00    +0.000 C 
BRANCH  29  30
ATOM     30  C   UNL     1      -3.190  12.554  23.269  0.00  0.00    +0.000 C 
BRANCH  30  31
ATOM     31  C   UNL     1      -3.807  13.453  24.349  0.00  0.00    +0.000 C 
BRANCH  31  32
ATOM     32  N   UNL     1      -4.132  14.812  23.889  0.00  0.00    +0.000 NA
ATOM     33  C   UNL     1      -5.571  15.000  23.685  0.00  0.00    +0.000 C 
ATOM     34  C   UNL     1      -3.629  15.809  24.835  0.00  0.00    +0.000 C 
ENDBRANCH  31  32
ENDBRANCH  30  31
ENDBRANCH  29  30
ENDBRANCH  27  29
ENDBRANCH   3  25
TORSDOF 9
ENDMDL
MODEL 4
REMARK VINA RESULT:      -7.4      2.307      3.618
REMARK  Name = 
REMARK  13 active torsions:
REMARK  status: ('A' for Active; 'I' for Inactive)
REMARK    1  A    between atoms: C_1  and  C_2
REMARK    2  A    between atoms: C_3  and  C_4
REMARK    3  A    between atoms: N_6  and  C_7
REMARK    4  A    between atoms: C_7  and  C_8
REMARK    5  A    between atoms: C_8  and  C_9
REMARK    6  A    between atoms: C_9  and  N_10
REMARK    7  A    between atoms: N_10  and  C_11
REMARK    8  A    between atoms: N_10  and  C_12
REMARK    9  A    between atoms: N_19  and  C_20
REMARK   10  A    between atoms: C_26  and  O_27
REMARK   11  A    between atoms: O_27  and  C_28
REMARK   12  A    between atoms: C_28  and  C_29
REMARK   13  A    between atoms: C_28  and  C_30
REMARK                            x       y       z     vdW  Elec       q    Type
REMARK                         _______ _______ _______ _____ _____    ______ ____
ROOT
ATOM      1  C   UNL     1       2.125   9.690  17.926  0.00  0.00    +0.000 C 
ATOM      2  C   UNL     1       1.663   8.924  19.128  0.00  0.00    +0.000 A 
ATOM      3  C   UNL     1       0.767   9.404  20.092  0.00  0.00    +0.000 A 
ATOM      4  S   UNL     1       0.484   8.245  21.316  0.00  0.00    +0.000 S 
ATOM      5  C   UNL     1       1.517   7.119  20.596  0.00  0.00    +0.000 A 
ATOM      6  N   UNL     1       1.669   5.934  21.202  0.00  0.00    +0.000 NA
ATOM      7  C   UNL     1       2.490   5.136  20.540  0.00  0.00    +0.000 A 
ATOM      8  N   UNL     1       3.127   5.420  19.402  0.00  0.00    +0.000 NA
ATOM      9  C   UNL     1       2.988   6.632  18.788  0.00  0.00    +0.000 A 
ATOM     10  N   UNL     1       3.700   6.853  17.575  0.00  0.00    +0.000 N 
ATOM     11  C   UNL     1       2.109   7.561  19.418  0.00  0.00    +0.000 A 
ATOM     12  H   UNL     1       3.334   7.582  16.979  0.00  0.00    +0.000 HD
ENDROOT
BRANCH  10  13
ATOM     13  C   UNL     1       4.585   5.947  16.924  0.00  0.00    +0.000 A 
ATOM     14  C   UNL     1       4.138   4.648  16.595  0.00  0.00    +0.000 A 
ATOM     15  C   UNL     1       4.861   3.796  15.765  0.00  0.00    +0.000 A 
ATOM     16  C   UNL     1       6.061   4.234  15.250  0.00  0.00    +0.000 A 
ATOM     17  F   UNL     1       6.753   3.450  14.414  0.00  0.00    +0.000 F 
ATOM     18  C   UNL     1       6.577   5.471  15.607  0.00  0.00    +0.000 A 
ATOM     19  C   UNL     1       5.890   6.310  16.504  0.00  0.00    +0.000 A 
BRANCH  19  20
ATOM     20  O   UNL     1       6.455   7.485  16.964  0.00  0.00    +0.000 OA
BRANCH  20  21
ATOM     21  C   UNL     1       7.769   7.335  17.578  0.00  0.00    +0.000 C 
ATOM     22  C   UNL     1       8.259   8.681  18.117  0.00  0.00    +0.000 C 
BRANCH  21  23
ATOM     23  C   UNL     1       7.738   6.344  18.674  0.00  0.00    +0.000 C 
ATOM     24  N   UNL     1       7.733   5.619  19.581  0.00  0.00    +0.000 NA
ENDBRANCH  21  23
ENDBRANCH  20  21
ENDBRANCH  19  20
ENDBRANCH  10  13
BRANCH   3  25
ATOM     25  C   UNL     1       0.085  10.698  20.165  0.00  0.00    +0.000 C 
ATOM     26  O   UNL     1      -0.343  11.289  19.178  0.00  0.00    +0.000 OA
ATOM     27  N   UNL     1      -0.067  11.239  21.431  0.00  0.00    +0.000 N 
ATOM     28  H   UNL     1       0.253  10.704  22.228  0.00  0.00    +0.000 HD
BRANCH  27  29
ATOM     29  C   UNL     1      -0.693  12.527  21.648  0.00  0.00    +0.000 C 
BRANCH  29  30
ATOM     30  C   UNL     1      -2.211  12.408  21.777  0.00  0.00    +0.000 C 
BRANCH  30  31
ATOM     31  C   UNL     1      -2.677  12.554  23.232  0.00  0.00    +0.000 C 
BRANCH  31  32
ATOM     32  N   UNL     1      -4.103  12.259  23.441  0.00  0.00    +0.000 NA
ATOM     33  C   UNL     1      -4.495  12.379  24.849  0.00  0.00    +0.000 C 
ATOM     34  C   UNL     1      -4.935  13.134  22.615  0.00  0.00    +0.000 C 
ENDBRANCH  31  32
ENDBRANCH  30  31
ENDBRANCH  29  30
ENDBRANCH  27  29
ENDBRANCH   3  25
TORSDOF 9
ENDMDL
MODEL 5
REMARK VINA RESULT:      -7.3      1.136      1.517
REMARK  Name = 
REMARK  13 active torsions:
REMARK  status: ('A' for Active; 'I' for Inactive)
REMARK    1  A    between atoms: C_1  and  C_2
REMARK    2  A    between atoms: C_3  and  C_4
REMARK    3  A    between atoms: N_6  and  C_7
REMARK    4  A    between atoms: C_7  and  C_8
REMARK    5  A    between atoms: C_8  and  C_9
REMARK    6  A    between atoms: C_9  and  N_10
REMARK    7  A    between atoms: N_10  and  C_11
REMARK    8  A    between atoms: N_10  and  C_12
REMARK    9  A    between atoms: N_19  and  C_20
REMARK   10  A    between atoms: C_26  and  O_27
REMARK   11  A    between atoms: O_27  and  C_28
REMARK   12  A    between atoms: C_28  and  C_29
REMARK   13  A    between atoms: C_28  and  C_30
REMARK                            x       y       z     vdW  Elec       q    Type
REMARK                         _______ _______ _______ _____ _____    ______ ____
ROOT
ATOM      1  C   UNL     1       0.679   8.931  22.444  0.00  0.00    +0.000 C 
ATOM      2  C   UNL     1       0.889   9.617  21.129  0.00  0.00    +0.000 A 
ATOM      3  C   UNL     1       0.649  10.975  20.882  0.00  0.00    +0.000 A 
ATOM      4  S   UNL     1       1.003  11.389  19.262  0.00  0.00    +0.000 S 
ATOM      5  C   UNL     1       1.471   9.812  18.880  0.00  0.00    +0.000 A 
ATOM      6  N   UNL     1       1.876   9.567  17.627  0.00  0.00    +0.000 NA
ATOM      7  C   UNL     1       2.227   8.304  17.453  0.00  0.00    +0.000 A 
ATOM      8  N   UNL     1       2.200   7.339  18.374  0.00  0.00    +0.000 NA
ATOM      9  C   UNL     1       1.774   7.579  19.649  0.00  0.00    +0.000 A 
ATOM     10  N   UNL     1       1.779   6.495  20.572  0.00  0.00    +0.000 N 
ATOM     11  C   UNL     1       1.386   8.920  19.943  0.00  0.00    +0.000 A 
ATOM     12  H   UNL     1       1.796   6.751  21.549  0.00  0.00    +0.000 HD
ENDROOT
BRANCH  10  13
ATOM     13  C   UNL     1       2.158   5.148  20.308  0.00  0.00    +0.000 A 
ATOM     14  C   UNL     1       1.234   4.104  20.543  0.00  0.00    +0.000 A 
ATOM     15  C   UNL     1       1.448   2.802  20.100  0.00  0.00    +0.000 A 
ATOM     16  C   UNL     1       2.608   2.519  19.412  0.00  0.00    +0.000 A 
ATOM     17  F   UNL     1       2.816   1.285  18.937  0.00  0.00    +0.000 F 
ATOM     18  C   UNL     1       3.578   3.493  19.225  0.00  0.00    +0.000 A 
ATOM     19  C   UNL     1       3.404   4.793  19.734  0.00  0.00    +0.000 A 
BRANCH  19  20
ATOM     20  O   UNL     1       4.417   5.732  19.665  0.00  0.00    +0.000 OA
BRANCH  20  21
ATOM     21  C   UNL     1       5.510   5.392  18.764  0.00  0.00    +0.000 C 
ATOM     22  C   UNL     1       5.537   6.355  17.575  0.00  0.00    +0.000 C 
BRANCH  21  23
ATOM     23  C   UNL     1       6.813   5.430  19.463  0.00  0.00    +0.000 C 
ATOM     24  N   UNL     1       7.806   5.420  20.064  0.00  0.00    +0.000 NA
ENDBRANCH  21  23
ENDBRANCH  20  21
ENDBRANCH  19  20
ENDBRANCH  10  13
BRANCH   3  25
ATOM     25  C   UNL     1       0.167  12.015  21.794  0.00  0.00    +0.000 C 
ATOM     26  O   UNL     1      -0.451  11.770  22.827  0.00  0.00    +0.000 OA
ATOM     27  N   UNL     1       0.452  13.322  21.438  0.00  0.00    +0.000 N 
ATOM     28  H   UNL     1       1.004  13.487  20.606  0.00  0.00    +0.000 HD
BRANCH  27  29
ATOM     29  C   UNL     1       0.007  14.451  22.229  0.00  0.00    +0.000 C 
BRANCH  29  30
ATOM     30  C   UNL     1      -1.270  15.073  21.666  0.00  0.00    +0.000 C 
BRANCH  30  31
ATOM     31  C   UNL     1      -2.319  15.319  22.759  0.00  0.00    +0.000 C 
BRANCH  31  32
ATOM     32  N   UNL     1      -2.784  14.098  23.435  0.00  0.00    +0.000 NA
ATOM     33  C   UNL     1      -3.304  14.371  24.778  0.00  0.00    +0.000 C 
ATOM     34  C   UNL     1      -3.806  13.424  22.633  0.00  0.00    +0.000 C 
ENDBRANCH  31  32
ENDBRANCH  30  31
ENDBRANCH  29  30
ENDBRANCH  27  29
ENDBRANCH   3  25
TORSDOF 9
ENDMDL
MODEL 6
REMARK VINA RESULT:      -7.3      4.007      9.620
REMARK  Name = 
REMARK  13 active torsions:
REMARK  status: ('A' for Active; 'I' for Inactive)
REMARK    1  A    between atoms: C_1  and  C_2
REMARK    2  A    between atoms: C_3  and  C_4
REMARK    3  A    between atoms: N_6  and  C_7
REMARK    4  A    between atoms: C_7  and  C_8
REMARK    5  A    between atoms: C_8  and  C_9
REMARK    6  A    between atoms: C_9  and  N_10
REMARK    7  A    between atoms: N_10  and  C_11
REMARK    8  A    between atoms: N_10  and  C_12
REMARK    9  A    between atoms: N_19  and  C_20
REMARK   10  A    between atoms: C_26  and  O_27
REMARK   11  A    between atoms: O_27  and  C_28
REMARK   12  A    between atoms: C_28  and  C_29
REMARK   13  A    between atoms: C_28  and  C_30
REMARK                            x       y       z     vdW  Elec       q    Type
REMARK                         _______ _______ _______ _____ _____    ______ ____
ROOT
ATOM      1  C   UNL     1       2.573   8.564  17.353  0.00  0.00    +0.000 C 
ATOM      2  C   UNL     1       2.223   7.958  18.678  0.00  0.00    +0.000 A 
ATOM      3  C   UNL     1       2.460   6.626  19.042  0.00  0.00    +0.000 A 
ATOM      4  S   UNL     1       1.920   6.305  20.631  0.00  0.00    +0.000 S 
ATOM      5  C   UNL     1       1.383   7.891  20.852  0.00  0.00    +0.000 A 
ATOM      6  N   UNL     1       0.828   8.205  22.030  0.00  0.00    +0.000 NA
ATOM      7  C   UNL     1       0.460   9.473  22.087  0.00  0.00    +0.000 A 
ATOM      8  N   UNL     1       0.593  10.383  21.120  0.00  0.00    +0.000 NA
ATOM      9  C   UNL     1       1.144  10.066  19.911  0.00  0.00    +0.000 A 
ATOM     10  N   UNL     1       1.251  11.095  18.934  0.00  0.00    +0.000 N 
ATOM     11  C   UNL     1       1.588   8.719  19.754  0.00  0.00    +0.000 A 
ATOM     12  H   UNL     1       1.943  10.945  18.213  0.00  0.00    +0.000 HD
ENDROOT
BRANCH  10  13
ATOM     13  C   UNL     1       0.815  12.445  19.060  0.00  0.00    +0.000 A 
ATOM     14  C   UNL     1       1.769  13.474  19.230  0.00  0.00    +0.000 A 
ATOM     15  C   UNL     1       1.439  14.823  19.133  0.00  0.00    +0.000 A 
ATOM     16  C   UNL     1       0.132  15.168  18.866  0.00  0.00    +0.000 A 
ATOM     17  F   UNL     1      -0.200  16.456  18.723  0.00  0.00    +0.000 F 
ATOM     18  C   UNL     1      -0.852  14.195  18.767  0.00  0.00    +0.000 A 
ATOM     19  C   UNL     1      -0.542  12.833  18.938  0.00  0.00    +0.000 A 
BRANCH  19  20
ATOM     20  O   UNL     1      -1.535  11.870  18.969  0.00  0.00    +0.000 OA
BRANCH  20  21
ATOM     21  C   UNL     1      -2.060  11.487  17.665  0.00  0.00    +0.000 C 
ATOM     22  C   UNL     1      -1.642  10.055  17.324  0.00  0.00    +0.000 C 
BRANCH  21  23
ATOM     23  C   UNL     1      -3.534  11.595  17.629  0.00  0.00    +0.000 C 
ATOM     24  N   UNL     1      -4.685  11.748  17.624  0.00  0.00    +0.000 NA
ENDBRANCH  21  23
ENDBRANCH  20  21
ENDBRANCH  19  20
ENDBRANCH  10  13
BRANCH   3  25
ATOM     25  C   UNL     1       3.081   5.548  18.269  0.00  0.00    +0.000 C 
ATOM     26  O   UNL     1       4.270   5.539  17.963  0.00  0.00    +0.000 OA
ATOM     27  N   UNL     1       2.250   4.507  17.893  0.00  0.00    +0.000 N 
ATOM     28  H   UNL     1       1.286   4.521  18.201  0.00  0.00    +0.000 HD
BRANCH  27  29
ATOM     29  C   UNL     1       2.722   3.391  17.098  0.00  0.00    +0.000 C 
BRANCH  29  30
ATOM     30  C   UNL     1       2.743   2.091  17.899  0.00  0.00    +0.000 C 
BRANCH  30  31
ATOM     31  C   UNL     1       2.060   2.245  19.265  0.00  0.00    +0.000 C 
BRANCH  31  32
ATOM     32  N   UNL     1       2.927   2.806  20.313  0.00  0.00    +0.000 NA
ATOM     33  C   UNL     1       2.375   2.605  21.656  0.00  0.00    +0.000 C 
ATOM     34  C   UNL     1       4.269   2.228  20.234  0.00  0.00    +0.000 C 
ENDBRANCH  31  32
ENDBRANCH  30  31
ENDBRANCH  29  30
ENDBRANCH  27  29
ENDBRANCH   3  25
TORSDOF 9
ENDMDL
MODEL 7
REMARK VINA RESULT:      -7.2      2.057      2.716
REMARK  Name = 
REMARK  13 active torsions:
REMARK  status: ('A' for Active; 'I' for Inactive)
REMARK    1  A    between atoms: C_1  and  C_2
REMARK    2  A    between atoms: C_3  and  C_4
REMARK    3  A    between atoms: N_6  and  C_7
REMARK    4  A    between atoms: C_7  and  C_8
REMARK    5  A    between atoms: C_8  and  C_9
REMARK    6  A    between atoms: C_9  and  N_10
REMARK    7  A    between atoms: N_10  and  C_11
REMARK    8  A    between atoms: N_10  and  C_12
REMARK    9  A    between atoms: N_19  and  C_20
REMARK   10  A    between atoms: C_26  and  O_27
REMARK   11  A    between atoms: O_27  and  C_28
REMARK   12  A    between atoms: C_28  and  C_29
REMARK   13  A    between atoms: C_28  and  C_30
REMARK                            x       y       z     vdW  Elec       q    Type
REMARK                         _______ _______ _______ _____ _____    ______ ____
ROOT
ATOM      1  C   UNL     1       0.685   9.030  22.449  0.00  0.00    +0.000 C 
ATOM      2  C   UNL     1       0.906   9.700  21.127  0.00  0.00    +0.000 A 
ATOM      3  C   UNL     1       0.686  11.058  20.867  0.00  0.00    +0.000 A 
ATOM      4  S   UNL     1       1.046  11.451  19.243  0.00  0.00    +0.000 S 
ATOM      5  C   UNL     1       1.491   9.864  18.877  0.00  0.00    +0.000 A 
ATOM      6  N   UNL     1       1.893   9.600  17.626  0.00  0.00    +0.000 NA
ATOM      7  C   UNL     1       2.225   8.331  17.465  0.00  0.00    +0.000 A 
ATOM      8  N   UNL     1       2.184   7.375  18.396  0.00  0.00    +0.000 NA
ATOM      9  C   UNL     1       1.761   7.634  19.668  0.00  0.00    +0.000 A 
ATOM     10  N   UNL     1       1.750   6.559  20.601  0.00  0.00    +0.000 N 
ATOM     11  C   UNL     1       1.393   8.984  19.948  0.00  0.00    +0.000 A 
ATOM     12  H   UNL     1       1.771   6.825  21.576  0.00  0.00    +0.000 HD
ENDROOT
BRANCH  10  13
ATOM     13  C   UNL     1       2.109   5.204  20.352  0.00  0.00    +0.000 A 
ATOM     14  C   UNL     1       1.171   4.177  20.598  0.00  0.00    +0.000 A 
ATOM     15  C   UNL     1       1.366   2.867  20.168  0.00  0.00    +0.000 A 
ATOM     16  C   UNL     1       2.521   2.560  19.482  0.00  0.00    +0.000 A 
ATOM     17  F   UNL     1       2.711   1.318  19.020  0.00  0.00    +0.000 F 
ATOM     18  C   UNL     1       3.505   3.518  19.284  0.00  0.00    +0.000 A 
ATOM     19  C   UNL     1       3.350   4.826  19.779  0.00  0.00    +0.000 A 
BRANCH  19  20
ATOM     20  O   UNL     1       4.376   5.750  19.700  0.00  0.00    +0.000 OA
BRANCH  20  21
ATOM     21  C   UNL     1       5.453   5.394  18.786  0.00  0.00    +0.000 C 
ATOM     22  C   UNL     1       5.461   6.340  17.581  0.00  0.00    +0.000 C 
BRANCH  21  23
ATOM     23  C   UNL     1       6.767   5.441  19.461  0.00  0.00    +0.000 C 
ATOM     24  N   UNL     1       7.810   5.408  19.970  0.00  0.00    +0.000 NA
ENDBRANCH  21  23
ENDBRANCH  20  21
ENDBRANCH  19  20
ENDBRANCH  10  13
BRANCH   3  25
ATOM     25  C   UNL     1       0.219  12.114  21.768  0.00  0.00    +0.000 C 
ATOM     26  O   UNL     1      -0.444  11.892  22.778  0.00  0.00    +0.000 OA
ATOM     27  N   UNL     1       0.571  13.409  21.429  0.00  0.00    +0.000 N 
ATOM     28  H   UNL     1       1.158  13.554  20.617  0.00  0.00    +0.000 HD
BRANCH  27  29
ATOM     29  C   UNL     1       0.149  14.553  22.211  0.00  0.00    +0.000 C 
BRANCH  29  30
ATOM     30  C   UNL     1       0.876  15.829  21.790  0.00  0.00    +0.000 C 
BRANCH  30  31
ATOM     31  C   UNL     1       2.234  15.531  21.141  0.00  0.00    +0.000 C 
BRANCH  31  32
ATOM     32  N   UNL     1       2.359  16.011  19.756  0.00  0.00    +0.000 NA
ATOM     33  C   UNL     1       2.517  14.912  18.799  0.00  0.00    +0.000 C 
ATOM     34  C   UNL     1       1.203  16.829  19.389  0.00  0.00    +0.000 C 
ENDBRANCH  31  32
ENDBRANCH  30  31
ENDBRANCH  29  30
ENDBRANCH  27  29
ENDBRANCH   3  25
TORSDOF 9
ENDMDL
MODEL 8
REMARK VINA RESULT:      -7.2      3.619      5.477
REMARK  Name = 
REMARK  13 active torsions:
REMARK  status: ('A' for Active; 'I' for Inactive)
REMARK    1  A    between atoms: C_1  and  C_2
REMARK    2  A    between atoms: C_3  and  C_4
REMARK    3  A    between atoms: N_6  and  C_7
REMARK    4  A    between atoms: C_7  and  C_8
REMARK    5  A    between atoms: C_8  and  C_9
REMARK    6  A    between atoms: C_9  and  N_10
REMARK    7  A    between atoms: N_10  and  C_11
REMARK    8  A    between atoms: N_10  and  C_12
REMARK    9  A    between atoms: N_19  and  C_20
REMARK   10  A    between atoms: C_26  and  O_27
REMARK   11  A    between atoms: O_27  and  C_28
REMARK   12  A    between atoms: C_28  and  C_29
REMARK   13  A    between atoms: C_28  and  C_30
REMARK                            x       y       z     vdW  Elec       q    Type
REMARK                         _______ _______ _______ _____ _____    ______ ____
ROOT
ATOM      1  C   UNL     1       3.259   8.022  17.722  0.00  0.00    +0.000 C 
ATOM      2  C   UNL     1       2.915   6.858  18.601  0.00  0.00    +0.000 A 
ATOM      3  C   UNL     1       2.143   6.931  19.768  0.00  0.00    +0.000 A 
ATOM      4  S   UNL     1       1.969   5.397  20.501  0.00  0.00    +0.000 S 
ATOM      5  C   UNL     1       2.889   4.636  19.306  0.00  0.00    +0.000 A 
ATOM      6  N   UNL     1       3.078   3.314  19.411  0.00  0.00    +0.000 NA
ATOM      7  C   UNL     1       3.801   2.832  18.414  0.00  0.00    +0.000 A 
ATOM      8  N   UNL     1       4.314   3.528  17.397  0.00  0.00    +0.000 NA
ATOM      9  C   UNL     1       4.138   4.878  17.293  0.00  0.00    +0.000 A 
ATOM     10  N   UNL     1       4.716   5.544  16.176  0.00  0.00    +0.000 N 
ATOM     11  C   UNL     1       3.356   5.493  18.316  0.00  0.00    +0.000 A 
ATOM     12  H   UNL     1       4.305   6.434  15.936  0.00  0.00    +0.000 HD
ENDROOT
BRANCH  10  13
ATOM     13  C   UNL     1       5.502   4.959  15.143  0.00  0.00    +0.000 A 
ATOM     14  C   UNL     1       4.922   3.999  14.283  0.00  0.00    +0.000 A 
ATOM     15  C   UNL     1       5.551   3.557  13.122  0.00  0.00    +0.000 A 
ATOM     16  C   UNL     1       6.788   4.072  12.802  0.00  0.00    +0.000 A 
ATOM     17  F   UNL     1       7.392   3.696  11.669  0.00  0.00    +0.000 F 
ATOM     18  C   UNL     1       7.429   4.959  13.655  0.00  0.00    +0.000 A 
ATOM     19  C   UNL     1       6.835   5.354  14.867  0.00  0.00    +0.000 A 
BRANCH  19  20
ATOM     20  O   UNL     1       7.520   6.134  15.781  0.00  0.00    +0.000 OA
BRANCH  20  21
ATOM     21  C   UNL     1       7.265   5.809  17.179  0.00  0.00    +0.000 C 
ATOM     22  C   UNL     1       7.845   4.433  17.517  0.00  0.00    +0.000 C 
BRANCH  21  23
ATOM     23  C   UNL     1       7.846   6.826  18.080  0.00  0.00    +0.000 C 
ATOM     24  N   UNL     1       8.299   7.576  18.842  0.00  0.00    +0.000 NA
ENDBRANCH  21  23
ENDBRANCH  20  21
ENDBRANCH  19  20
ENDBRANCH  10  13
BRANCH   3  25
ATOM     25  C   UNL     1       1.505   8.094  20.389  0.00  0.00    +0.000 C 
ATOM     26  O   UNL     1       1.271   8.171  21.592  0.00  0.00    +0.000 OA
ATOM     27  N   UNL     1       1.173   9.137  19.540  0.00  0.00    +0.000 N 
ATOM     28  H   UNL     1       1.423   9.062  18.562  0.00  0.00    +0.000 HD
BRANCH  27  29
ATOM     29  C   UNL     1       0.508  10.333  20.012  0.00  0.00    +0.000 C 
BRANCH  29  30
ATOM     30  C   UNL     1      -0.050  11.167  18.860  0.00  0.00    +0.000 C 
BRANCH  30  31
ATOM     31  C   UNL     1      -0.970  10.344  17.948  0.00  0.00    +0.000 C 
BRANCH  31  32
ATOM     32  N   UNL     1      -2.389  10.374  18.337  0.00  0.00    +0.000 NA
ATOM     33  C   UNL     1      -2.846  11.726  18.667  0.00  0.00    +0.000 C 
ATOM     34  C   UNL     1      -3.224   9.809  17.277  0.00  0.00    +0.000 C 
ENDBRANCH  31  32
ENDBRANCH  30  31
ENDBRANCH  29  30
ENDBRANCH  27  29
ENDBRANCH   3  25
TORSDOF 9
ENDMDL
MODEL 9
REMARK VINA RESULT:      -7.1      2.892      4.580
REMARK  Name = 
REMARK  13 active torsions:
REMARK  status: ('A' for Active; 'I' for Inactive)
REMARK    1  A    between atoms: C_1  and  C_2
REMARK    2  A    between atoms: C_3  and  C_4
REMARK    3  A    between atoms: N_6  and  C_7
REMARK    4  A    between atoms: C_7  and  C_8
REMARK    5  A    between atoms: C_8  and  C_9
REMARK    6  A    between atoms: C_9  and  N_10
REMARK    7  A    between atoms: N_10  and  C_11
REMARK    8  A    between atoms: N_10  and  C_12
REMARK    9  A    between atoms: N_19  and  C_20
REMARK   10  A    between atoms: C_26  and  O_27
REMARK   11  A    between atoms: O_27  and  C_28
REMARK   12  A    between atoms: C_28  and  C_29
REMARK   13  A    between atoms: C_28  and  C_30
REMARK                            x       y       z     vdW  Elec       q    Type
REMARK                         _______ _______ _______ _____ _____    ______ ____
ROOT
ATOM      1  C   UNL     1       2.143   9.584  17.916  0.00  0.00    +0.000 C 
ATOM      2  C   UNL     1       1.714   8.808  19.124  0.00  0.00    +0.000 A 
ATOM      3  C   UNL     1       0.828   9.270  20.105  0.00  0.00    +0.000 A 
ATOM      4  S   UNL     1       0.585   8.104  21.330  0.00  0.00    +0.000 S 
ATOM      5  C   UNL     1       1.622   6.997  20.589  0.00  0.00    +0.000 A 
ATOM      6  N   UNL     1       1.803   5.812  21.188  0.00  0.00    +0.000 NA
ATOM      7  C   UNL     1       2.625   5.030  20.510  0.00  0.00    +0.000 A 
ATOM      8  N   UNL     1       3.237   5.326  19.362  0.00  0.00    +0.000 NA
ATOM      9  C   UNL     1       3.069   6.537  18.754  0.00  0.00    +0.000 A 
ATOM     10  N   UNL     1       3.756   6.773  17.530  0.00  0.00    +0.000 N 
ATOM     11  C   UNL     1       2.186   7.451  19.402  0.00  0.00    +0.000 A 
ATOM     12  H   UNL     1       3.368   7.497  16.942  0.00  0.00    +0.000 HD
ENDROOT
BRANCH  10  13
ATOM     13  C   UNL     1       4.644   5.883  16.861  0.00  0.00    +0.000 A 
ATOM     14  C   UNL     1       4.187   4.604  16.469  0.00  0.00    +0.000 A 
ATOM     15  C   UNL     1       4.917   3.777  15.620  0.00  0.00    +0.000 A 
ATOM     16  C   UNL     1       6.133   4.220  15.148  0.00  0.00    +0.000 A 
ATOM     17  F   UNL     1       6.833   3.461  14.296  0.00  0.00    +0.000 F 
ATOM     18  C   UNL     1       6.657   5.435  15.566  0.00  0.00    +0.000 A 
ATOM     19  C   UNL     1       5.961   6.245  16.482  0.00  0.00    +0.000 A 
BRANCH  19  20
ATOM     20  O   UNL     1       6.531   7.393  17.002  0.00  0.00    +0.000 OA
BRANCH  20  21
ATOM     21  C   UNL     1       7.790   7.188  17.707  0.00  0.00    +0.000 C 
ATOM     22  C   UNL     1       8.333   8.524  18.222  0.00  0.00    +0.000 C 
BRANCH  21  23
ATOM     23  C   UNL     1       7.624   6.251  18.838  0.00  0.00    +0.000 C 
ATOM     24  N   UNL     1       7.430   5.548  19.741  0.00  0.00    +0.000 NA
ENDBRANCH  21  23
ENDBRANCH  20  21
ENDBRANCH  19  20
ENDBRANCH  10  13
BRANCH   3  25
ATOM     25  C   UNL     1       0.127  10.554  20.194  0.00  0.00    +0.000 C 
ATOM     26  O   UNL     1      -0.970  10.758  19.681  0.00  0.00    +0.000 OA
ATOM     27  N   UNL     1       0.768  11.554  20.906  0.00  0.00    +0.000 N 
ATOM     28  H   UNL     1       1.648  11.339  21.356  0.00  0.00    +0.000 HD
BRANCH  27  29
ATOM     29  C   UNL     1       0.206  12.881  21.046  0.00  0.00    +0.000 C 
BRANCH  29  30
ATOM     30  C   UNL     1       1.292  13.947  21.178  0.00  0.00    +0.000 C 
BRANCH  30  31
ATOM     31  C   UNL     1       1.859  14.363  19.814  0.00  0.00    +0.000 C 
BRANCH  31  32
ATOM     32  N   UNL     1       3.293  14.084  19.645  0.00  0.00    +0.000 NA
ATOM     33  C   UNL     1       3.828  14.652  18.405  0.00  0.00    +0.000 C 
ATOM     34  C   UNL     1       4.052  14.584  20.792  0.00  0.00    +0.000 C 
ENDBRANCH  31  32
ENDBRANCH  30  31
ENDBRANCH  29  30
ENDBRANCH  27  29
ENDBRANCH   3  25
TORSDOF 9
ENDMDL
