MODEL 1
REMARK VINA RESULT:      -7.6      0.000      0.000
REMARK  Name = 
REMARK  2 active torsions:
REMARK  status: ('A' for Active; 'I' for Inactive)
REMARK    1  A    between atoms: C_4  and  C_5
REMARK    2  A    between atoms: C_14  and  N_15
REMARK                            x       y       z     vdW  Elec       q    Type
REMARK                         _______ _______ _______ _____ _____    ______ ____
ROOT
ATOM      1  C   UNL     1      -0.858   9.684  18.417  0.00  0.00    +0.000 C 
ATOM      2  C   UNL     1      -0.975   9.850  19.952  0.00  0.00    +0.000 C 
ATOM      3  C   UNL     1       0.017   9.046  20.790  0.00  0.00    +0.000 C 
ATOM      4  C   UNL     1       1.474   9.270  20.402  0.00  0.00    +0.000 C 
ATOM      5  N   UNL     1       1.751   8.576  19.154  0.00  0.00    +0.000 N 
ATOM      6  C   UNL     1       2.380   7.338  19.151  0.00  0.00    +0.000 A 
ATOM      7  C   UNL     1       2.257   6.431  20.215  0.00  0.00    +0.000 A 
ATOM      8  N   UNL     1       2.803   5.188  20.250  0.00  0.00    +0.000 NA
ATOM      9  C   UNL     1       3.516   4.857  19.153  0.00  0.00    +0.000 A 
ATOM     10  C   UNL     1       3.681   5.729  18.088  0.00  0.00    +0.000 A 
ATOM     11  N   UNL     1       3.108   6.971  18.068  0.00  0.00    +0.000 NA
ATOM     12  C   UNL     1       1.640   9.293  17.888  0.00  0.00    +0.000 C 
ATOM     13  C   UNL     1       0.455  10.268  17.852  0.00  0.00    +0.000 C 
ENDROOT
BRANCH   1  17
ATOM     14  C   UNL     1      -4.317  11.510  16.551  0.00  0.00    +0.000 A 
ATOM     15  C   UNL     1      -4.038  11.766  17.890  0.00  0.00    +0.000 A 
ATOM     16  C   UNL     1      -2.914  11.196  18.491  0.00  0.00    +0.000 A 
ATOM     17  C   UNL     1      -2.061  10.353  17.762  0.00  0.00    +0.000 A 
ATOM     18  C   UNL     1      -2.349  10.112  16.409  0.00  0.00    +0.000 A 
ATOM     19  C   UNL     1      -3.471  10.688  15.809  0.00  0.00    +0.000 A 
ENDBRANCH   1  17
BRANCH  10  20
ATOM     20  N   UNL     1       4.488   5.319  16.996  0.00  0.00    +0.000 N 
ATOM     21  C   UNL     1       5.138   6.141  16.100  0.00  0.00    +0.000 A 
ATOM     22  C   UNL     1       5.829   5.329  15.233  0.00  0.00    +0.000 A 
ATOM     23  C   UNL     1       5.538   4.025  15.665  0.00  0.00    +0.000 A 
ATOM     24  N   UNL     1       4.732   4.004  16.727  0.00  0.00    +0.000 NA
ENDBRANCH  10  20
TORSDOF 2
ENDMDL
MODEL 2
REMARK VINA RESULT:      -7.5      0.388      1.251
REMARK  Name = 
REMARK  2 active torsions:
REMARK  status: ('A' for Active; 'I' for Inactive)
REMARK    1  A    between atoms: C_4  and  C_5
REMARK    2  A    between atoms: C_14  and  N_15
REMARK                            x       y       z     vdW  Elec       q    Type
REMARK                         _______ _______ _______ _____ _____    ______ ____
ROOT
ATOM      1  C   UNL     1      -0.909   9.676  18.417  0.00  0.00    +0.000 C 
ATOM      2  C   UNL     1      -1.011   9.857  19.951  0.00  0.00    +0.000 C 
ATOM      3  C   UNL     1      -0.000   9.075  20.787  0.00  0.00    +0.000 C 
ATOM      4  C   UNL     1       1.450   9.312  20.380  0.00  0.00    +0.000 C 
ATOM      5  N   UNL     1       1.721   8.607  19.136  0.00  0.00    +0.000 N 
ATOM      6  C   UNL     1       2.366   7.377  19.140  0.00  0.00    +0.000 A 
ATOM      7  C   UNL     1       2.265   6.480  20.215  0.00  0.00    +0.000 A 
ATOM      8  N   UNL     1       2.827   5.245  20.257  0.00  0.00    +0.000 NA
ATOM      9  C   UNL     1       3.532   4.910  19.157  0.00  0.00    +0.000 A 
ATOM     10  C   UNL     1       3.674   5.773  18.080  0.00  0.00    +0.000 A 
ATOM     11  N   UNL     1       3.086   7.007  18.053  0.00  0.00    +0.000 NA
ATOM     12  C   UNL     1       1.587   9.309  17.864  0.00  0.00    +0.000 C 
ATOM     13  C   UNL     1       0.391  10.269  17.830  0.00  0.00    +0.000 C 
ENDROOT
BRANCH   1  17
ATOM     14  C   UNL     1      -4.332  11.592  16.576  0.00  0.00    +0.000 A 
ATOM     15  C   UNL     1      -3.513  10.762  15.816  0.00  0.00    +0.000 A 
ATOM     16  C   UNL     1      -2.421  10.127  16.409  0.00  0.00    +0.000 A 
ATOM     17  C   UNL     1      -2.127  10.323  17.768  0.00  0.00    +0.000 A 
ATOM     18  C   UNL     1      -2.967  11.155  18.523  0.00  0.00    +0.000 A 
ATOM     19  C   UNL     1      -4.063  11.786  17.929  0.00  0.00    +0.000 A 
ENDBRANCH   1  17
BRANCH  10  20
ATOM     20  N   UNL     1       4.474   5.360  16.983  0.00  0.00    +0.000 N 
ATOM     21  C   UNL     1       4.776   4.062  16.629  0.00  0.00    +0.000 A 
ATOM     22  C   UNL     1       5.542   4.122  15.490  0.00  0.00    +0.000 A 
ATOM     23  C   UNL     1       5.669   5.494  15.223  0.00  0.00    +0.000 A 
ATOM     24  N   UNL     1       5.029   6.251  16.113  0.00  0.00    +0.000 NA
ENDBRANCH  10  20
TORSDOF 2
ENDMDL
MODEL 3
REMARK VINA RESULT:      -6.8      3.196      8.596
REMARK  Name = 
REMARK  2 active torsions:
REMARK  status: ('A' for Active; 'I' for Inactive)
REMARK    1  A    between atoms: C_4  and  C_5
REMARK    2  A    between atoms: C_14  and  N_15
REMARK                            x       y       z     vdW  Elec       q    Type
REMARK                         _______ _______ _______ _____ _____    ______ ____
ROOT
ATOM      1  C   UNL     1       1.493   6.460  19.608  0.00  0.00    +0.000 C 
ATOM      2  C   UNL     1       2.255   6.801  18.304  0.00  0.00    +0.000 C 
ATOM      3  C   UNL     1       1.996   8.189  17.721  0.00  0.00    +0.000 C 
ATOM      4  C   UNL     1       2.224   9.325  18.712  0.00  0.00    +0.000 C 
ATOM      5  N   UNL     1       1.122   9.364  19.661  0.00  0.00    +0.000 N 
ATOM      6  C   UNL     1       0.081  10.270  19.507  0.00  0.00    +0.000 A 
ATOM      7  C   UNL     1      -0.320  10.747  18.249  0.00  0.00    +0.000 A 
ATOM      8  N   UNL     1      -1.360  11.592  18.029  0.00  0.00    +0.000 NA
ATOM      9  C   UNL     1      -2.017  11.977  19.143  0.00  0.00    +0.000 A 
ATOM     10  C   UNL     1      -1.643  11.547  20.407  0.00  0.00    +0.000 A 
ATOM     11  N   UNL     1      -0.601  10.683  20.603  0.00  0.00    +0.000 NA
ATOM     12  C   UNL     1       1.239   8.661  20.934  0.00  0.00    +0.000 C 
ATOM     13  C   UNL     1       1.956   7.310  20.811  0.00  0.00    +0.000 C 
ENDROOT
BRANCH   1  17
ATOM     14  C   UNL     1       1.948   2.244  20.503  0.00  0.00    +0.000 A 
ATOM     15  C   UNL     1       1.563   2.642  19.226  0.00  0.00    +0.000 A 
ATOM     16  C   UNL     1       1.434   3.999  18.927  0.00  0.00    +0.000 A 
ATOM     17  C   UNL     1       1.678   4.976  19.905  0.00  0.00    +0.000 A 
ATOM     18  C   UNL     1       2.075   4.560  21.186  0.00  0.00    +0.000 A 
ATOM     19  C   UNL     1       2.209   3.202  21.481  0.00  0.00    +0.000 A 
ENDBRANCH   1  17
BRANCH  10  20
ATOM     20  N   UNL     1      -2.358  12.039  21.529  0.00  0.00    +0.000 N 
ATOM     21  C   UNL     1      -1.996  11.914  22.853  0.00  0.00    +0.000 A 
ATOM     22  C   UNL     1      -2.951  12.566  23.597  0.00  0.00    +0.000 A 
ATOM     23  C   UNL     1      -3.865  13.051  22.648  0.00  0.00    +0.000 A 
ATOM     24  N   UNL     1      -3.519  12.742  21.398  0.00  0.00    +0.000 NA
ENDBRANCH  10  20
TORSDOF 2
ENDMDL
MODEL 4
REMARK VINA RESULT:      -6.8      3.951      7.981
REMARK  Name = 
REMARK  2 active torsions:
REMARK  status: ('A' for Active; 'I' for Inactive)
REMARK    1  A    between atoms: C_4  and  C_5
REMARK    2  A    between atoms: C_14  and  N_15
REMARK                            x       y       z     vdW  Elec       q    Type
REMARK                         _______ _______ _______ _____ _____    ______ ____
ROOT
ATOM      1  C   UNL     1       2.293   8.218  18.786  0.00  0.00    +0.000 C 
ATOM      2  C   UNL     1       1.442   7.760  19.995  0.00  0.00    +0.000 C 
ATOM      3  C   UNL     1       0.847   8.874  20.854  0.00  0.00    +0.000 C 
ATOM      4  C   UNL     1       0.034   9.894  20.064  0.00  0.00    +0.000 C 
ATOM      5  N   UNL     1       0.939  10.758  19.321  0.00  0.00    +0.000 N 
ATOM      6  C   UNL     1       1.271  12.020  19.797  0.00  0.00    +0.000 A 
ATOM      7  C   UNL     1       1.297  12.323  21.167  0.00  0.00    +0.000 A 
ATOM      8  N   UNL     1       1.662  13.518  21.697  0.00  0.00    +0.000 NA
ATOM      9  C   UNL     1       2.008  14.454  20.788  0.00  0.00    +0.000 A 
ATOM     10  C   UNL     1       1.977  14.205  19.424  0.00  0.00    +0.000 A 
ATOM     11  N   UNL     1       1.621  12.986  18.914  0.00  0.00    +0.000 NA
ATOM     12  C   UNL     1       1.275  10.435  17.939  0.00  0.00    +0.000 C 
ATOM     13  C   UNL     1       1.457   8.930  17.700  0.00  0.00    +0.000 C 
ENDROOT
BRANCH   1  17
ATOM     14  C   UNL     1       4.228   4.746  17.058  0.00  0.00    +0.000 A 
ATOM     15  C   UNL     1       4.763   6.013  16.844  0.00  0.00    +0.000 A 
ATOM     16  C   UNL     1       4.155   7.132  17.415  0.00  0.00    +0.000 A 
ATOM     17  C   UNL     1       2.997   6.999  18.197  0.00  0.00    +0.000 A 
ATOM     18  C   UNL     1       2.475   5.714  18.412  0.00  0.00    +0.000 A 
ATOM     19  C   UNL     1       3.088   4.596  17.844  0.00  0.00    +0.000 A 
ENDBRANCH   1  17
BRANCH  10  20
ATOM     20  N   UNL     1       2.309  15.260  18.535  0.00  0.00    +0.000 N 
ATOM     21  C   UNL     1       3.362  15.283  17.645  0.00  0.00    +0.000 A 
ATOM     22  C   UNL     1       3.287  16.474  16.963  0.00  0.00    +0.000 A 
ATOM     23  C   UNL     1       2.166  17.121  17.506  0.00  0.00    +0.000 A 
ATOM     24  N   UNL     1       1.566  16.401  18.453  0.00  0.00    +0.000 NA
ENDBRANCH  10  20
TORSDOF 2
ENDMDL
MODEL 5
REMARK VINA RESULT:      -6.7      3.194      8.528
REMARK  Name = 
REMARK  2 active torsions:
REMARK  status: ('A' for Active; 'I' for Inactive)
REMARK    1  A    between atoms: C_4  and  C_5
REMARK    2  A    between atoms: C_14  and  N_15
REMARK                            x       y       z     vdW  Elec       q    Type
REMARK                         _______ _______ _______ _____ _____    ______ ____
ROOT
ATOM      1  C   UNL     1       1.498   6.460  19.607  0.00  0.00    +0.000 C 
ATOM      2  C   UNL     1       2.272   6.803  18.311  0.00  0.00    +0.000 C 
ATOM      3  C   UNL     1       2.021   8.192  17.729  0.00  0.00    +0.000 C 
ATOM      4  C   UNL     1       2.241   9.327  18.724  0.00  0.00    +0.000 C 
ATOM      5  N   UNL     1       1.130   9.365  19.662  0.00  0.00    +0.000 N 
ATOM      6  C   UNL     1       0.092  10.273  19.501  0.00  0.00    +0.000 A 
ATOM      7  C   UNL     1      -0.297  10.753  18.240  0.00  0.00    +0.000 A 
ATOM      8  N   UNL     1      -1.334  11.599  18.012  0.00  0.00    +0.000 NA
ATOM      9  C   UNL     1      -2.001  11.983  19.120  0.00  0.00    +0.000 A 
ATOM     10  C   UNL     1      -1.639  11.550  20.387  0.00  0.00    +0.000 A 
ATOM     11  N   UNL     1      -0.600  10.684  20.591  0.00  0.00    +0.000 NA
ATOM     12  C   UNL     1       1.234   8.660  20.935  0.00  0.00    +0.000 C 
ATOM     13  C   UNL     1       1.950   7.308  20.816  0.00  0.00    +0.000 C 
ENDROOT
BRANCH   1  17
ATOM     14  C   UNL     1       2.081   2.240  20.401  0.00  0.00    +0.000 A 
ATOM     15  C   UNL     1       2.294   3.170  21.414  0.00  0.00    +0.000 A 
ATOM     16  C   UNL     1       2.089   4.529  21.169  0.00  0.00    +0.000 A 
ATOM     17  C   UNL     1       1.678   4.975  19.904  0.00  0.00    +0.000 A 
ATOM     18  C   UNL     1       1.457   4.025  18.895  0.00  0.00    +0.000 A 
ATOM     19  C   UNL     1       1.659   2.666  19.143  0.00  0.00    +0.000 A 
ENDBRANCH   1  17
BRANCH  10  20
ATOM     20  N   UNL     1      -2.364  12.041  21.503  0.00  0.00    +0.000 N 
ATOM     21  C   UNL     1      -3.534  12.771  21.466  0.00  0.00    +0.000 A 
ATOM     22  C   UNL     1      -3.906  13.004  22.769  0.00  0.00    +0.000 A 
ATOM     23  C   UNL     1      -2.903  12.391  23.536  0.00  0.00    +0.000 A 
ATOM     24  N   UNL     1      -1.969  11.806  22.787  0.00  0.00    +0.000 NA
ENDBRANCH  10  20
TORSDOF 2
ENDMDL
MODEL 6
REMARK VINA RESULT:      -6.7      3.744      7.942
REMARK  Name = 
REMARK  2 active torsions:
REMARK  status: ('A' for Active; 'I' for Inactive)
REMARK    1  A    between atoms: C_4  and  C_5
REMARK    2  A    between atoms: C_14  and  N_15
REMARK                            x       y       z     vdW  Elec       q    Type
REMARK                         _______ _______ _______ _____ _____    ______ ____
ROOT
ATOM      1  C   UNL     1       2.228   7.942  19.344  0.00  0.00    +0.000 C 
ATOM      2  C   UNL     1       1.188   7.572  20.429  0.00  0.00    +0.000 C 
ATOM      3  C   UNL     1       0.476   8.744  21.102  0.00  0.00    +0.000 C 
ATOM      4  C   UNL     1      -0.186   9.707  20.122  0.00  0.00    +0.000 C 
ATOM      5  N   UNL     1       0.837  10.516  19.477  0.00  0.00    +0.000 N 
ATOM      6  C   UNL     1       1.103  11.807  19.912  0.00  0.00    +0.000 A 
ATOM      7  C   UNL     1       0.913  12.205  21.244  0.00  0.00    +0.000 A 
ATOM      8  N   UNL     1       1.202  13.435  21.742  0.00  0.00    +0.000 NA
ATOM      9  C   UNL     1       1.701  14.304  20.838  0.00  0.00    +0.000 A 
ATOM     10  C   UNL     1       1.887  13.959  19.507  0.00  0.00    +0.000 A 
ATOM     11  N   UNL     1       1.602  12.709  19.032  0.00  0.00    +0.000 NA
ATOM     12  C   UNL     1       1.387  10.096  18.193  0.00  0.00    +0.000 C 
ATOM     13  C   UNL     1       1.586   8.578  18.092  0.00  0.00    +0.000 C 
ENDROOT
BRANCH   1  17
ATOM     14  C   UNL     1       4.353   4.330  18.242  0.00  0.00    +0.000 A 
ATOM     15  C   UNL     1       4.434   5.455  17.427  0.00  0.00    +0.000 A 
ATOM     16  C   UNL     1       3.767   6.627  17.787  0.00  0.00    +0.000 A 
ATOM     17  C   UNL     1       3.002   6.685  18.963  0.00  0.00    +0.000 A 
ATOM     18  C   UNL     1       2.939   5.546  19.780  0.00  0.00    +0.000 A 
ATOM     19  C   UNL     1       3.611   4.376  19.420  0.00  0.00    +0.000 A 
ENDBRANCH   1  17
BRANCH  10  20
ATOM     20  N   UNL     1       2.370  14.949  18.613  0.00  0.00    +0.000 N 
ATOM     21  C   UNL     1       1.866  16.222  18.446  0.00  0.00    +0.000 A 
ATOM     22  C   UNL     1       2.655  16.849  17.511  0.00  0.00    +0.000 A 
ATOM     23  C   UNL     1       3.610  15.885  17.153  0.00  0.00    +0.000 A 
ATOM     24  N   UNL     1       3.451  14.737  17.810  0.00  0.00    +0.000 NA
ENDBRANCH  10  20
TORSDOF 2
ENDMDL
MODEL 7
REMARK VINA RESULT:      -6.7      5.152      8.957
REMARK  Name = 
REMARK  2 active torsions:
REMARK  status: ('A' for Active; 'I' for Inactive)
REMARK    1  A    between atoms: C_4  and  C_5
REMARK    2  A    between atoms: C_14  and  N_15
REMARK                            x       y       z     vdW  Elec       q    Type
REMARK                         _______ _______ _______ _____ _____    ______ ____
ROOT
ATOM      1  C   UNL     1       0.750  10.267  19.755  0.00  0.00    +0.000 C 
ATOM      2  C   UNL     1       0.043   9.964  21.098  0.00  0.00    +0.000 C 
ATOM      3  C   UNL     1      -0.561  11.166  21.822  0.00  0.00    +0.000 C 
ATOM      4  C   UNL     1      -1.515  11.987  20.961  0.00  0.00    +0.000 C 
ATOM      5  N   UNL     1      -0.747  12.771  20.006  0.00  0.00    +0.000 N 
ATOM      6  C   UNL     1      -0.475  14.112  20.239  0.00  0.00    +0.000 A 
ATOM      7  C   UNL     1      -0.356  14.640  21.534  0.00  0.00    +0.000 A 
ATOM      8  N   UNL     1      -0.041  15.927  21.828  0.00  0.00    +0.000 NA
ATOM      9  C   UNL     1       0.152  16.718  20.752  0.00  0.00    +0.000 A 
ATOM     10  C   UNL     1       0.024  16.244  19.455  0.00  0.00    +0.000 A 
ATOM     11  N   UNL     1      -0.278  14.938  19.183  0.00  0.00    +0.000 NA
ATOM     12  C   UNL     1      -0.506  12.244  18.667  0.00  0.00    +0.000 C 
ATOM     13  C   UNL     1      -0.229  10.734  18.656  0.00  0.00    +0.000 C 
ENDROOT
BRANCH   1  17
ATOM     14  C   UNL     1       2.937   6.751  18.476  0.00  0.00    +0.000 A 
ATOM     15  C   UNL     1       2.382   6.793  19.751  0.00  0.00    +0.000 A 
ATOM     16  C   UNL     1       1.660   7.915  20.161  0.00  0.00    +0.000 A 
ATOM     17  C   UNL     1       1.493   9.014  19.304  0.00  0.00    +0.000 A 
ATOM     18  C   UNL     1       2.050   8.952  18.017  0.00  0.00    +0.000 A 
ATOM     19  C   UNL     1       2.768   7.827  17.607  0.00  0.00    +0.000 A 
ENDBRANCH   1  17
BRANCH  10  20
ATOM     20  N   UNL     1       0.196  17.156  18.381  0.00  0.00    +0.000 N 
ATOM     21  C   UNL     1       1.393  17.549  17.821  0.00  0.00    +0.000 A 
ATOM     22  C   UNL     1       1.094  18.408  16.791  0.00  0.00    +0.000 A 
ATOM     23  C   UNL     1      -0.307  18.492  16.798  0.00  0.00    +0.000 A 
ATOM     24  N   UNL     1      -0.861  17.741  17.749  0.00  0.00    +0.000 NA
ENDBRANCH  10  20
TORSDOF 2
ENDMDL
MODEL 8
REMARK VINA RESULT:      -6.6      3.850      7.974
REMARK  Name = 
REMARK  2 active torsions:
REMARK  status: ('A' for Active; 'I' for Inactive)
REMARK    1  A    between atoms: C_4  and  C_5
REMARK    2  A    between atoms: C_14  and  N_15
REMARK                            x       y       z     vdW  Elec       q    Type
REMARK                         _______ _______ _______ _____ _____    ______ ____
ROOT
ATOM      1  C   UNL     1       2.221   8.053  19.297  0.00  0.00    +0.000 C 
ATOM      2  C   UNL     1       1.185   7.672  20.382  0.00  0.00    +0.000 C 
ATOM      3  C   UNL     1       0.472   8.837  21.065  0.00  0.00    +0.000 C 
ATOM      4  C   UNL     1      -0.196   9.805  20.095  0.00  0.00    +0.000 C 
ATOM      5  N   UNL     1       0.823  10.621  19.453  0.00  0.00    +0.000 N 
ATOM      6  C   UNL     1       1.086  11.910  19.896  0.00  0.00    +0.000 A 
ATOM      7  C   UNL     1       0.898  12.298  21.232  0.00  0.00    +0.000 A 
ATOM      8  N   UNL     1       1.186  13.525  21.737  0.00  0.00    +0.000 NA
ATOM      9  C   UNL     1       1.680  14.402  20.838  0.00  0.00    +0.000 A 
ATOM     10  C   UNL     1       1.863  14.068  19.505  0.00  0.00    +0.000 A 
ATOM     11  N   UNL     1       1.581  12.820  19.021  0.00  0.00    +0.000 NA
ATOM     12  C   UNL     1       1.370  10.212  18.164  0.00  0.00    +0.000 C 
ATOM     13  C   UNL     1       1.573   8.695  18.051  0.00  0.00    +0.000 C 
ENDROOT
BRANCH   1  17
ATOM     14  C   UNL     1       4.502   4.536  18.196  0.00  0.00    +0.000 A 
ATOM     15  C   UNL     1       3.780   4.547  19.386  0.00  0.00    +0.000 A 
ATOM     16  C   UNL     1       3.028   5.670  19.736  0.00  0.00    +0.000 A 
ATOM     17  C   UNL     1       2.998   6.801  18.905  0.00  0.00    +0.000 A 
ATOM     18  C   UNL     1       3.723   6.771  17.704  0.00  0.00    +0.000 A 
ATOM     19  C   UNL     1       4.471   5.645  17.353  0.00  0.00    +0.000 A 
ENDBRANCH   1  17
BRANCH  10  20
ATOM     20  N   UNL     1       2.341  15.065  18.616  0.00  0.00    +0.000 N 
ATOM     21  C   UNL     1       3.395  14.944  17.735  0.00  0.00    +0.000 A 
ATOM     22  C   UNL     1       3.486  16.131  17.049  0.00  0.00    +0.000 A 
ATOM     23  C   UNL     1       2.458  16.925  17.581  0.00  0.00    +0.000 A 
ATOM     24  N   UNL     1       1.759  16.295  18.525  0.00  0.00    +0.000 NA
ENDBRANCH  10  20
TORSDOF 2
ENDMDL
MODEL 9
REMARK VINA RESULT:      -6.6      5.050      8.934
REMARK  Name = 
REMARK  2 active torsions:
REMARK  status: ('A' for Active; 'I' for Inactive)
REMARK    1  A    between atoms: C_4  and  C_5
REMARK    2  A    between atoms: C_14  and  N_15
REMARK                            x       y       z     vdW  Elec       q    Type
REMARK                         _______ _______ _______ _____ _____    ______ ____
ROOT
ATOM      1  C   UNL     1       0.763  10.187  20.026  0.00  0.00    +0.000 C 
ATOM      2  C   UNL     1       0.086   9.953  21.399  0.00  0.00    +0.000 C 
ATOM      3  C   UNL     1      -0.470  11.195  22.091  0.00  0.00    +0.000 C 
ATOM      4  C   UNL     1      -1.428  12.007  21.225  0.00  0.00    +0.000 C 
ATOM      5  N   UNL     1      -0.668  12.734  20.220  0.00  0.00    +0.000 N 
ATOM      6  C   UNL     1      -0.359  14.076  20.395  0.00  0.00    +0.000 A 
ATOM      7  C   UNL     1      -0.192  14.650  21.665  0.00  0.00    +0.000 A 
ATOM      8  N   UNL     1       0.161  15.939  21.901  0.00  0.00    +0.000 NA
ATOM      9  C   UNL     1       0.343  16.684  20.790  0.00  0.00    +0.000 A 
ATOM     10  C   UNL     1       0.169  16.165  19.516  0.00  0.00    +0.000 A 
ATOM     11  N   UNL     1      -0.171  14.857  19.303  0.00  0.00    +0.000 NA
ATOM     12  C   UNL     1      -0.476  12.151  18.897  0.00  0.00    +0.000 C 
ATOM     13  C   UNL     1      -0.235  10.636  18.936  0.00  0.00    +0.000 C 
ENDROOT
BRANCH   1  17
ATOM     14  C   UNL     1       2.681   6.490  18.828  0.00  0.00    +0.000 A 
ATOM     15  C   UNL     1       2.560   7.533  17.915  0.00  0.00    +0.000 A 
ATOM     16  C   UNL     1       1.960   8.733  18.302  0.00  0.00    +0.000 A 
ATOM     17  C   UNL     1       1.464   8.900  19.604  0.00  0.00    +0.000 A 
ATOM     18  C   UNL     1       1.603   7.843  20.516  0.00  0.00    +0.000 A 
ATOM     19  C   UNL     1       2.207   6.645  20.129  0.00  0.00    +0.000 A 
ENDBRANCH   1  17
BRANCH  10  20
ATOM     20  N   UNL     1       0.333  17.030  18.404  0.00  0.00    +0.000 N 
ATOM     21  C   UNL     1      -0.673  17.599  17.651  0.00  0.00    +0.000 A 
ATOM     22  C   UNL     1      -0.069  18.391  16.704  0.00  0.00    +0.000 A 
ATOM     23  C   UNL     1       1.306  18.240  16.943  0.00  0.00    +0.000 A 
ATOM     24  N   UNL     1       1.562  17.424  17.965  0.00  0.00    +0.000 NA
ENDBRANCH  10  20
TORSDOF 2
ENDMDL
