MODEL 1
REMARK VINA RESULT:      -7.1      0.000      0.000
REMARK  Name = 
REMARK  8 active torsions:
REMARK  status: ('A' for Active; 'I' for Inactive)
REMARK    1  A    between atoms: C_1  and  O_2
REMARK    2  A    between atoms: O_2  and  C_3
REMARK    3  A    between atoms: C_5  and  O_6
REMARK    4  A    between atoms: O_6  and  C_7
REMARK    5  A    between atoms: C_9  and  O_10
REMARK    6  A    between atoms: O_10  and  C_11
REMARK    7  A    between atoms: C_14  and  N_15
REMARK    8  A    between atoms: C_16  and  C_17
REMARK                            x       y       z     vdW  Elec       q    Type
REMARK                         _______ _______ _______ _____ _____    ______ ____
ROOT
ATOM      1  O   UNL     1       3.527   6.027  17.482  0.00  0.00    +0.000 OA
ENDROOT
BRANCH   1   2
ATOM      2  C   UNL     1       2.815   5.274  18.386  0.00  0.00    +0.000 A 
ATOM      3  C   UNL     1       2.894   5.678  19.713  0.00  0.00    +0.000 A 
ATOM      4  C   UNL     1       2.245   4.938  20.704  0.00  0.00    +0.000 A 
ATOM      5  C   UNL     1       1.473   3.810  20.387  0.00  0.00    +0.000 A 
ATOM      6  C   UNL     1       1.446   3.362  19.055  0.00  0.00    +0.000 A 
ATOM      7  C   UNL     1       0.727   2.121  18.600  0.00  0.00    +0.000 C 
ATOM      8  C   UNL     1       2.125   4.102  18.067  0.00  0.00    +0.000 A 
BRANCH   5   9
ATOM      9  N   UNL     1       0.953   3.048  21.443  0.00  0.00    +0.000 N 
ATOM     10  H   UNL     1       0.004   2.724  21.280  0.00  0.00    +0.000 HD
ATOM     11  H   UNL     1       1.555   2.296  21.752  0.00  0.00    +0.000 HD
ENDBRANCH   5   9
ENDBRANCH   1   2
BRANCH   1  16
ATOM     12  C   UNL     1       6.291   5.186  15.487  0.00  0.00    +0.000 A 
ATOM     13  C   UNL     1       7.271   4.858  16.390  0.00  0.00    +0.000 A 
ATOM     14  C   UNL     1       6.889   4.915  17.707  0.00  0.00    +0.000 A 
ATOM     15  N   UNL     1       5.659   5.261  18.109  0.00  0.00    +0.000 NA
ATOM     16  C   UNL     1       4.800   5.603  17.142  0.00  0.00    +0.000 A 
ATOM     17  N   UNL     1       5.048   5.559  15.830  0.00  0.00    +0.000 NA
BRANCH  12  19
ATOM     18  C   UNL     1       6.254   3.922  13.521  0.00  0.00    +0.000 C 
ATOM     19  O   UNL     1       6.636   5.145  14.150  0.00  0.00    +0.000 OA
ENDBRANCH  12  19
BRANCH  14  20
ATOM     20  O   UNL     1       7.848   4.617  18.655  0.00  0.00    +0.000 OA
ATOM     21  C   UNL     1       8.018   5.665  19.610  0.00  0.00    +0.000 C 
ENDBRANCH  14  20
ENDBRANCH   1  16
TORSDOF 5
ENDMDL
MODEL 2
REMARK VINA RESULT:      -7.1      1.799      3.496
REMARK  Name = 
REMARK  8 active torsions:
REMARK  status: ('A' for Active; 'I' for Inactive)
REMARK    1  A    between atoms: C_1  and  O_2
REMARK    2  A    between atoms: O_2  and  C_3
REMARK    3  A    between atoms: C_5  and  O_6
REMARK    4  A    between atoms: O_6  and  C_7
REMARK    5  A    between atoms: C_9  and  O_10
REMARK    6  A    between atoms: O_10  and  C_11
REMARK    7  A    between atoms: C_14  and  N_15
REMARK    8  A    between atoms: C_16  and  C_17
REMARK                            x       y       z     vdW  Elec       q    Type
REMARK                         _______ _______ _______ _____ _____    ______ ____
ROOT
ATOM      1  O   UNL     1       5.742   3.577  19.198  0.00  0.00    +0.000 OA
ENDROOT
BRANCH   1   2
ATOM      2  C   UNL     1       4.400   3.543  19.497  0.00  0.00    +0.000 A 
ATOM      3  C   UNL     1       3.753   2.336  19.261  0.00  0.00    +0.000 A 
ATOM      4  C   UNL     1       2.378   2.231  19.486  0.00  0.00    +0.000 A 
ATOM      5  C   UNL     1       1.634   3.309  19.990  0.00  0.00    +0.000 A 
ATOM      6  C   UNL     1       2.274   4.547  20.166  0.00  0.00    +0.000 A 
ATOM      7  C   UNL     1       1.572   5.799  20.618  0.00  0.00    +0.000 C 
ATOM      8  C   UNL     1       3.656   4.650  19.912  0.00  0.00    +0.000 A 
BRANCH   5   9
ATOM      9  N   UNL     1       0.242   3.167  20.075  0.00  0.00    +0.000 N 
ATOM     10  H   UNL     1      -0.270   3.885  19.570  0.00  0.00    +0.000 HD
ATOM     11  H   UNL     1      -0.099   2.241  19.850  0.00  0.00    +0.000 HD
ENDBRANCH   5   9
ENDBRANCH   1   2
BRANCH   1  16
ATOM     12  C   UNL     1       7.492   6.438  18.162  0.00  0.00    +0.000 A 
ATOM     13  C   UNL     1       7.191   6.553  16.828  0.00  0.00    +0.000 A 
ATOM     14  C   UNL     1       6.326   5.603  16.344  0.00  0.00    +0.000 A 
ATOM     15  N   UNL     1       5.799   4.628  17.096  0.00  0.00    +0.000 NA
ATOM     16  C   UNL     1       6.199   4.589  18.372  0.00  0.00    +0.000 A 
ATOM     17  N   UNL     1       7.012   5.472  18.959  0.00  0.00    +0.000 NA
BRANCH  12  19
ATOM     18  C   UNL     1       8.239   8.651  18.063  0.00  0.00    +0.000 C 
ATOM     19  O   UNL     1       8.364   7.373  18.686  0.00  0.00    +0.000 OA
ENDBRANCH  12  19
BRANCH  14  20
ATOM     20  O   UNL     1       6.011   5.662  15.001  0.00  0.00    +0.000 OA
ATOM     21  C   UNL     1       6.803   4.772  14.213  0.00  0.00    +0.000 C 
ENDBRANCH  14  20
ENDBRANCH   1  16
TORSDOF 5
ENDMDL
MODEL 3
REMARK VINA RESULT:      -7.1      1.814      2.441
REMARK  Name = 
REMARK  8 active torsions:
REMARK  status: ('A' for Active; 'I' for Inactive)
REMARK    1  A    between atoms: C_1  and  O_2
REMARK    2  A    between atoms: O_2  and  C_3
REMARK    3  A    between atoms: C_5  and  O_6
REMARK    4  A    between atoms: O_6  and  C_7
REMARK    5  A    between atoms: C_9  and  O_10
REMARK    6  A    between atoms: O_10  and  C_11
REMARK    7  A    between atoms: C_14  and  N_15
REMARK    8  A    between atoms: C_16  and  C_17
REMARK                            x       y       z     vdW  Elec       q    Type
REMARK                         _______ _______ _______ _____ _____    ______ ____
ROOT
ATOM      1  O   UNL     1       5.746   3.511  19.147  0.00  0.00    +0.000 OA
ENDROOT
BRANCH   1   2
ATOM      2  C   UNL     1       4.405   3.518  19.450  0.00  0.00    +0.000 A 
ATOM      3  C   UNL     1       3.722   2.330  19.223  0.00  0.00    +0.000 A 
ATOM      4  C   UNL     1       2.346   2.265  19.454  0.00  0.00    +0.000 A 
ATOM      5  C   UNL     1       1.636   3.367  19.956  0.00  0.00    +0.000 A 
ATOM      6  C   UNL     1       2.312   4.587  20.123  0.00  0.00    +0.000 A 
ATOM      7  C   UNL     1       1.649   5.861  20.571  0.00  0.00    +0.000 C 
ATOM      8  C   UNL     1       3.695   4.648  19.863  0.00  0.00    +0.000 A 
BRANCH   5   9
ATOM      9  N   UNL     1       0.240   3.266  20.046  0.00  0.00    +0.000 N 
ATOM     10  H   UNL     1      -0.203   4.100  20.421  0.00  0.00    +0.000 HD
ATOM     11  H   UNL     1      -0.213   2.956  19.196  0.00  0.00    +0.000 HD
ENDBRANCH   5   9
ENDBRANCH   1   2
BRANCH   1  16
ATOM     12  C   UNL     1       6.279   5.594  16.371  0.00  0.00    +0.000 A 
ATOM     13  C   UNL     1       7.111   6.578  16.842  0.00  0.00    +0.000 A 
ATOM     14  C   UNL     1       7.489   6.439  18.154  0.00  0.00    +0.000 A 
ATOM     15  N   UNL     1       7.091   5.428  18.938  0.00  0.00    +0.000 NA
ATOM     16  C   UNL     1       6.246   4.553  18.383  0.00  0.00    +0.000 A 
ATOM     17  N   UNL     1       5.831   4.569  17.114  0.00  0.00    +0.000 NA
BRANCH  12  19
ATOM     18  C   UNL     1       5.683   4.428  14.434  0.00  0.00    +0.000 C 
ATOM     19  O   UNL     1       5.871   5.700  15.055  0.00  0.00    +0.000 OA
ENDBRANCH  12  19
BRANCH  14  20
ATOM     20  O   UNL     1       8.307   7.418  18.683  0.00  0.00    +0.000 OA
ATOM     21  C   UNL     1       8.197   8.660  17.985  0.00  0.00    +0.000 C 
ENDBRANCH  14  20
ENDBRANCH   1  16
TORSDOF 5
ENDMDL
MODEL 4
REMARK VINA RESULT:      -7.1      0.354      2.874
REMARK  Name = 
REMARK  8 active torsions:
REMARK  status: ('A' for Active; 'I' for Inactive)
REMARK    1  A    between atoms: C_1  and  O_2
REMARK    2  A    between atoms: O_2  and  C_3
REMARK    3  A    between atoms: C_5  and  O_6
REMARK    4  A    between atoms: O_6  and  C_7
REMARK    5  A    between atoms: C_9  and  O_10
REMARK    6  A    between atoms: O_10  and  C_11
REMARK    7  A    between atoms: C_14  and  N_15
REMARK    8  A    between atoms: C_16  and  C_17
REMARK                            x       y       z     vdW  Elec       q    Type
REMARK                         _______ _______ _______ _____ _____    ______ ____
ROOT
ATOM      1  O   UNL     1       3.654   6.045  17.225  0.00  0.00    +0.000 OA
ENDROOT
BRANCH   1   2
ATOM      2  C   UNL     1       2.916   5.300  18.115  0.00  0.00    +0.000 A 
ATOM      3  C   UNL     1       2.692   5.879  19.358  0.00  0.00    +0.000 A 
ATOM      4  C   UNL     1       1.997   5.169  20.340  0.00  0.00    +0.000 A 
ATOM      5  C   UNL     1       1.476   3.890  20.087  0.00  0.00    +0.000 A 
ATOM      6  C   UNL     1       1.758   3.277  18.854  0.00  0.00    +0.000 A 
ATOM      7  C   UNL     1       1.331   1.880  18.493  0.00  0.00    +0.000 C 
ATOM      8  C   UNL     1       2.481   3.993  17.880  0.00  0.00    +0.000 A 
BRANCH   5   9
ATOM      9  N   UNL     1       0.898   3.190  21.156  0.00  0.00    +0.000 N 
ATOM     10  H   UNL     1      -0.114   3.263  21.188  0.00  0.00    +0.000 HD
ATOM     11  H   UNL     1       1.205   2.229  21.241  0.00  0.00    +0.000 HD
ENDBRANCH   5   9
ENDBRANCH   1   2
BRANCH   1  16
ATOM     12  C   UNL     1       6.945   4.886  17.613  0.00  0.00    +0.000 A 
ATOM     13  C   UNL     1       7.370   4.641  16.331  0.00  0.00    +0.000 A 
ATOM     14  C   UNL     1       6.457   4.940  15.351  0.00  0.00    +0.000 A 
ATOM     15  N   UNL     1       5.237   5.435  15.598  0.00  0.00    +0.000 NA
ATOM     16  C   UNL     1       4.917   5.590  16.888  0.00  0.00    +0.000 A 
ATOM     17  N   UNL     1       5.729   5.361  17.923  0.00  0.00    +0.000 NA
BRANCH  12  19
ATOM     18  C   UNL     1       7.990   5.674  19.550  0.00  0.00    +0.000 C 
ATOM     19  O   UNL     1       7.833   4.593  18.631  0.00  0.00    +0.000 OA
ENDBRANCH  12  19
BRANCH  14  20
ATOM     20  O   UNL     1       6.829   4.689  14.045  0.00  0.00    +0.000 OA
ATOM     21  C   UNL     1       5.963   3.755  13.399  0.00  0.00    +0.000 C 
ENDBRANCH  14  20
ENDBRANCH   1  16
TORSDOF 5
ENDMDL
MODEL 5
REMARK VINA RESULT:      -7.0      1.185      1.185
REMARK  Name = 
REMARK  8 active torsions:
REMARK  status: ('A' for Active; 'I' for Inactive)
REMARK    1  A    between atoms: C_1  and  O_2
REMARK    2  A    between atoms: O_2  and  C_3
REMARK    3  A    between atoms: C_5  and  O_6
REMARK    4  A    between atoms: O_6  and  C_7
REMARK    5  A    between atoms: C_9  and  O_10
REMARK    6  A    between atoms: O_10  and  C_11
REMARK    7  A    between atoms: C_14  and  N_15
REMARK    8  A    between atoms: C_16  and  C_17
REMARK                            x       y       z     vdW  Elec       q    Type
REMARK                         _______ _______ _______ _____ _____    ______ ____
ROOT
ATOM      1  O   UNL     1       3.292   6.126  17.563  0.00  0.00    +0.000 OA
ENDROOT
BRANCH   1   2
ATOM      2  C   UNL     1       2.645   5.313  18.464  0.00  0.00    +0.000 A 
ATOM      3  C   UNL     1       2.798   5.644  19.805  0.00  0.00    +0.000 A 
ATOM      4  C   UNL     1       2.219   4.840  20.789  0.00  0.00    +0.000 A 
ATOM      5  C   UNL     1       1.442   3.720  20.455  0.00  0.00    +0.000 A 
ATOM      6  C   UNL     1       1.341   3.347  19.104  0.00  0.00    +0.000 A 
ATOM      7  C   UNL     1       0.611   2.122  18.623  0.00  0.00    +0.000 C 
ATOM      8  C   UNL     1       1.950   4.150  18.121  0.00  0.00    +0.000 A 
BRANCH   5   9
ATOM      9  N   UNL     1       0.996   2.892  21.496  0.00  0.00    +0.000 N 
ATOM     10  H   UNL     1       1.498   2.012  21.558  0.00  0.00    +0.000 HD
ATOM     11  H   UNL     1       0.936   3.350  22.397  0.00  0.00    +0.000 HD
ENDBRANCH   5   9
ENDBRANCH   1   2
BRANCH   1  16
ATOM     12  C   UNL     1       6.108   4.629  16.096  0.00  0.00    +0.000 A 
ATOM     13  C   UNL     1       7.171   5.315  16.628  0.00  0.00    +0.000 A 
ATOM     14  C   UNL     1       6.837   6.285  17.540  0.00  0.00    +0.000 A 
ATOM     15  N   UNL     1       5.577   6.561  17.902  0.00  0.00    +0.000 NA
ATOM     16  C   UNL     1       4.621   5.859  17.284  0.00  0.00    +0.000 A 
ATOM     17  N   UNL     1       4.825   4.874  16.404  0.00  0.00    +0.000 NA
BRANCH  12  19
ATOM     18  C   UNL     1       5.989   3.995  13.849  0.00  0.00    +0.000 C 
ATOM     19  O   UNL     1       6.402   3.646  15.170  0.00  0.00    +0.000 OA
ENDBRANCH  12  19
BRANCH  14  20
ATOM     20  O   UNL     1       7.870   7.021  18.086  0.00  0.00    +0.000 OA
ATOM     21  C   UNL     1       7.857   8.384  17.661  0.00  0.00    +0.000 C 
ENDBRANCH  14  20
ENDBRANCH   1  16
TORSDOF 5
ENDMDL
MODEL 6
REMARK VINA RESULT:      -7.0      1.169      2.679
REMARK  Name = 
REMARK  8 active torsions:
REMARK  status: ('A' for Active; 'I' for Inactive)
REMARK    1  A    between atoms: C_1  and  O_2
REMARK    2  A    between atoms: O_2  and  C_3
REMARK    3  A    between atoms: C_5  and  O_6
REMARK    4  A    between atoms: O_6  and  C_7
REMARK    5  A    between atoms: C_9  and  O_10
REMARK    6  A    between atoms: O_10  and  C_11
REMARK    7  A    between atoms: C_14  and  N_15
REMARK    8  A    between atoms: C_16  and  C_17
REMARK                            x       y       z     vdW  Elec       q    Type
REMARK                         _______ _______ _______ _____ _____    ______ ____
ROOT
ATOM      1  O   UNL     1       3.293   6.211  17.539  0.00  0.00    +0.000 OA
ENDROOT
BRANCH   1   2
ATOM      2  C   UNL     1       2.663   5.399  18.453  0.00  0.00    +0.000 A 
ATOM      3  C   UNL     1       2.847   5.726  19.790  0.00  0.00    +0.000 A 
ATOM      4  C   UNL     1       2.286   4.922  20.785  0.00  0.00    +0.000 A 
ATOM      5  C   UNL     1       1.497   3.806  20.465  0.00  0.00    +0.000 A 
ATOM      6  C   UNL     1       1.365   3.437  19.116  0.00  0.00    +0.000 A 
ATOM      7  C   UNL     1       0.618   2.216  18.648  0.00  0.00    +0.000 C 
ATOM      8  C   UNL     1       1.955   4.240  18.122  0.00  0.00    +0.000 A 
BRANCH   5   9
ATOM      9  N   UNL     1       1.070   2.978  21.514  0.00  0.00    +0.000 N 
ATOM     10  H   UNL     1       1.817   2.709  22.148  0.00  0.00    +0.000 HD
ATOM     11  H   UNL     1       0.262   3.323  22.016  0.00  0.00    +0.000 HD
ENDBRANCH   5   9
ENDBRANCH   1   2
BRANCH   1  16
ATOM     12  C   UNL     1       6.802   6.328  17.532  0.00  0.00    +0.000 A 
ATOM     13  C   UNL     1       7.170   5.352  16.640  0.00  0.00    +0.000 A 
ATOM     14  C   UNL     1       6.127   4.697  16.034  0.00  0.00    +0.000 A 
ATOM     15  N   UNL     1       4.838   4.971  16.274  0.00  0.00    +0.000 NA
ATOM     16  C   UNL     1       4.600   5.911  17.195  0.00  0.00    +0.000 A 
ATOM     17  N   UNL     1       5.529   6.633  17.829  0.00  0.00    +0.000 NA
BRANCH  12  19
ATOM     18  C   UNL     1       7.941   8.359  17.725  0.00  0.00    +0.000 C 
ATOM     19  O   UNL     1       7.823   7.008  18.168  0.00  0.00    +0.000 OA
ENDBRANCH  12  19
BRANCH  14  20
ATOM     20  O   UNL     1       6.446   3.688  15.146  0.00  0.00    +0.000 OA
ATOM     21  C   UNL     1       5.977   3.954  13.823  0.00  0.00    +0.000 C 
ENDBRANCH  14  20
ENDBRANCH   1  16
TORSDOF 5
ENDMDL
MODEL 7
REMARK VINA RESULT:      -7.0      1.095      1.809
REMARK  Name = 
REMARK  8 active torsions:
REMARK  status: ('A' for Active; 'I' for Inactive)
REMARK    1  A    between atoms: C_1  and  O_2
REMARK    2  A    between atoms: O_2  and  C_3
REMARK    3  A    between atoms: C_5  and  O_6
REMARK    4  A    between atoms: O_6  and  C_7
REMARK    5  A    between atoms: C_9  and  O_10
REMARK    6  A    between atoms: O_10  and  C_11
REMARK    7  A    between atoms: C_14  and  N_15
REMARK    8  A    between atoms: C_16  and  C_17
REMARK                            x       y       z     vdW  Elec       q    Type
REMARK                         _______ _______ _______ _____ _____    ______ ____
ROOT
ATOM      1  O   UNL     1       3.498   3.876  16.458  0.00  0.00    +0.000 OA
ENDROOT
BRANCH   1   2
ATOM      2  C   UNL     1       2.927   3.688  17.695  0.00  0.00    +0.000 A 
ATOM      3  C   UNL     1       2.585   2.381  18.019  0.00  0.00    +0.000 A 
ATOM      4  C   UNL     1       1.951   2.109  19.233  0.00  0.00    +0.000 A 
ATOM      5  C   UNL     1       1.687   3.125  20.164  0.00  0.00    +0.000 A 
ATOM      6  C   UNL     1       1.972   4.455  19.811  0.00  0.00    +0.000 A 
ATOM      7  C   UNL     1       1.660   5.641  20.683  0.00  0.00    +0.000 C 
ATOM      8  C   UNL     1       2.589   4.721  18.573  0.00  0.00    +0.000 A 
BRANCH   5   9
ATOM      9  N   UNL     1       0.941   2.797  21.305  0.00  0.00    +0.000 N 
ATOM     10  H   UNL     1       0.370   3.564  21.650  0.00  0.00    +0.000 HD
ATOM     11  H   UNL     1       0.404   1.943  21.222  0.00  0.00    +0.000 HD
ENDBRANCH   5   9
ENDBRANCH   1   2
BRANCH   1  16
ATOM     12  C   UNL     1       6.616   4.778  15.120  0.00  0.00    +0.000 A 
ATOM     13  C   UNL     1       7.445   4.845  16.212  0.00  0.00    +0.000 A 
ATOM     14  C   UNL     1       6.856   4.522  17.408  0.00  0.00    +0.000 A 
ATOM     15  N   UNL     1       5.570   4.165  17.530  0.00  0.00    +0.000 NA
ATOM     16  C   UNL     1       4.848   4.179  16.404  0.00  0.00    +0.000 A 
ATOM     17  N   UNL     1       5.317   4.447  15.183  0.00  0.00    +0.000 NA
BRANCH  12  19
ATOM     18  C   UNL     1       6.825   4.164  12.874  0.00  0.00    +0.000 C 
ATOM     19  O   UNL     1       7.170   5.100  13.896  0.00  0.00    +0.000 OA
ENDBRANCH  12  19
BRANCH  14  20
ATOM     20  O   UNL     1       7.643   4.598  18.540  0.00  0.00    +0.000 OA
ATOM     21  C   UNL     1       7.744   5.928  19.050  0.00  0.00    +0.000 C 
ENDBRANCH  14  20
ENDBRANCH   1  16
TORSDOF 5
ENDMDL
MODEL 8
REMARK VINA RESULT:      -6.9      1.108      3.336
REMARK  Name = 
REMARK  8 active torsions:
REMARK  status: ('A' for Active; 'I' for Inactive)
REMARK    1  A    between atoms: C_1  and  O_2
REMARK    2  A    between atoms: O_2  and  C_3
REMARK    3  A    between atoms: C_5  and  O_6
REMARK    4  A    between atoms: O_6  and  C_7
REMARK    5  A    between atoms: C_9  and  O_10
REMARK    6  A    between atoms: O_10  and  C_11
REMARK    7  A    between atoms: C_14  and  N_15
REMARK    8  A    between atoms: C_16  and  C_17
REMARK                            x       y       z     vdW  Elec       q    Type
REMARK                         _______ _______ _______ _____ _____    ______ ____
ROOT
ATOM      1  O   UNL     1       3.307   3.832  16.535  0.00  0.00    +0.000 OA
ENDROOT
BRANCH   1   2
ATOM      2  C   UNL     1       2.790   3.655  17.796  0.00  0.00    +0.000 A 
ATOM      3  C   UNL     1       2.508   2.344  18.163  0.00  0.00    +0.000 A 
ATOM      4  C   UNL     1       1.930   2.080  19.406  0.00  0.00    +0.000 A 
ATOM      5  C   UNL     1       1.664   3.109  20.323  0.00  0.00    +0.000 A 
ATOM      6  C   UNL     1       1.887   4.439  19.929  0.00  0.00    +0.000 A 
ATOM      7  C   UNL     1       1.564   5.634  20.784  0.00  0.00    +0.000 C 
ATOM      8  C   UNL     1       2.447   4.696  18.662  0.00  0.00    +0.000 A 
BRANCH   5   9
ATOM      9  N   UNL     1       0.973   2.782  21.499  0.00  0.00    +0.000 N 
ATOM     10  H   UNL     1       1.498   2.980  22.346  0.00  0.00    +0.000 HD
ATOM     11  H   UNL     1       0.033   3.155  21.548  0.00  0.00    +0.000 HD
ENDBRANCH   5   9
ENDBRANCH   1   2
BRANCH   1  16
ATOM     12  C   UNL     1       6.620   4.503  17.484  0.00  0.00    +0.000 A 
ATOM     13  C   UNL     1       7.285   4.667  16.295  0.00  0.00    +0.000 A 
ATOM     14  C   UNL     1       6.501   4.564  15.173  0.00  0.00    +0.000 A 
ATOM     15  N   UNL     1       5.184   4.325  15.207  0.00  0.00    +0.000 NA
ATOM     16  C   UNL     1       4.652   4.139  16.421  0.00  0.00    +0.000 A 
ATOM     17  N   UNL     1       5.307   4.242  17.580  0.00  0.00    +0.000 NA
BRANCH  12  19
ATOM     18  C   UNL     1       7.731   5.939  18.956  0.00  0.00    +0.000 C 
ATOM     19  O   UNL     1       7.375   4.594  18.638  0.00  0.00    +0.000 OA
ENDBRANCH  12  19
BRANCH  14  20
ATOM     20  O   UNL     1       7.129   4.697  13.950  0.00  0.00    +0.000 OA
ATOM     21  C   UNL     1       6.540   3.878  12.940  0.00  0.00    +0.000 C 
ENDBRANCH  14  20
ENDBRANCH   1  16
TORSDOF 5
ENDMDL
MODEL 9
REMARK VINA RESULT:      -6.9      1.727      3.336
REMARK  Name = 
REMARK  8 active torsions:
REMARK  status: ('A' for Active; 'I' for Inactive)
REMARK    1  A    between atoms: C_1  and  O_2
REMARK    2  A    between atoms: O_2  and  C_3
REMARK    3  A    between atoms: C_5  and  O_6
REMARK    4  A    between atoms: O_6  and  C_7
REMARK    5  A    between atoms: C_9  and  O_10
REMARK    6  A    between atoms: O_10  and  C_11
REMARK    7  A    between atoms: C_14  and  N_15
REMARK    8  A    between atoms: C_16  and  C_17
REMARK                            x       y       z     vdW  Elec       q    Type
REMARK                         _______ _______ _______ _____ _____    ______ ____
ROOT
ATOM      1  O   UNL     1       5.743   3.830  19.009  0.00  0.00    +0.000 OA
ENDROOT
BRANCH   1   2
ATOM      2  C   UNL     1       4.431   3.778  19.418  0.00  0.00    +0.000 A 
ATOM      3  C   UNL     1       3.827   2.527  19.374  0.00  0.00    +0.000 A 
ATOM      4  C   UNL     1       2.481   2.394  19.721  0.00  0.00    +0.000 A 
ATOM      5  C   UNL     1       1.726   3.493  20.160  0.00  0.00    +0.000 A 
ATOM      6  C   UNL     1       2.316   4.768  20.142  0.00  0.00    +0.000 A 
ATOM      7  C   UNL     1       1.590   6.035  20.506  0.00  0.00    +0.000 C 
ATOM      8  C   UNL     1       3.668   4.895  19.766  0.00  0.00    +0.000 A 
BRANCH   5   9
ATOM      9  N   UNL     1       0.352   3.307  20.373  0.00  0.00    +0.000 N 
ATOM     10  H   UNL     1      -0.231   3.940  19.834  0.00  0.00    +0.000 HD
ATOM     11  H   UNL     1       0.042   2.348  20.283  0.00  0.00    +0.000 HD
ENDBRANCH   5   9
ENDBRANCH   1   2
BRANCH   1  16
ATOM     12  C   UNL     1       7.046   6.065  16.636  0.00  0.00    +0.000 A 
ATOM     13  C   UNL     1       6.659   5.539  15.429  0.00  0.00    +0.000 A 
ATOM     14  C   UNL     1       5.899   4.399  15.510  0.00  0.00    +0.000 A 
ATOM     15  N   UNL     1       5.545   3.823  16.667  0.00  0.00    +0.000 NA
ATOM     16  C   UNL     1       6.018   4.399  17.778  0.00  0.00    +0.000 A 
ATOM     17  N   UNL     1       6.740   5.522  17.824  0.00  0.00    +0.000 NA
BRANCH  12  19
ATOM     18  C   UNL     1       7.838   7.900  17.847  0.00  0.00    +0.000 C 
ATOM     19  O   UNL     1       7.817   7.211  16.598  0.00  0.00    +0.000 OA
ENDBRANCH  12  19
BRANCH  14  20
ATOM     20  O   UNL     1       5.505   3.817  14.321  0.00  0.00    +0.000 OA
ATOM     21  C   UNL     1       6.472   3.982  13.283  0.00  0.00    +0.000 C 
ENDBRANCH  14  20
ENDBRANCH   1  16
TORSDOF 5
ENDMDL
