MODEL 1
REMARK VINA RESULT:      -7.0      0.000      0.000
REMARK  Name = 
REMARK  3 active torsions:
REMARK  status: ('A' for Active; 'I' for Inactive)
REMARK    1  A    between atoms: C_1  and  C_2
REMARK    2  A    between atoms: C_8  and  N_9
REMARK    3  A    between atoms: C_10  and  C_12
REMARK                            x       y       z     vdW  Elec       q    Type
REMARK                         _______ _______ _______ _____ _____    ______ ____
ROOT
ATOM      1  N   UNL     1       2.545   6.771  19.996  0.00  0.00    +0.000 N 
ATOM      2  C   UNL     1       2.142   7.724  19.044  0.00  0.00    +0.000 C 
ATOM      3  O   UNL     1       2.055   7.517  17.837  0.00  0.00    +0.000 OA
ATOM      4  H   UNL     1       2.349   6.979  20.968  0.00  0.00    +0.000 HD
ENDROOT
BRANCH   2   5
ATOM      5  C   UNL     1       1.812   9.114  19.632  0.00  0.00    +0.000 C 
ATOM      6  C   UNL     1       1.147   9.035  21.014  0.00  0.00    +0.000 C 
ATOM      7  C   UNL     1      -0.368   9.190  21.002  0.00  0.00    +0.000 C 
ATOM      8  N   UNL     1      -0.774  10.343  20.217  0.00  0.00    +0.000 N 
ATOM      9  C   UNL     1      -1.071  11.534  20.857  0.00  0.00    +0.000 A 
ATOM     10  C   UNL     1      -1.952  12.479  20.304  0.00  0.00    +0.000 A 
ATOM     11  N   UNL     1      -2.335  13.638  20.906  0.00  0.00    +0.000 NA
ATOM     12  C   UNL     1      -1.801  13.844  22.122  0.00  0.00    +0.000 A 
ATOM     13  C   UNL     1      -0.930  12.935  22.696  0.00  0.00    +0.000 A 
ATOM     14  N   UNL     1      -0.564  11.778  22.085  0.00  0.00    +0.000 NA
ATOM     15  C   UNL     1      -0.414  10.290  18.808  0.00  0.00    +0.000 C 
ATOM     16  C   UNL     1       1.093  10.057  18.627  0.00  0.00    +0.000 C 
ENDBRANCH   2   5
BRANCH   1  24
ATOM     17  C   UNL     1       1.069   4.210  20.531  0.00  0.00    +0.000 C 
ATOM     18  C   UNL     1       2.468   4.286  19.983  0.00  0.00    +0.000 A 
ATOM     19  C   UNL     1       3.116   3.053  19.725  0.00  0.00    +0.000 A 
ATOM     20  C   UNL     1       4.415   3.012  19.235  0.00  0.00    +0.000 A 
ATOM     21  C   UNL     1       5.080   4.197  19.014  0.00  0.00    +0.000 A 
ATOM     22  F   UNL     1       6.346   4.165  18.567  0.00  0.00    +0.000 F 
ATOM     23  C   UNL     1       4.473   5.430  19.255  0.00  0.00    +0.000 A 
ATOM     24  C   UNL     1       3.153   5.506  19.728  0.00  0.00    +0.000 A 
ENDBRANCH   1  24
TORSDOF 2
ENDMDL
MODEL 2
REMARK VINA RESULT:      -6.9      2.243      2.703
REMARK  Name = 
REMARK  3 active torsions:
REMARK  status: ('A' for Active; 'I' for Inactive)
REMARK    1  A    between atoms: C_1  and  C_2
REMARK    2  A    between atoms: C_8  and  N_9
REMARK    3  A    between atoms: C_10  and  C_12
REMARK                            x       y       z     vdW  Elec       q    Type
REMARK                         _______ _______ _______ _____ _____    ______ ____
ROOT
ATOM      1  N   UNL     1       2.710   6.192  18.960  0.00  0.00    +0.000 N 
ATOM      2  C   UNL     1       2.000   6.809  20.006  0.00  0.00    +0.000 C 
ATOM      3  O   UNL     1       1.379   6.211  20.880  0.00  0.00    +0.000 OA
ATOM      4  H   UNL     1       3.371   6.766  18.450  0.00  0.00    +0.000 HD
ENDROOT
BRANCH   2   5
ATOM      5  C   UNL     1       2.038   8.353  19.980  0.00  0.00    +0.000 C 
ATOM      6  C   UNL     1       1.171   8.990  21.075  0.00  0.00    +0.000 C 
ATOM      7  C   UNL     1      -0.195   9.474  20.606  0.00  0.00    +0.000 C 
ATOM      8  N   UNL     1      -0.084  10.277  19.400  0.00  0.00    +0.000 N 
ATOM      9  C   UNL     1      -0.087  11.657  19.497  0.00  0.00    +0.000 A 
ATOM     10  C   UNL     1      -0.523  12.478  18.443  0.00  0.00    +0.000 A 
ATOM     11  N   UNL     1      -0.610  13.836  18.492  0.00  0.00    +0.000 NA
ATOM     12  C   UNL     1      -0.239  14.381  19.664  0.00  0.00    +0.000 A 
ATOM     13  C   UNL     1       0.196  13.603  20.722  0.00  0.00    +0.000 A 
ATOM     14  N   UNL     1       0.269  12.247  20.659  0.00  0.00    +0.000 NA
ATOM     15  C   UNL     1       0.461   9.582  18.243  0.00  0.00    +0.000 C 
ATOM     16  C   UNL     1       1.825   8.953  18.562  0.00  0.00    +0.000 C 
ENDBRANCH   2   5
BRANCH   1  24
ATOM     17  C   UNL     1       5.026   4.850  17.598  0.00  0.00    +0.000 C 
ATOM     18  C   UNL     1       3.725   4.171  17.928  0.00  0.00    +0.000 A 
ATOM     19  C   UNL     1       3.603   2.812  17.546  0.00  0.00    +0.000 A 
ATOM     20  C   UNL     1       2.437   2.098  17.788  0.00  0.00    +0.000 A 
ATOM     21  C   UNL     1       1.381   2.737  18.397  0.00  0.00    +0.000 A 
ATOM     22  F   UNL     1       0.240   2.063  18.609  0.00  0.00    +0.000 F 
ATOM     23  C   UNL     1       1.465   4.074  18.789  0.00  0.00    +0.000 A 
ATOM     24  C   UNL     1       2.638   4.817  18.579  0.00  0.00    +0.000 A 
ENDBRANCH   1  24
TORSDOF 2
ENDMDL
MODEL 3
REMARK VINA RESULT:      -6.8      1.974      2.431
REMARK  Name = 
REMARK  3 active torsions:
REMARK  status: ('A' for Active; 'I' for Inactive)
REMARK    1  A    between atoms: C_1  and  C_2
REMARK    2  A    between atoms: C_8  and  N_9
REMARK    3  A    between atoms: C_10  and  C_12
REMARK                            x       y       z     vdW  Elec       q    Type
REMARK                         _______ _______ _______ _____ _____    ______ ____
ROOT
ATOM      1  N   UNL     1       2.542   6.609  19.062  0.00  0.00    +0.000 N 
ATOM      2  C   UNL     1       1.892   7.041  20.232  0.00  0.00    +0.000 C 
ATOM      3  O   UNL     1       1.412   6.298  21.083  0.00  0.00    +0.000 OA
ATOM      4  H   UNL     1       3.100   7.293  18.565  0.00  0.00    +0.000 HD
ENDROOT
BRANCH   2   5
ATOM      5  C   UNL     1       1.803   8.576  20.383  0.00  0.00    +0.000 C 
ATOM      6  C   UNL     1       1.176   9.009  21.716  0.00  0.00    +0.000 C 
ATOM      7  C   UNL     1      -0.296   9.392  21.634  0.00  0.00    +0.000 C 
ATOM      8  N   UNL     1      -0.540  10.316  20.540  0.00  0.00    +0.000 N 
ATOM      9  C   UNL     1      -0.627  11.673  20.799  0.00  0.00    +0.000 A 
ATOM     10  C   UNL     1      -1.365  12.544  19.979  0.00  0.00    +0.000 A 
ATOM     11  N   UNL     1      -1.543  13.873  20.210  0.00  0.00    +0.000 NA
ATOM     12  C   UNL     1      -0.947  14.337  21.322  0.00  0.00    +0.000 A 
ATOM     13  C   UNL     1      -0.212  13.508  22.151  0.00  0.00    +0.000 A 
ATOM     14  N   UNL     1      -0.051  12.180  21.911  0.00  0.00    +0.000 NA
ATOM     15  C   UNL     1      -0.235   9.799  19.214  0.00  0.00    +0.000 C 
ATOM     16  C   UNL     1       1.210   9.287  19.134  0.00  0.00    +0.000 C 
ENDBRANCH   2   5
BRANCH   1  24
ATOM     17  C   UNL     1       4.692   5.714  17.166  0.00  0.00    +0.000 C 
ATOM     18  C   UNL     1       3.552   4.848  17.628  0.00  0.00    +0.000 A 
ATOM     19  C   UNL     1       3.503   3.531  17.107  0.00  0.00    +0.000 A 
ATOM     20  C   UNL     1       2.482   2.657  17.454  0.00  0.00    +0.000 A 
ATOM     21  C   UNL     1       1.497   3.093  18.311  0.00  0.00    +0.000 A 
ATOM     22  F   UNL     1       0.491   2.263  18.630  0.00  0.00    +0.000 F 
ATOM     23  C   UNL     1       1.513   4.382  18.845  0.00  0.00    +0.000 A 
ATOM     24  C   UNL     1       2.544   5.283  18.531  0.00  0.00    +0.000 A 
ENDBRANCH   1  24
TORSDOF 2
ENDMDL
MODEL 4
REMARK VINA RESULT:      -6.8      2.286      3.083
REMARK  Name = 
REMARK  3 active torsions:
REMARK  status: ('A' for Active; 'I' for Inactive)
REMARK    1  A    between atoms: C_1  and  C_2
REMARK    2  A    between atoms: C_8  and  N_9
REMARK    3  A    between atoms: C_10  and  C_12
REMARK                            x       y       z     vdW  Elec       q    Type
REMARK                         _______ _______ _______ _____ _____    ______ ____
ROOT
ATOM      1  N   UNL     1       1.746   7.943  21.009  0.00  0.00    +0.000 N 
ATOM      2  C   UNL     1       0.550   8.499  21.496  0.00  0.00    +0.000 C 
ATOM      3  O   UNL     1      -0.539   7.934  21.493  0.00  0.00    +0.000 OA
ATOM      4  H   UNL     1       2.610   8.396  21.279  0.00  0.00    +0.000 HD
ENDROOT
BRANCH   2   5
ATOM      5  C   UNL     1       0.693   9.936  22.048  0.00  0.00    +0.000 C 
ATOM      6  C   UNL     1      -0.441  10.321  23.008  0.00  0.00    +0.000 C 
ATOM      7  C   UNL     1      -1.546  11.164  22.384  0.00  0.00    +0.000 C 
ATOM      8  N   UNL     1      -0.997  12.284  21.638  0.00  0.00    +0.000 N 
ATOM      9  C   UNL     1      -0.944  13.535  22.228  0.00  0.00    +0.000 A 
ATOM     10  C   UNL     1      -0.960  14.718  21.469  0.00  0.00    +0.000 A 
ATOM     11  N   UNL     1      -0.971  15.978  21.985  0.00  0.00    +0.000 NA
ATOM     12  C   UNL     1      -0.968  16.037  23.328  0.00  0.00    +0.000 A 
ATOM     13  C   UNL     1      -0.952  14.892  24.105  0.00  0.00    +0.000 A 
ATOM     14  N   UNL     1      -0.949  13.641  23.574  0.00  0.00    +0.000 NA
ATOM     15  C   UNL     1      -0.151  11.921  20.512  0.00  0.00    +0.000 C 
ATOM     16  C   UNL     1       0.992  10.993  20.949  0.00  0.00    +0.000 C 
ENDBRANCH   2   5
BRANCH   1  24
ATOM     17  C   UNL     1       2.554   8.107  18.121  0.00  0.00    +0.000 C 
ATOM     18  C   UNL     1       2.248   6.825  18.846  0.00  0.00    +0.000 A 
ATOM     19  C   UNL     1       2.339   5.631  18.089  0.00  0.00    +0.000 A 
ATOM     20  C   UNL     1       2.058   4.395  18.658  0.00  0.00    +0.000 A 
ATOM     21  C   UNL     1       1.672   4.344  19.978  0.00  0.00    +0.000 A 
ATOM     22  F   UNL     1       1.372   3.156  20.528  0.00  0.00    +0.000 F 
ATOM     23  C   UNL     1       1.573   5.499  20.755  0.00  0.00    +0.000 A 
ATOM     24  C   UNL     1       1.872   6.761  20.216  0.00  0.00    +0.000 A 
ENDBRANCH   1  24
TORSDOF 2
ENDMDL
MODEL 5
REMARK VINA RESULT:      -6.7      1.903      2.121
REMARK  Name = 
REMARK  3 active torsions:
REMARK  status: ('A' for Active; 'I' for Inactive)
REMARK    1  A    between atoms: C_1  and  C_2
REMARK    2  A    between atoms: C_8  and  N_9
REMARK    3  A    between atoms: C_10  and  C_12
REMARK                            x       y       z     vdW  Elec       q    Type
REMARK                         _______ _______ _______ _____ _____    ______ ____
ROOT
ATOM      1  N   UNL     1       3.141   5.793  19.477  0.00  0.00    +0.000 N 
ATOM      2  C   UNL     1       2.099   6.429  20.173  0.00  0.00    +0.000 C 
ATOM      3  O   UNL     1       1.197   5.850  20.769  0.00  0.00    +0.000 OA
ATOM      4  H   UNL     1       3.947   6.357  19.234  0.00  0.00    +0.000 HD
ENDROOT
BRANCH   2   5
ATOM      5  C   UNL     1       2.153   7.973  20.130  0.00  0.00    +0.000 C 
ATOM      6  C   UNL     1       1.306   8.630  21.230  0.00  0.00    +0.000 C 
ATOM      7  C   UNL     1      -0.061   9.123  20.772  0.00  0.00    +0.000 C 
ATOM      8  N   UNL     1       0.043   9.912  19.557  0.00  0.00    +0.000 N 
ATOM      9  C   UNL     1       0.055  11.294  19.639  0.00  0.00    +0.000 A 
ATOM     10  C   UNL     1      -0.386  12.108  18.581  0.00  0.00    +0.000 A 
ATOM     11  N   UNL     1      -0.459  13.466  18.618  0.00  0.00    +0.000 NA
ATOM     12  C   UNL     1      -0.068  14.020  19.778  0.00  0.00    +0.000 A 
ATOM     13  C   UNL     1       0.372  13.249  20.839  0.00  0.00    +0.000 A 
ATOM     14  N   UNL     1       0.431  11.892  20.790  0.00  0.00    +0.000 NA
ATOM     15  C   UNL     1       0.566   9.200  18.401  0.00  0.00    +0.000 C 
ATOM     16  C   UNL     1       1.927   8.560  18.709  0.00  0.00    +0.000 C 
ENDBRANCH   2   5
BRANCH   1  24
ATOM     17  C   UNL     1       1.333   4.651  17.367  0.00  0.00    +0.000 C 
ATOM     18  C   UNL     1       2.353   3.855  18.133  0.00  0.00    +0.000 A 
ATOM     19  C   UNL     1       2.436   2.473  17.831  0.00  0.00    +0.000 A 
ATOM     20  C   UNL     1       3.332   1.644  18.494  0.00  0.00    +0.000 A 
ATOM     21  C   UNL     1       4.140   2.184  19.470  0.00  0.00    +0.000 A 
ATOM     22  F   UNL     1       4.989   1.384  20.134  0.00  0.00    +0.000 F 
ATOM     23  C   UNL     1       4.087   3.541  19.792  0.00  0.00    +0.000 A 
ATOM     24  C   UNL     1       3.208   4.409  19.125  0.00  0.00    +0.000 A 
ENDBRANCH   1  24
TORSDOF 2
ENDMDL
MODEL 6
REMARK VINA RESULT:      -6.7      3.193      8.205
REMARK  Name = 
REMARK  3 active torsions:
REMARK  status: ('A' for Active; 'I' for Inactive)
REMARK    1  A    between atoms: C_1  and  C_2
REMARK    2  A    between atoms: C_8  and  N_9
REMARK    3  A    between atoms: C_10  and  C_12
REMARK                            x       y       z     vdW  Elec       q    Type
REMARK                         _______ _______ _______ _____ _____    ______ ____
ROOT
ATOM      1  N   UNL     1       0.386   9.357  19.007  0.00  0.00    +0.000 N 
ATOM      2  C   UNL     1       1.618   9.190  18.352  0.00  0.00    +0.000 C 
ATOM      3  O   UNL     1       1.990   9.841  17.380  0.00  0.00    +0.000 OA
ATOM      4  H   UNL     1       0.291   8.940  19.926  0.00  0.00    +0.000 HD
ENDROOT
BRANCH   2   5
ATOM      5  C   UNL     1       2.512   8.078  18.947  0.00  0.00    +0.000 C 
ATOM      6  C   UNL     1       2.768   6.929  17.962  0.00  0.00    +0.000 C 
ATOM      7  C   UNL     1       1.892   5.701  18.174  0.00  0.00    +0.000 C 
ATOM      8  N   UNL     1       1.884   5.292  19.567  0.00  0.00    +0.000 N 
ATOM      9  C   UNL     1       2.711   4.263  19.982  0.00  0.00    +0.000 A 
ATOM     10  C   UNL     1       2.404   3.461  21.095  0.00  0.00    +0.000 A 
ATOM     11  N   UNL     1       3.139   2.397  21.519  0.00  0.00    +0.000 NA
ATOM     12  C   UNL     1       4.230   2.136  20.779  0.00  0.00    +0.000 A 
ATOM     13  C   UNL     1       4.562   2.904  19.677  0.00  0.00    +0.000 A 
ATOM     14  N   UNL     1       3.813   3.960  19.262  0.00  0.00    +0.000 NA
ATOM     15  C   UNL     1       1.345   6.274  20.496  0.00  0.00    +0.000 C 
ATOM     16  C   UNL     1       2.070   7.622  20.365  0.00  0.00    +0.000 C 
ENDBRANCH   2   5
BRANCH   1  24
ATOM     17  C   UNL     1      -0.632  11.733  20.537  0.00  0.00    +0.000 C 
ATOM     18  C   UNL     1      -1.229  11.231  19.251  0.00  0.00    +0.000 A 
ATOM     19  C   UNL     1      -2.356  11.934  18.758  0.00  0.00    +0.000 A 
ATOM     20  C   UNL     1      -2.995  11.542  17.589  0.00  0.00    +0.000 A 
ATOM     21  C   UNL     1      -2.523  10.439  16.913  0.00  0.00    +0.000 A 
ATOM     22  F   UNL     1      -3.152  10.036  15.797  0.00  0.00    +0.000 F 
ATOM     23  C   UNL     1      -1.415   9.723  17.367  0.00  0.00    +0.000 A 
ATOM     24  C   UNL     1      -0.734  10.108  18.534  0.00  0.00    +0.000 A 
ENDBRANCH   1  24
TORSDOF 2
ENDMDL
MODEL 7
REMARK VINA RESULT:      -6.5      1.311      1.897
REMARK  Name = 
REMARK  3 active torsions:
REMARK  status: ('A' for Active; 'I' for Inactive)
REMARK    1  A    between atoms: C_1  and  C_2
REMARK    2  A    between atoms: C_8  and  N_9
REMARK    3  A    between atoms: C_10  and  C_12
REMARK                            x       y       z     vdW  Elec       q    Type
REMARK                         _______ _______ _______ _____ _____    ______ ____
ROOT
ATOM      1  N   UNL     1       2.352   6.314  19.998  0.00  0.00    +0.000 N 
ATOM      2  C   UNL     1       2.173   7.301  19.013  0.00  0.00    +0.000 C 
ATOM      3  O   UNL     1       2.183   7.095  17.803  0.00  0.00    +0.000 OA
ATOM      4  H   UNL     1       2.088   6.555  20.945  0.00  0.00    +0.000 HD
ENDROOT
BRANCH   2   5
ATOM      5  C   UNL     1       1.969   8.728  19.569  0.00  0.00    +0.000 C 
ATOM      6  C   UNL     1       1.252   8.742  20.927  0.00  0.00    +0.000 C 
ATOM      7  C   UNL     1      -0.238   9.052  20.858  0.00  0.00    +0.000 C 
ATOM      8  N   UNL     1      -0.495  10.227  20.043  0.00  0.00    +0.000 N 
ATOM      9  C   UNL     1      -0.690  11.452  20.655  0.00  0.00    +0.000 A 
ATOM     10  C   UNL     1      -1.449  12.473  20.057  0.00  0.00    +0.000 A 
ATOM     11  N   UNL     1      -1.731  13.676  20.628  0.00  0.00    +0.000 NA
ATOM     12  C   UNL     1      -1.221  13.847  21.860  0.00  0.00    +0.000 A 
ATOM     13  C   UNL     1      -0.469  12.864  22.478  0.00  0.00    +0.000 A 
ATOM     14  N   UNL     1      -0.203  11.664  21.897  0.00  0.00    +0.000 NA
ATOM     15  C   UNL     1      -0.094  10.112  18.649  0.00  0.00    +0.000 C 
ATOM     16  C   UNL     1       1.386   9.722  18.525  0.00  0.00    +0.000 C 
ENDBRANCH   2   5
BRANCH   1  24
ATOM     17  C   UNL     1       5.229   5.770  19.325  0.00  0.00    +0.000 C 
ATOM     18  C   UNL     1       4.173   4.708  19.463  0.00  0.00    +0.000 A 
ATOM     19  C   UNL     1       4.585   3.370  19.241  0.00  0.00    +0.000 A 
ATOM     20  C   UNL     1       3.685   2.316  19.326  0.00  0.00    +0.000 A 
ATOM     21  C   UNL     1       2.368   2.589  19.617  0.00  0.00    +0.000 A 
ATOM     22  F   UNL     1       1.486   1.579  19.673  0.00  0.00    +0.000 F 
ATOM     23  C   UNL     1       1.926   3.893  19.844  0.00  0.00    +0.000 A 
ATOM     24  C   UNL     1       2.815   4.978  19.788  0.00  0.00    +0.000 A 
ENDBRANCH   1  24
TORSDOF 2
ENDMDL
MODEL 8
REMARK VINA RESULT:      -6.4      2.213      2.495
REMARK  Name = 
REMARK  3 active torsions:
REMARK  status: ('A' for Active; 'I' for Inactive)
REMARK    1  A    between atoms: C_1  and  C_2
REMARK    2  A    between atoms: C_8  and  N_9
REMARK    3  A    between atoms: C_10  and  C_12
REMARK                            x       y       z     vdW  Elec       q    Type
REMARK                         _______ _______ _______ _____ _____    ______ ____
ROOT
ATOM      1  N   UNL     1       2.267   6.665  20.520  0.00  0.00    +0.000 N 
ATOM      2  C   UNL     1       1.184   7.488  20.877  0.00  0.00    +0.000 C 
ATOM      3  O   UNL     1       0.081   7.082  21.233  0.00  0.00    +0.000 OA
ATOM      4  H   UNL     1       3.181   7.097  20.479  0.00  0.00    +0.000 HD
ENDROOT
BRANCH   2   5
ATOM      5  C   UNL     1       1.473   9.002  20.776  0.00  0.00    +0.000 C 
ATOM      6  C   UNL     1       1.023   9.780  22.021  0.00  0.00    +0.000 C 
ATOM      7  C   UNL     1      -0.316  10.493  21.877  0.00  0.00    +0.000 C 
ATOM      8  N   UNL     1      -0.372  11.264  20.647  0.00  0.00    +0.000 N 
ATOM      9  C   UNL     1      -0.120  12.625  20.682  0.00  0.00    +0.000 A 
ATOM     10  C   UNL     1      -0.659  13.508  19.731  0.00  0.00    +0.000 A 
ATOM     11  N   UNL     1      -0.501  14.860  19.742  0.00  0.00    +0.000 NA
ATOM     12  C   UNL     1       0.233  15.333  20.764  0.00  0.00    +0.000 A 
ATOM     13  C   UNL     1       0.778  14.492  21.717  0.00  0.00    +0.000 A 
ATOM     14  N   UNL     1       0.605  13.144  21.696  0.00  0.00    +0.000 NA
ATOM     15  C   UNL     1      -0.254  10.486  19.423  0.00  0.00    +0.000 C 
ATOM     16  C   UNL     1       1.021   9.630  19.428  0.00  0.00    +0.000 C 
ENDBRANCH   2   5
BRANCH   1  24
ATOM     17  C   UNL     1       2.380   5.602  17.713  0.00  0.00    +0.000 C 
ATOM     18  C   UNL     1       2.265   4.743  18.943  0.00  0.00    +0.000 A 
ATOM     19  C   UNL     1       2.192   3.343  18.735  0.00  0.00    +0.000 A 
ATOM     20  C   UNL     1       2.066   2.463  19.801  0.00  0.00    +0.000 A 
ATOM     21  C   UNL     1       1.998   2.972  21.079  0.00  0.00    +0.000 A 
ATOM     22  F   UNL     1       1.848   2.129  22.113  0.00  0.00    +0.000 F 
ATOM     23  C   UNL     1       2.069   4.344  21.322  0.00  0.00    +0.000 A 
ATOM     24  C   UNL     1       2.219   5.259  20.267  0.00  0.00    +0.000 A 
ENDBRANCH   1  24
TORSDOF 2
ENDMDL
MODEL 9
REMARK VINA RESULT:      -6.4      2.272      3.576
REMARK  Name = 
REMARK  3 active torsions:
REMARK  status: ('A' for Active; 'I' for Inactive)
REMARK    1  A    between atoms: C_1  and  C_2
REMARK    2  A    between atoms: C_8  and  N_9
REMARK    3  A    between atoms: C_10  and  C_12
REMARK                            x       y       z     vdW  Elec       q    Type
REMARK                         _______ _______ _______ _____ _____    ______ ____
ROOT
ATOM      1  N   UNL     1       4.259   6.432  18.255  0.00  0.00    +0.000 N 
ATOM      2  C   UNL     1       3.304   6.071  19.222  0.00  0.00    +0.000 C 
ATOM      3  O   UNL     1       3.500   5.282  20.142  0.00  0.00    +0.000 OA
ATOM      4  H   UNL     1       4.066   7.256  17.701  0.00  0.00    +0.000 HD
ENDROOT
BRANCH   2   5
ATOM      5  C   UNL     1       1.926   6.746  19.040  0.00  0.00    +0.000 C 
ATOM      6  C   UNL     1       1.902   7.748  17.878  0.00  0.00    +0.000 C 
ATOM      7  C   UNL     1       2.048   9.208  18.292  0.00  0.00    +0.000 C 
ATOM      8  N   UNL     1       1.143   9.541  19.378  0.00  0.00    +0.000 N 
ATOM      9  C   UNL     1      -0.057  10.171  19.097  0.00  0.00    +0.000 A 
ATOM     10  C   UNL     1      -0.706  10.991  20.036  0.00  0.00    +0.000 A 
ATOM     11  N   UNL     1      -1.853  11.687  19.806  0.00  0.00    +0.000 NA
ATOM     12  C   UNL     1      -2.359  11.546  18.568  0.00  0.00    +0.000 A 
ATOM     13  C   UNL     1      -1.745  10.747  17.619  0.00  0.00    +0.000 A 
ATOM     14  N   UNL     1      -0.595  10.064  17.863  0.00  0.00    +0.000 NA
ATOM     15  C   UNL     1       1.359   8.801  20.612  0.00  0.00    +0.000 C 
ATOM     16  C   UNL     1       1.323   7.286  20.367  0.00  0.00    +0.000 C 
ENDBRANCH   2   5
BRANCH   1  24
ATOM     17  C   UNL     1       4.704   4.824  15.758  0.00  0.00    +0.000 C 
ATOM     18  C   UNL     1       5.732   5.016  16.838  0.00  0.00    +0.000 A 
ATOM     19  C   UNL     1       6.980   4.372  16.649  0.00  0.00    +0.000 A 
ATOM     20  C   UNL     1       7.991   4.470  17.596  0.00  0.00    +0.000 A 
ATOM     21  C   UNL     1       7.761   5.197  18.742  0.00  0.00    +0.000 A 
ATOM     22  F   UNL     1       8.723   5.273  19.675  0.00  0.00    +0.000 F 
ATOM     23  C   UNL     1       6.545   5.846  18.962  0.00  0.00    +0.000 A 
ATOM     24  C   UNL     1       5.511   5.785  18.014  0.00  0.00    +0.000 A 
ENDBRANCH   1  24
TORSDOF 2
ENDMDL
