MODEL 1
REMARK VINA RESULT:      -5.2      0.000      0.000
REMARK  Name = 
REMARK  1 active torsions:
REMARK  status: ('A' for Active; 'I' for Inactive)
REMARK    1  A    between atoms: C_6  and  N_7
REMARK                            x       y       z     vdW  Elec       q    Type
REMARK                         _______ _______ _______ _____ _____    ______ ____
ROOT
ATOM      1  N   UNL     1       3.867   5.554  17.586  0.00  0.00    +0.000 N 
ATOM      2  C   UNL     1       3.977   7.037  17.491  0.00  0.00    +0.000 C 
ATOM      3  C   UNL     1       2.844   7.872  18.042  0.00  0.00    +0.000 C 
ATOM      4  S   UNL     1       2.118   7.314  19.579  0.00  0.00    +0.000 S 
ATOM      5  C   UNL     1       2.267   5.589  19.478  0.00  0.00    +0.000 A 
ATOM      6  S   UNL     1       1.383   4.707  20.691  0.00  0.00    +0.000 S 
ATOM      7  S   UNL     1       1.465   2.979  19.667  0.00  0.00    +0.000 S 
ATOM      8  C   UNL     1       2.906   3.411  18.732  0.00  0.00    +0.000 A 
ATOM      9  S   UNL     1       3.810   2.141  18.101  0.00  0.00    +0.000 S 
ATOM     10  C   UNL     1       3.053   4.939  18.575  0.00  0.00    +0.000 A 
ENDROOT
BRANCH   1  16
ATOM     11  S   UNL     1       6.953   5.311  18.810  0.00  0.00    +0.000 S 
ATOM     12  C   UNL     1       6.356   4.959  17.282  0.00  0.00    +0.000 A 
ATOM     13  S   UNL     1       7.443   4.727  15.918  0.00  0.00    +0.000 S 
ATOM     14  S   UNL     1       6.055   4.079  14.582  0.00  0.00    +0.000 S 
ATOM     15  C   UNL     1       4.721   4.546  15.551  0.00  0.00    +0.000 A 
ATOM     16  C   UNL     1       4.893   4.919  16.843  0.00  0.00    +0.000 A 
ENDBRANCH   1  16
TORSDOF 1
ENDMDL
MODEL 2
REMARK VINA RESULT:      -4.7      1.541      3.062
REMARK  Name = 
REMARK  1 active torsions:
REMARK  status: ('A' for Active; 'I' for Inactive)
REMARK    1  A    between atoms: C_6  and  N_7
REMARK                            x       y       z     vdW  Elec       q    Type
REMARK                         _______ _______ _______ _____ _____    ______ ____
ROOT
ATOM      1  N   UNL     1       4.437   3.989  18.978  0.00  0.00    +0.000 N 
ATOM      2  C   UNL     1       4.529   2.615  19.543  0.00  0.00    +0.000 C 
ATOM      3  C   UNL     1       3.889   2.352  20.887  0.00  0.00    +0.000 C 
ATOM      4  S   UNL     1       2.305   3.131  21.179  0.00  0.00    +0.000 S 
ATOM      5  C   UNL     1       2.428   4.614  20.289  0.00  0.00    +0.000 A 
ATOM      6  S   UNL     1       1.158   5.762  20.602  0.00  0.00    +0.000 S 
ATOM      7  S   UNL     1       2.196   7.304  19.835  0.00  0.00    +0.000 S 
ATOM      8  C   UNL     1       3.236   6.305  18.805  0.00  0.00    +0.000 A 
ATOM      9  S   UNL     1       3.941   7.060  17.480  0.00  0.00    +0.000 S 
ATOM     10  C   UNL     1       3.393   4.874  19.362  0.00  0.00    +0.000 A 
ENDROOT
BRANCH   1  16
ATOM     11  S   UNL     1       7.381   5.532  19.170  0.00  0.00    +0.000 S 
ATOM     12  C   UNL     1       6.519   4.990  17.836  0.00  0.00    +0.000 A 
ATOM     13  S   UNL     1       6.935   5.525  16.212  0.00  0.00    +0.000 S 
ATOM     14  S   UNL     1       5.703   4.269  15.195  0.00  0.00    +0.000 S 
ATOM     15  C   UNL     1       4.823   3.802  16.590  0.00  0.00    +0.000 A 
ATOM     16  C   UNL     1       5.259   4.125  17.832  0.00  0.00    +0.000 A 
ENDBRANCH   1  16
TORSDOF 1
ENDMDL
MODEL 3
REMARK VINA RESULT:      -4.3      7.916      9.902
REMARK  Name = 
REMARK  1 active torsions:
REMARK  status: ('A' for Active; 'I' for Inactive)
REMARK    1  A    between atoms: C_6  and  N_7
REMARK                            x       y       z     vdW  Elec       q    Type
REMARK                         _______ _______ _______ _____ _____    ______ ____
ROOT
ATOM      1  N   UNL     1      -2.121  10.967  18.538  0.00  0.00    +0.000 N 
ATOM      2  C   UNL     1      -1.520  10.281  17.361  0.00  0.00    +0.000 C 
ATOM      3  C   UNL     1      -2.450   9.751  16.293  0.00  0.00    +0.000 C 
ATOM      4  S   UNL     1      -3.847  10.787  15.870  0.00  0.00    +0.000 S 
ATOM      5  C   UNL     1      -4.225  11.565  17.373  0.00  0.00    +0.000 A 
ATOM      6  S   UNL     1      -5.737  12.429  17.389  0.00  0.00    +0.000 S 
ATOM      7  S   UNL     1      -5.819  12.491  19.396  0.00  0.00    +0.000 S 
ATOM      8  C   UNL     1      -4.073  12.312  19.638  0.00  0.00    +0.000 A 
ATOM      9  S   UNL     1      -3.449  12.865  21.098  0.00  0.00    +0.000 S 
ATOM     10  C   UNL     1      -3.402  11.577  18.459  0.00  0.00    +0.000 A 
ENDROOT
BRANCH   1  16
ATOM     11  S   UNL     1      -0.385  13.808  18.570  0.00  0.00    +0.000 S 
ATOM     12  C   UNL     1      -0.200  12.407  19.475  0.00  0.00    +0.000 A 
ATOM     13  S   UNL     1       1.276  12.107  20.386  0.00  0.00    +0.000 S 
ATOM     14  S   UNL     1       0.638  10.457  21.387  0.00  0.00    +0.000 S 
ATOM     15  C   UNL     1      -0.752  10.247  20.408  0.00  0.00    +0.000 A 
ATOM     16  C   UNL     1      -1.147  11.209  19.538  0.00  0.00    +0.000 A 
ENDBRANCH   1  16
TORSDOF 1
ENDMDL
MODEL 4
REMARK VINA RESULT:      -4.2     10.417     12.181
REMARK  Name = 
REMARK  1 active torsions:
REMARK  status: ('A' for Active; 'I' for Inactive)
REMARK    1  A    between atoms: C_6  and  N_7
REMARK                            x       y       z     vdW  Elec       q    Type
REMARK                         _______ _______ _______ _____ _____    ______ ____
ROOT
ATOM      1  N   UNL     1       9.509  15.451  18.727  0.00  0.00    +0.000 N 
ATOM      2  C   UNL     1       9.918  16.168  17.487  0.00  0.00    +0.000 C 
ATOM      3  C   UNL     1      11.220  15.768  16.830  0.00  0.00    +0.000 C 
ATOM      4  S   UNL     1      11.585  14.017  16.788  0.00  0.00    +0.000 S 
ATOM      5  C   UNL     1      10.866  13.432  18.253  0.00  0.00    +0.000 A 
ATOM      6  S   UNL     1      11.295  11.799  18.676  0.00  0.00    +0.000 S 
ATOM      7  S   UNL     1      10.712  12.012  20.588  0.00  0.00    +0.000 S 
ATOM      8  C   UNL     1       9.585  13.342  20.269  0.00  0.00    +0.000 A 
ATOM      9  S   UNL     1       8.357  13.582  21.391  0.00  0.00    +0.000 S 
ATOM     10  C   UNL     1       9.981  14.141  19.009  0.00  0.00    +0.000 A 
ENDROOT
BRANCH   1  16
ATOM     11  S   UNL     1       6.407  14.609  17.859  0.00  0.00    +0.000 S 
ATOM     12  C   UNL     1       6.966  15.861  18.826  0.00  0.00    +0.000 A 
ATOM     13  S   UNL     1       5.919  17.208  19.257  0.00  0.00    +0.000 S 
ATOM     14  S   UNL     1       7.161  18.087  20.605  0.00  0.00    +0.000 S 
ATOM     15  C   UNL     1       8.523  17.155  20.146  0.00  0.00    +0.000 A 
ATOM     16  C   UNL     1       8.392  16.078  19.332  0.00  0.00    +0.000 A 
ENDBRANCH   1  16
TORSDOF 1
ENDMDL
MODEL 5
REMARK VINA RESULT:      -4.1      9.711     10.947
REMARK  Name = 
REMARK  1 active torsions:
REMARK  status: ('A' for Active; 'I' for Inactive)
REMARK    1  A    between atoms: C_6  and  N_7
REMARK                            x       y       z     vdW  Elec       q    Type
REMARK                         _______ _______ _______ _____ _____    ______ ____
ROOT
ATOM      1  N   UNL     1       7.909  14.299  18.856  0.00  0.00    +0.000 N 
ATOM      2  C   UNL     1       7.012  14.329  17.668  0.00  0.00    +0.000 C 
ATOM      3  C   UNL     1       5.562  14.702  17.878  0.00  0.00    +0.000 C 
ATOM      4  S   UNL     1       5.241  16.026  19.039  0.00  0.00    +0.000 S 
ATOM      5  C   UNL     1       6.511  15.839  20.204  0.00  0.00    +0.000 A 
ATOM      6  S   UNL     1       6.324  16.793  21.649  0.00  0.00    +0.000 S 
ATOM      7  S   UNL     1       7.641  15.691  22.694  0.00  0.00    +0.000 S 
ATOM      8  C   UNL     1       8.512  15.087  21.274  0.00  0.00    +0.000 A 
ATOM      9  S   UNL     1      10.090  14.561  21.519  0.00  0.00    +0.000 S 
ATOM     10  C   UNL     1       7.618  15.066  20.017  0.00  0.00    +0.000 A 
ENDROOT
BRANCH   1  16
ATOM     11  S   UNL     1      10.344  16.172  17.572  0.00  0.00    +0.000 S 
ATOM     12  C   UNL     1      10.235  14.508  17.765  0.00  0.00    +0.000 A 
ATOM     13  S   UNL     1      11.338  13.426  16.925  0.00  0.00    +0.000 S 
ATOM     14  S   UNL     1      10.786  11.708  17.860  0.00  0.00    +0.000 S 
ATOM     15  C   UNL     1       9.378  12.392  18.557  0.00  0.00    +0.000 A 
ATOM     16  C   UNL     1       9.165  13.731  18.531  0.00  0.00    +0.000 A 
ENDBRANCH   1  16
TORSDOF 1
ENDMDL
MODEL 6
REMARK VINA RESULT:      -4.0     10.107     12.212
REMARK  Name = 
REMARK  1 active torsions:
REMARK  status: ('A' for Active; 'I' for Inactive)
REMARK    1  A    between atoms: C_6  and  N_7
REMARK                            x       y       z     vdW  Elec       q    Type
REMARK                         _______ _______ _______ _____ _____    ______ ____
ROOT
ATOM      1  N   UNL     1       9.597  15.356  19.358  0.00  0.00    +0.000 N 
ATOM      2  C   UNL     1       9.630  16.800  18.995  0.00  0.00    +0.000 C 
ATOM      3  C   UNL     1      10.882  17.343  18.345  0.00  0.00    +0.000 C 
ATOM      4  S   UNL     1      11.669  16.290  17.130  0.00  0.00    +0.000 S 
ATOM      5  C   UNL     1      11.339  14.695  17.724  0.00  0.00    +0.000 A 
ATOM      6  S   UNL     1      12.223  13.422  16.930  0.00  0.00    +0.000 S 
ATOM      7  S   UNL     1      11.885  12.101  18.407  0.00  0.00    +0.000 S 
ATOM      8  C   UNL     1      10.425  12.901  19.012  0.00  0.00    +0.000 A 
ATOM      9  S   UNL     1       9.350  11.954  19.892  0.00  0.00    +0.000 S 
ATOM     10  C   UNL     1      10.421  14.410  18.691  0.00  0.00    +0.000 A 
ENDROOT
BRANCH   1  16
ATOM     11  S   UNL     1       6.677  14.661  17.918  0.00  0.00    +0.000 S 
ATOM     12  C   UNL     1       7.062  14.922  19.530  0.00  0.00    +0.000 A 
ATOM     13  S   UNL     1       5.805  15.231  20.722  0.00  0.00    +0.000 S 
ATOM     14  S   UNL     1       6.982  15.146  22.376  0.00  0.00    +0.000 S 
ATOM     15  C   UNL     1       8.447  15.205  21.490  0.00  0.00    +0.000 A 
ATOM     16  C   UNL     1       8.456  15.054  20.142  0.00  0.00    +0.000 A 
ENDBRANCH   1  16
TORSDOF 1
ENDMDL
MODEL 7
REMARK VINA RESULT:      -3.9     10.001     12.424
REMARK  Name = 
REMARK  1 active torsions:
REMARK  status: ('A' for Active; 'I' for Inactive)
REMARK    1  A    between atoms: C_6  and  N_7
REMARK                            x       y       z     vdW  Elec       q    Type
REMARK                         _______ _______ _______ _____ _____    ______ ____
ROOT
ATOM      1  N   UNL     1       8.645  14.482  18.497  0.00  0.00    +0.000 N 
ATOM      2  C   UNL     1       8.733  12.996  18.487  0.00  0.00    +0.000 C 
ATOM      3  C   UNL     1       9.816  12.351  17.651  0.00  0.00    +0.000 C 
ATOM      4  S   UNL     1      11.415  13.155  17.666  0.00  0.00    +0.000 S 
ATOM      5  C   UNL     1      11.009  14.831  17.841  0.00  0.00    +0.000 A 
ATOM      6  S   UNL     1      12.333  15.934  17.591  0.00  0.00    +0.000 S 
ATOM      7  S   UNL     1      11.123  17.516  17.318  0.00  0.00    +0.000 S 
ATOM      8  C   UNL     1       9.754  16.832  18.209  0.00  0.00    +0.000 A 
ATOM      9  S   UNL     1       8.628  17.919  18.824  0.00  0.00    +0.000 S 
ATOM     10  C   UNL     1       9.778  15.289  18.204  0.00  0.00    +0.000 A 
ENDROOT
BRANCH   1  16
ATOM     11  S   UNL     1       8.592  14.985  21.788  0.00  0.00    +0.000 S 
ATOM     12  C   UNL     1       7.343  14.972  20.667  0.00  0.00    +0.000 A 
ATOM     13  S   UNL     1       5.665  14.868  21.185  0.00  0.00    +0.000 S 
ATOM     14  S   UNL     1       4.808  15.193  19.371  0.00  0.00    +0.000 S 
ATOM     15  C   UNL     1       6.269  14.977  18.502  0.00  0.00    +0.000 A 
ATOM     16  C   UNL     1       7.462  14.917  19.144  0.00  0.00    +0.000 A 
ENDBRANCH   1  16
TORSDOF 1
ENDMDL
MODEL 8
REMARK VINA RESULT:      -3.9     10.080     11.745
REMARK  Name = 
REMARK  1 active torsions:
REMARK  status: ('A' for Active; 'I' for Inactive)
REMARK    1  A    between atoms: C_6  and  N_7
REMARK                            x       y       z     vdW  Elec       q    Type
REMARK                         _______ _______ _______ _____ _____    ______ ____
ROOT
ATOM      1  N   UNL     1      10.447  13.816  19.568  0.00  0.00    +0.000 N 
ATOM      2  C   UNL     1      10.778  12.788  18.542  0.00  0.00    +0.000 C 
ATOM      3  C   UNL     1      10.772  11.336  18.961  0.00  0.00    +0.000 C 
ATOM      4  S   UNL     1       9.460  10.833  20.069  0.00  0.00    +0.000 S 
ATOM      5  C   UNL     1       9.186  12.255  21.022  0.00  0.00    +0.000 A 
ATOM      6  S   UNL     1       8.164  12.018  22.412  0.00  0.00    +0.000 S 
ATOM      7  S   UNL     1       8.770  13.718  23.298  0.00  0.00    +0.000 S 
ATOM      8  C   UNL     1       9.276  14.514  21.799  0.00  0.00    +0.000 A 
ATOM      9  S   UNL     1       9.347  16.193  21.817  0.00  0.00    +0.000 S 
ATOM     10  C   UNL     1       9.662  13.492  20.708  0.00  0.00    +0.000 A 
ENDROOT
BRANCH   1  16
ATOM     11  S   UNL     1       8.046  15.578  18.080  0.00  0.00    +0.000 S 
ATOM     12  C   UNL     1       9.690  15.882  18.225  0.00  0.00    +0.000 A 
ATOM     13  S   UNL     1      10.477  17.097  17.226  0.00  0.00    +0.000 S 
ATOM     14  S   UNL     1      12.284  17.075  18.156  0.00  0.00    +0.000 S 
ATOM     15  C   UNL     1      11.954  15.641  19.034  0.00  0.00    +0.000 A 
ATOM     16  C   UNL     1      10.703  15.122  19.081  0.00  0.00    +0.000 A 
ENDBRANCH   1  16
TORSDOF 1
ENDMDL
MODEL 9
REMARK VINA RESULT:      -3.9      1.691      5.043
REMARK  Name = 
REMARK  1 active torsions:
REMARK  status: ('A' for Active; 'I' for Inactive)
REMARK    1  A    between atoms: C_6  and  N_7
REMARK                            x       y       z     vdW  Elec       q    Type
REMARK                         _______ _______ _______ _____ _____    ______ ____
ROOT
ATOM      1  N   UNL     1       5.292   4.626  18.740  0.00  0.00    +0.000 N 
ATOM      2  C   UNL     1       6.153   5.412  19.666  0.00  0.00    +0.000 C 
ATOM      3  C   UNL     1       7.531   5.813  19.190  0.00  0.00    +0.000 C 
ATOM      4  S   UNL     1       7.661   6.340  17.485  0.00  0.00    +0.000 S 
ATOM      5  C   UNL     1       6.455   5.383  16.687  0.00  0.00    +0.000 A 
ATOM      6  S   UNL     1       6.517   5.431  14.948  0.00  0.00    +0.000 S 
ATOM      7  S   UNL     1       5.405   3.769  14.741  0.00  0.00    +0.000 S 
ATOM      8  C   UNL     1       4.614   3.903  16.321  0.00  0.00    +0.000 A 
ATOM      9  S   UNL     1       3.142   3.113  16.502  0.00  0.00    +0.000 S 
ATOM     10  C   UNL     1       5.480   4.684  17.332  0.00  0.00    +0.000 A 
ENDROOT
BRANCH   1  16
ATOM     11  S   UNL     1       2.614   6.572  19.099  0.00  0.00    +0.000 S 
ATOM     12  C   UNL     1       2.965   5.069  19.757  0.00  0.00    +0.000 A 
ATOM     13  S   UNL     1       2.036   4.434  21.110  0.00  0.00    +0.000 S 
ATOM     14  S   UNL     1       2.829   2.563  21.121  0.00  0.00    +0.000 S 
ATOM     15  C   UNL     1       4.118   2.968  20.068  0.00  0.00    +0.000 A 
ATOM     16  C   UNL     1       4.134   4.150  19.403  0.00  0.00    +0.000 A 
ENDBRANCH   1  16
TORSDOF 1
ENDMDL
