MODEL 1
REMARK VINA RESULT:      -7.1      0.000      0.000
REMARK  Name = 
REMARK  10 active torsions:
REMARK  status: ('A' for Active; 'I' for Inactive)
REMARK    1  A    between atoms: C_2  and  C_3
REMARK    2  A    between atoms: C_3  and  N_4
REMARK    3  A    between atoms: C_5  and  C_6
REMARK    4  A    between atoms: C_6  and  C_7
REMARK    5  A    between atoms: C_7  and  C_8
REMARK    6  A    between atoms: C_8  and  O_9
REMARK    7  A    between atoms: O_9  and  C_10
REMARK    8  A    between atoms: C_20  and  S_21
REMARK    9  A    between atoms: S_21  and  C_22
REMARK   10  A    between atoms: C_22  and  C_23
REMARK                            x       y       z     vdW  Elec       q    Type
REMARK                         _______ _______ _______ _____ _____    ______ ____
ROOT
ATOM      1  N   UNL     1      -0.172  10.036  20.780  0.00  0.00    +0.000 N 
ATOM      2  C   UNL     1       0.309   9.003  21.562  0.00  0.00    +0.000 A 
ATOM      3  N   UNL     1       0.519   9.473  22.779  0.00  0.00    +0.000 NA
ATOM      4  N   UNL     1       0.125  10.789  22.820  0.00  0.00    +0.000 NA
ATOM      5  C   UNL     1      -0.339  11.096  21.635  0.00  0.00    +0.000 A 
ENDROOT
BRANCH   1   6
ATOM      6  C   UNL     1      -0.306  10.060  19.336  0.00  0.00    +0.000 C 
BRANCH   6   8
ATOM      7  C   UNL     1       1.680   9.610  17.869  0.00  0.00    +0.000 C 
ATOM      8  C   UNL     1       0.966  10.440  18.638  0.00  0.00    +0.000 C 
ENDBRANCH   6   8
ENDBRANCH   1   6
BRANCH   2   9
ATOM      9  C   UNL     1       0.559   7.596  21.090  0.00  0.00    +0.000 C 
BRANCH   9  10
ATOM     10  C   UNL     1       2.005   7.395  20.615  0.00  0.00    +0.000 C 
BRANCH  10  11
ATOM     11  C   UNL     1       2.236   6.109  19.815  0.00  0.00    +0.000 C 
BRANCH  11  12
ATOM     12  O   UNL     1       3.654   5.953  19.672  0.00  0.00    +0.000 OA
BRANCH  12  13
ATOM     13  C   UNL     1       4.187   5.716  18.432  0.00  0.00    +0.000 A 
ATOM     14  C   UNL     1       4.407   6.698  17.462  0.00  0.00    +0.000 A 
ATOM     15  C   UNL     1       4.961   6.356  16.221  0.00  0.00    +0.000 A 
ATOM     16  C   UNL     1       5.293   5.032  15.941  0.00  0.00    +0.000 A 
ATOM     17 CL   UNL     1       5.975   4.624  14.415  0.00  0.00    +0.000 Cl
ATOM     18  C   UNL     1       5.078   4.039  16.891  0.00  0.00    +0.000 A 
ATOM     19  C   UNL     1       4.525   4.383  18.129  0.00  0.00    +0.000 A 
ATOM     20 CL   UNL     1       4.281   3.110  19.275  0.00  0.00    +0.000 Cl
ENDBRANCH  12  13
ENDBRANCH  11  12
ENDBRANCH  10  11
ENDBRANCH   9  10
ENDBRANCH   2   9
BRANCH   5  21
ATOM     21  S   UNL     1      -1.077  12.593  21.187  0.00  0.00    +0.000 S 
BRANCH  21  22
ATOM     22  C   UNL     1      -1.951  13.046  22.712  0.00  0.00    +0.000 C 
BRANCH  22  23
ATOM     23  C   UNL     1      -3.396  12.582  22.639  0.00  0.00    +0.000 C 
ATOM     24  O   UNL     1      -3.933  12.065  23.612  0.00  0.00    +0.000 OA
ATOM     25  N   UNL     1      -3.955  12.776  21.393  0.00  0.00    +0.000 N 
ATOM     26  C   UNL     1      -5.262  12.463  21.138  0.00  0.00    +0.000 A 
ATOM     27  N   UNL     1      -6.222  12.165  21.973  0.00  0.00    +0.000 NA
ATOM     28  C   UNL     1      -7.373  11.881  21.269  0.00  0.00    +0.000 A 
ATOM     29  C   UNL     1      -7.259  11.959  19.896  0.00  0.00    +0.000 A 
ATOM     30  S   UNL     1      -5.673  12.466  19.479  0.00  0.00    +0.000 S 
ATOM     31  H   UNL     1      -3.377  13.025  20.599  0.00  0.00    +0.000 HD
ENDBRANCH  22  23
ENDBRANCH  21  22
ENDBRANCH   5  21
TORSDOF 10
ENDMDL
MODEL 2
REMARK VINA RESULT:      -7.1      6.387      9.302
REMARK  Name = 
REMARK  10 active torsions:
REMARK  status: ('A' for Active; 'I' for Inactive)
REMARK    1  A    between atoms: C_2  and  C_3
REMARK    2  A    between atoms: C_3  and  N_4
REMARK    3  A    between atoms: C_5  and  C_6
REMARK    4  A    between atoms: C_6  and  C_7
REMARK    5  A    between atoms: C_7  and  C_8
REMARK    6  A    between atoms: C_8  and  O_9
REMARK    7  A    between atoms: O_9  and  C_10
REMARK    8  A    between atoms: C_20  and  S_21
REMARK    9  A    between atoms: S_21  and  C_22
REMARK   10  A    between atoms: C_22  and  C_23
REMARK                            x       y       z     vdW  Elec       q    Type
REMARK                         _______ _______ _______ _____ _____    ______ ____
ROOT
ATOM      1  N   UNL     1       5.865   5.543  17.317  0.00  0.00    +0.000 N 
ATOM      2  C   UNL     1       6.866   6.246  17.961  0.00  0.00    +0.000 A 
ATOM      3  N   UNL     1       6.951   5.795  19.201  0.00  0.00    +0.000 NA
ATOM      4  N   UNL     1       6.056   4.764  19.359  0.00  0.00    +0.000 NA
ATOM      5  C   UNL     1       5.455   4.586  18.210  0.00  0.00    +0.000 A 
ENDROOT
BRANCH   1   6
ATOM      6  C   UNL     1       5.251   5.856  16.040  0.00  0.00    +0.000 C 
BRANCH   6   8
ATOM      7  C   UNL     1       6.902   4.909  14.405  0.00  0.00    +0.000 C 
ATOM      8  C   UNL     1       5.677   4.926  14.944  0.00  0.00    +0.000 C 
ENDBRANCH   6   8
ENDBRANCH   1   6
BRANCH   2   9
ATOM      9  C   UNL     1       7.697   7.341  17.348  0.00  0.00    +0.000 C 
BRANCH   9  10
ATOM     10  C   UNL     1       8.311   8.262  18.412  0.00  0.00    +0.000 C 
BRANCH  10  11
ATOM     11  C   UNL     1       8.381   9.738  18.007  0.00  0.00    +0.000 C 
BRANCH  11  12
ATOM     12  O   UNL     1       9.640  10.241  18.470  0.00  0.00    +0.000 OA
BRANCH  12  13
ATOM     13  C   UNL     1       9.667  11.241  19.406  0.00  0.00    +0.000 A 
ATOM     14  C   UNL     1       9.319  11.079  20.750  0.00  0.00    +0.000 A 
ATOM     15  C   UNL     1       9.381  12.165  21.633  0.00  0.00    +0.000 A 
ATOM     16  C   UNL     1       9.786  13.419  21.178  0.00  0.00    +0.000 A 
ATOM     17 CL   UNL     1       9.861  14.744  22.273  0.00  0.00    +0.000 Cl
ATOM     18  C   UNL     1      10.132  13.602  19.844  0.00  0.00    +0.000 A 
ATOM     19  C   UNL     1      10.070  12.516  18.964  0.00  0.00    +0.000 A 
ATOM     20 CL   UNL     1      10.513  12.798  17.315  0.00  0.00    +0.000 Cl
ENDBRANCH  12  13
ENDBRANCH  11  12
ENDBRANCH  10  11
ENDBRANCH   9  10
ENDBRANCH   2   9
BRANCH   5  21
ATOM     21  S   UNL     1       4.327   3.333  17.833  0.00  0.00    +0.000 S 
BRANCH  21  22
ATOM     22  C   UNL     1       2.859   4.287  17.353  0.00  0.00    +0.000 C 
BRANCH  22  23
ATOM     23  C   UNL     1       2.388   5.137  18.521  0.00  0.00    +0.000 C 
ATOM     24  O   UNL     1       2.090   4.615  19.590  0.00  0.00    +0.000 OA
ATOM     25  N   UNL     1       2.309   6.478  18.206  0.00  0.00    +0.000 N 
ATOM     26  C   UNL     1       1.946   7.412  19.138  0.00  0.00    +0.000 A 
ATOM     27  N   UNL     1       1.833   7.291  20.433  0.00  0.00    +0.000 NA
ATOM     28  C   UNL     1       1.402   8.485  20.971  0.00  0.00    +0.000 A 
ATOM     29  C   UNL     1       1.185   9.498  20.060  0.00  0.00    +0.000 A 
ATOM     30  S   UNL     1       1.593   8.951  18.485  0.00  0.00    +0.000 S 
ATOM     31  H   UNL     1       2.382   6.790  17.245  0.00  0.00    +0.000 HD
ENDBRANCH  22  23
ENDBRANCH  21  22
ENDBRANCH   5  21
TORSDOF 10
ENDMDL
MODEL 3
REMARK VINA RESULT:      -7.0      6.300      8.964
REMARK  Name = 
REMARK  10 active torsions:
REMARK  status: ('A' for Active; 'I' for Inactive)
REMARK    1  A    between atoms: C_2  and  C_3
REMARK    2  A    between atoms: C_3  and  N_4
REMARK    3  A    between atoms: C_5  and  C_6
REMARK    4  A    between atoms: C_6  and  C_7
REMARK    5  A    between atoms: C_7  and  C_8
REMARK    6  A    between atoms: C_8  and  O_9
REMARK    7  A    between atoms: O_9  and  C_10
REMARK    8  A    between atoms: C_20  and  S_21
REMARK    9  A    between atoms: S_21  and  C_22
REMARK   10  A    between atoms: C_22  and  C_23
REMARK                            x       y       z     vdW  Elec       q    Type
REMARK                         _______ _______ _______ _____ _____    ______ ____
ROOT
ATOM      1  N   UNL     1       5.688   5.836  17.711  0.00  0.00    +0.000 N 
ATOM      2  C   UNL     1       6.951   6.145  18.178  0.00  0.00    +0.000 A 
ATOM      3  N   UNL     1       7.149   5.474  19.300  0.00  0.00    +0.000 NA
ATOM      4  N   UNL     1       6.051   4.684  19.542  0.00  0.00    +0.000 NA
ATOM      5  C   UNL     1       5.210   4.866  18.556  0.00  0.00    +0.000 A 
ENDROOT
BRANCH   1   6
ATOM      6  C   UNL     1       4.946   6.512  16.663  0.00  0.00    +0.000 C 
BRANCH   6   8
ATOM      7  C   UNL     1       5.514   4.810  14.908  0.00  0.00    +0.000 C 
ATOM      8  C   UNL     1       5.361   6.084  15.287  0.00  0.00    +0.000 C 
ENDBRANCH   6   8
ENDBRANCH   1   6
BRANCH   2   9
ATOM      9  C   UNL     1       7.917   7.092  17.519  0.00  0.00    +0.000 C 
BRANCH   9  10
ATOM     10  C   UNL     1       8.424   8.167  18.492  0.00  0.00    +0.000 C 
BRANCH  10  11
ATOM     11  C   UNL     1       8.305   9.602  17.969  0.00  0.00    +0.000 C 
BRANCH  11  12
ATOM     12  O   UNL     1       9.231  10.400  18.716  0.00  0.00    +0.000 OA
BRANCH  12  13
ATOM     13  C   UNL     1       9.292  11.751  18.496  0.00  0.00    +0.000 A 
ATOM     14  C   UNL     1       8.345  12.480  17.773  0.00  0.00    +0.000 A 
ATOM     15  C   UNL     1       8.495  13.864  17.603  0.00  0.00    +0.000 A 
ATOM     16  C   UNL     1       9.593  14.523  18.153  0.00  0.00    +0.000 A 
ATOM     17 CL   UNL     1       9.764  16.223  17.942  0.00  0.00    +0.000 Cl
ATOM     18  C   UNL     1      10.548  13.815  18.873  0.00  0.00    +0.000 A 
ATOM     19  C   UNL     1      10.396  12.435  19.041  0.00  0.00    +0.000 A 
ATOM     20 CL   UNL     1      11.612  11.602  19.948  0.00  0.00    +0.000 Cl
ENDBRANCH  12  13
ENDBRANCH  11  12
ENDBRANCH  10  11
ENDBRANCH   9  10
ENDBRANCH   2   9
BRANCH   5  21
ATOM     21  S   UNL     1       3.726   4.016  18.312  0.00  0.00    +0.000 S 
BRANCH  21  22
ATOM     22  C   UNL     1       3.018   4.020  19.983  0.00  0.00    +0.000 C 
BRANCH  22  23
ATOM     23  C   UNL     1       2.320   5.343  20.247  0.00  0.00    +0.000 C 
ATOM     24  O   UNL     1       1.613   5.487  21.238  0.00  0.00    +0.000 OA
ATOM     25  N   UNL     1       2.548   6.273  19.254  0.00  0.00    +0.000 N 
ATOM     26  C   UNL     1       2.042   7.542  19.331  0.00  0.00    +0.000 A 
ATOM     27  N   UNL     1       1.491   8.155  20.344  0.00  0.00    +0.000 NA
ATOM     28  C   UNL     1       1.089   9.416  19.955  0.00  0.00    +0.000 A 
ATOM     29  C   UNL     1       1.337   9.734  18.636  0.00  0.00    +0.000 A 
ATOM     30  S   UNL     1       2.155   8.431  17.875  0.00  0.00    +0.000 S 
ATOM     31  H   UNL     1       2.980   6.002  18.379  0.00  0.00    +0.000 HD
ENDBRANCH  22  23
ENDBRANCH  21  22
ENDBRANCH   5  21
TORSDOF 10
ENDMDL
MODEL 4
REMARK VINA RESULT:      -7.0      5.928     10.782
REMARK  Name = 
REMARK  10 active torsions:
REMARK  status: ('A' for Active; 'I' for Inactive)
REMARK    1  A    between atoms: C_2  and  C_3
REMARK    2  A    between atoms: C_3  and  N_4
REMARK    3  A    between atoms: C_5  and  C_6
REMARK    4  A    between atoms: C_6  and  C_7
REMARK    5  A    between atoms: C_7  and  C_8
REMARK    6  A    between atoms: C_8  and  O_9
REMARK    7  A    between atoms: O_9  and  C_10
REMARK    8  A    between atoms: C_20  and  S_21
REMARK    9  A    between atoms: S_21  and  C_22
REMARK   10  A    between atoms: C_22  and  C_23
REMARK                            x       y       z     vdW  Elec       q    Type
REMARK                         _______ _______ _______ _____ _____    ______ ____
ROOT
ATOM      1  N   UNL     1       2.817   5.381  19.758  0.00  0.00    +0.000 N 
ATOM      2  C   UNL     1       2.209   6.614  19.894  0.00  0.00    +0.000 A 
ATOM      3  N   UNL     1       2.657   7.401  18.931  0.00  0.00    +0.000 NA
ATOM      4  N   UNL     1       3.508   6.678  18.129  0.00  0.00    +0.000 NA
ATOM      5  C   UNL     1       3.550   5.458  18.601  0.00  0.00    +0.000 A 
ENDROOT
BRANCH   1   6
ATOM      6  C   UNL     1       2.827   4.292  20.718  0.00  0.00    +0.000 C 
BRANCH   6   8
ATOM      7  C   UNL     1       0.960   3.141  19.498  0.00  0.00    +0.000 C 
ATOM      8  C   UNL     1       1.603   3.431  20.636  0.00  0.00    +0.000 C 
ENDBRANCH   6   8
ENDBRANCH   1   6
BRANCH   2   9
ATOM      9  C   UNL     1       1.220   6.986  20.966  0.00  0.00    +0.000 C 
BRANCH   9  10
ATOM     10  C   UNL     1       1.296   8.477  21.327  0.00  0.00    +0.000 C 
BRANCH  10  11
ATOM     11  C   UNL     1       0.148   9.323  20.767  0.00  0.00    +0.000 C 
BRANCH  11  12
ATOM     12  O   UNL     1       0.623   9.929  19.559  0.00  0.00    +0.000 OA
BRANCH  12  13
ATOM     13  C   UNL     1       0.490  11.282  19.383  0.00  0.00    +0.000 A 
ATOM     14  C   UNL     1       1.303  12.244  19.987  0.00  0.00    +0.000 A 
ATOM     15  C   UNL     1       1.087  13.607  19.742  0.00  0.00    +0.000 A 
ATOM     16  C   UNL     1       0.058  14.015  18.895  0.00  0.00    +0.000 A 
ATOM     17 CL   UNL     1      -0.194  15.691  18.599  0.00  0.00    +0.000 Cl
ATOM     18  C   UNL     1      -0.764  13.073  18.287  0.00  0.00    +0.000 A 
ATOM     19  C   UNL     1      -0.548  11.713  18.533  0.00  0.00    +0.000 A 
ATOM     20 CL   UNL     1      -1.598  10.582  17.749  0.00  0.00    +0.000 Cl
ENDBRANCH  12  13
ENDBRANCH  11  12
ENDBRANCH  10  11
ENDBRANCH   9  10
ENDBRANCH   2   9
BRANCH   5  21
ATOM     21  S   UNL     1       4.375   4.118  17.887  0.00  0.00    +0.000 S 
BRANCH  21  22
ATOM     22  C   UNL     1       6.114   4.565  18.161  0.00  0.00    +0.000 C 
BRANCH  22  23
ATOM     23  C   UNL     1       6.727   5.076  16.868  0.00  0.00    +0.000 C 
ATOM     24  O   UNL     1       7.393   6.105  16.860  0.00  0.00    +0.000 OA
ATOM     25  N   UNL     1       6.408   4.289  15.780  0.00  0.00    +0.000 N 
ATOM     26  C   UNL     1       6.902   4.558  14.533  0.00  0.00    +0.000 A 
ATOM     27  N   UNL     1       7.853   5.380  14.177  0.00  0.00    +0.000 NA
ATOM     28  C   UNL     1       7.990   5.357  12.804  0.00  0.00    +0.000 A 
ATOM     29  C   UNL     1       7.122   4.517  12.139  0.00  0.00    +0.000 A 
ATOM     30  S   UNL     1       6.145   3.682  13.276  0.00  0.00    +0.000 S 
ATOM     31  H   UNL     1       5.693   3.575  15.849  0.00  0.00    +0.000 HD
ENDBRANCH  22  23
ENDBRANCH  21  22
ENDBRANCH   5  21
TORSDOF 10
ENDMDL
MODEL 5
REMARK VINA RESULT:      -7.0      6.026      8.760
REMARK  Name = 
REMARK  10 active torsions:
REMARK  status: ('A' for Active; 'I' for Inactive)
REMARK    1  A    between atoms: C_2  and  C_3
REMARK    2  A    between atoms: C_3  and  N_4
REMARK    3  A    between atoms: C_5  and  C_6
REMARK    4  A    between atoms: C_6  and  C_7
REMARK    5  A    between atoms: C_7  and  C_8
REMARK    6  A    between atoms: C_8  and  O_9
REMARK    7  A    between atoms: O_9  and  C_10
REMARK    8  A    between atoms: C_20  and  S_21
REMARK    9  A    between atoms: S_21  and  C_22
REMARK   10  A    between atoms: C_22  and  C_23
REMARK                            x       y       z     vdW  Elec       q    Type
REMARK                         _______ _______ _______ _____ _____    ______ ____
ROOT
ATOM      1  N   UNL     1       5.623   5.631  17.864  0.00  0.00    +0.000 N 
ATOM      2  C   UNL     1       6.864   6.061  18.293  0.00  0.00    +0.000 A 
ATOM      3  N   UNL     1       7.040   5.633  19.532  0.00  0.00    +0.000 NA
ATOM      4  N   UNL     1       5.952   4.878  19.898  0.00  0.00    +0.000 NA
ATOM      5  C   UNL     1       5.139   4.837  18.872  0.00  0.00    +0.000 A 
ENDROOT
BRANCH   1   6
ATOM      6  C   UNL     1       4.901   6.064  16.682  0.00  0.00    +0.000 C 
BRANCH   6   8
ATOM      7  C   UNL     1       6.161   4.391  15.299  0.00  0.00    +0.000 C 
ATOM      8  C   UNL     1       5.066   5.128  15.522  0.00  0.00    +0.000 C 
ENDBRANCH   6   8
ENDBRANCH   1   6
BRANCH   2   9
ATOM      9  C   UNL     1       7.831   6.883  17.485  0.00  0.00    +0.000 C 
BRANCH   9  10
ATOM     10  C   UNL     1       8.475   7.999  18.319  0.00  0.00    +0.000 C 
BRANCH  10  11
ATOM     11  C   UNL     1       8.016   9.413  17.948  0.00  0.00    +0.000 C 
BRANCH  11  12
ATOM     12  O   UNL     1       9.194  10.222  17.838  0.00  0.00    +0.000 OA
BRANCH  12  13
ATOM     13  C   UNL     1       9.444  11.186  18.779  0.00  0.00    +0.000 A 
ATOM     14  C   UNL     1      10.220  10.993  19.925  0.00  0.00    +0.000 A 
ATOM     15  C   UNL     1      10.420  12.045  20.830  0.00  0.00    +0.000 A 
ATOM     16  C   UNL     1       9.842  13.292  20.596  0.00  0.00    +0.000 A 
ATOM     17 CL   UNL     1      10.098  14.576  21.712  0.00  0.00    +0.000 Cl
ATOM     18  C   UNL     1       9.064  13.503  19.464  0.00  0.00    +0.000 A 
ATOM     19  C   UNL     1       8.866  12.452  18.562  0.00  0.00    +0.000 A 
ATOM     20 CL   UNL     1       7.891  12.769  17.168  0.00  0.00    +0.000 Cl
ENDBRANCH  12  13
ENDBRANCH  11  12
ENDBRANCH  10  11
ENDBRANCH   9  10
ENDBRANCH   2   9
BRANCH   5  21
ATOM     21  S   UNL     1       3.682   3.915  18.764  0.00  0.00    +0.000 S 
BRANCH  21  22
ATOM     22  C   UNL     1       2.676   4.657  20.080  0.00  0.00    +0.000 C 
BRANCH  22  23
ATOM     23  C   UNL     1       2.262   6.064  19.686  0.00  0.00    +0.000 C 
ATOM     24  O   UNL     1       2.306   6.421  18.514  0.00  0.00    +0.000 OA
ATOM     25  N   UNL     1       1.899   6.836  20.771  0.00  0.00    +0.000 N 
ATOM     26  C   UNL     1       1.452   8.120  20.618  0.00  0.00    +0.000 A 
ATOM     27  N   UNL     1       1.092   8.750  19.532  0.00  0.00    +0.000 NA
ATOM     28  C   UNL     1       0.748  10.048  19.845  0.00  0.00    +0.000 A 
ATOM     29  C   UNL     1       0.865  10.384  21.178  0.00  0.00    +0.000 A 
ATOM     30  S   UNL     1       1.365   9.009  22.076  0.00  0.00    +0.000 S 
ATOM     31  H   UNL     1       2.083   6.521  21.716  0.00  0.00    +0.000 HD
ENDBRANCH  22  23
ENDBRANCH  21  22
ENDBRANCH   5  21
TORSDOF 10
ENDMDL
MODEL 6
REMARK VINA RESULT:      -6.8      6.129      8.776
REMARK  Name = 
REMARK  10 active torsions:
REMARK  status: ('A' for Active; 'I' for Inactive)
REMARK    1  A    between atoms: C_2  and  C_3
REMARK    2  A    between atoms: C_3  and  N_4
REMARK    3  A    between atoms: C_5  and  C_6
REMARK    4  A    between atoms: C_6  and  C_7
REMARK    5  A    between atoms: C_7  and  C_8
REMARK    6  A    between atoms: C_8  and  O_9
REMARK    7  A    between atoms: O_9  and  C_10
REMARK    8  A    between atoms: C_20  and  S_21
REMARK    9  A    between atoms: S_21  and  C_22
REMARK   10  A    between atoms: C_22  and  C_23
REMARK                            x       y       z     vdW  Elec       q    Type
REMARK                         _______ _______ _______ _____ _____    ______ ____
ROOT
ATOM      1  N   UNL     1       5.945   5.946  17.998  0.00  0.00    +0.000 N 
ATOM      2  C   UNL     1       7.169   6.334  18.511  0.00  0.00    +0.000 A 
ATOM      3  N   UNL     1       7.274   5.847  19.735  0.00  0.00    +0.000 NA
ATOM      4  N   UNL     1       6.156   5.095  20.009  0.00  0.00    +0.000 NA
ATOM      5  C   UNL     1       5.398   5.116  18.942  0.00  0.00    +0.000 A 
ENDROOT
BRANCH   1   6
ATOM      6  C   UNL     1       5.293   6.446  16.802  0.00  0.00    +0.000 C 
BRANCH   6   8
ATOM      7  C   UNL     1       6.169   5.403  14.694  0.00  0.00    +0.000 C 
ATOM      8  C   UNL     1       5.273   5.444  15.687  0.00  0.00    +0.000 C 
ENDBRANCH   6   8
ENDBRANCH   1   6
BRANCH   2   9
ATOM      9  C   UNL     1       8.189   7.176  17.792  0.00  0.00    +0.000 C 
BRANCH   9  10
ATOM     10  C   UNL     1       7.851   8.672  17.860  0.00  0.00    +0.000 C 
BRANCH  10  11
ATOM     11  C   UNL     1       8.790   9.494  18.751  0.00  0.00    +0.000 C 
BRANCH  11  12
ATOM     12  O   UNL     1       9.426  10.463  17.908  0.00  0.00    +0.000 OA
BRANCH  12  13
ATOM     13  C   UNL     1       9.246  11.798  18.157  0.00  0.00    +0.000 A 
ATOM     14  C   UNL     1       8.179  12.558  17.670  0.00  0.00    +0.000 A 
ATOM     15  C   UNL     1       8.082  13.921  17.981  0.00  0.00    +0.000 A 
ATOM     16  C   UNL     1       9.050  14.531  18.777  0.00  0.00    +0.000 A 
ATOM     17 CL   UNL     1       8.916  16.204  19.156  0.00  0.00    +0.000 Cl
ATOM     18  C   UNL     1      10.121  13.793  19.268  0.00  0.00    +0.000 A 
ATOM     19  C   UNL     1      10.217  12.433  18.956  0.00  0.00    +0.000 A 
ATOM     20 CL   UNL     1      11.568  11.560  19.594  0.00  0.00    +0.000 Cl
ENDBRANCH  12  13
ENDBRANCH  11  12
ENDBRANCH  10  11
ENDBRANCH   9  10
ENDBRANCH   2   9
BRANCH   5  21
ATOM     21  S   UNL     1       3.934   4.226  18.716  0.00  0.00    +0.000 S 
BRANCH  21  22
ATOM     22  C   UNL     1       2.885   4.897  20.037  0.00  0.00    +0.000 C 
BRANCH  22  23
ATOM     23  C   UNL     1       2.392   6.282  19.655  0.00  0.00    +0.000 C 
ATOM     24  O   UNL     1       2.431   6.656  18.488  0.00  0.00    +0.000 OA
ATOM     25  N   UNL     1       1.969   7.015  20.744  0.00  0.00    +0.000 N 
ATOM     26  C   UNL     1       1.448   8.273  20.602  0.00  0.00    +0.000 A 
ATOM     27  N   UNL     1       1.066   8.895  19.519  0.00  0.00    +0.000 NA
ATOM     28  C   UNL     1       0.640  10.166  19.844  0.00  0.00    +0.000 A 
ATOM     29  C   UNL     1       0.720  10.490  21.182  0.00  0.00    +0.000 A 
ATOM     30  S   UNL     1       1.289   9.135  22.069  0.00  0.00    +0.000 S 
ATOM     31  H   UNL     1       2.159   6.700  21.688  0.00  0.00    +0.000 HD
ENDBRANCH  22  23
ENDBRANCH  21  22
ENDBRANCH   5  21
TORSDOF 10
ENDMDL
MODEL 7
REMARK VINA RESULT:      -6.8      5.846     11.251
REMARK  Name = 
REMARK  10 active torsions:
REMARK  status: ('A' for Active; 'I' for Inactive)
REMARK    1  A    between atoms: C_2  and  C_3
REMARK    2  A    between atoms: C_3  and  N_4
REMARK    3  A    between atoms: C_5  and  C_6
REMARK    4  A    between atoms: C_6  and  C_7
REMARK    5  A    between atoms: C_7  and  C_8
REMARK    6  A    between atoms: C_8  and  O_9
REMARK    7  A    between atoms: O_9  and  C_10
REMARK    8  A    between atoms: C_20  and  S_21
REMARK    9  A    between atoms: S_21  and  C_22
REMARK   10  A    between atoms: C_22  and  C_23
REMARK                            x       y       z     vdW  Elec       q    Type
REMARK                         _______ _______ _______ _____ _____    ______ ____
ROOT
ATOM      1  N   UNL     1       2.536   6.241  19.582  0.00  0.00    +0.000 N 
ATOM      2  C   UNL     1       1.988   7.489  19.811  0.00  0.00    +0.000 A 
ATOM      3  N   UNL     1       2.319   8.273  18.799  0.00  0.00    +0.000 NA
ATOM      4  N   UNL     1       3.029   7.537  17.882  0.00  0.00    +0.000 NA
ATOM      5  C   UNL     1       3.102   6.310  18.335  0.00  0.00    +0.000 A 
ENDROOT
BRANCH   1   6
ATOM      6  C   UNL     1       2.650   5.143  20.525  0.00  0.00    +0.000 C 
BRANCH   6   8
ATOM      7  C   UNL     1       0.942   3.319  20.762  0.00  0.00    +0.000 C 
ATOM      8  C   UNL     1       1.927   3.910  20.073  0.00  0.00    +0.000 C 
ENDBRANCH   6   8
ENDBRANCH   1   6
BRANCH   2   9
ATOM      9  C   UNL     1       1.170   7.876  21.013  0.00  0.00    +0.000 C 
BRANCH   9  10
ATOM     10  C   UNL     1       0.379   9.171  20.778  0.00  0.00    +0.000 C 
BRANCH  10  11
ATOM     11  C   UNL     1       0.889  10.378  21.573  0.00  0.00    +0.000 C 
BRANCH  11  12
ATOM     12  O   UNL     1       0.221  11.535  21.054  0.00  0.00    +0.000 OA
BRANCH  12  13
ATOM     13  C   UNL     1      -1.019  11.871  21.531  0.00  0.00    +0.000 A 
ATOM     14  C   UNL     1      -1.409  11.768  22.869  0.00  0.00    +0.000 A 
ATOM     15  C   UNL     1      -2.702  12.140  23.260  0.00  0.00    +0.000 A 
ATOM     16  C   UNL     1      -3.613  12.614  22.317  0.00  0.00    +0.000 A 
ATOM     17 CL   UNL     1      -5.196  13.071  22.810  0.00  0.00    +0.000 Cl
ATOM     18  C   UNL     1      -3.245  12.720  20.981  0.00  0.00    +0.000 A 
ATOM     19  C   UNL     1      -1.954  12.349  20.592  0.00  0.00    +0.000 A 
ATOM     20 CL   UNL     1      -1.548  12.504  18.917  0.00  0.00    +0.000 Cl
ENDBRANCH  12  13
ENDBRANCH  11  12
ENDBRANCH  10  11
ENDBRANCH   9  10
ENDBRANCH   2   9
BRANCH   5  21
ATOM     21  S   UNL     1       3.782   4.956  17.504  0.00  0.00    +0.000 S 
BRANCH  21  22
ATOM     22  C   UNL     1       5.549   5.143  17.875  0.00  0.00    +0.000 C 
BRANCH  22  23
ATOM     23  C   UNL     1       6.309   5.501  16.609  0.00  0.00    +0.000 C 
ATOM     24  O   UNL     1       6.985   6.522  16.557  0.00  0.00    +0.000 OA
ATOM     25  N   UNL     1       6.104   4.593  15.591  0.00  0.00    +0.000 N 
ATOM     26  C   UNL     1       6.737   4.716  14.384  0.00  0.00    +0.000 A 
ATOM     27  N   UNL     1       7.732   5.491  14.044  0.00  0.00    +0.000 NA
ATOM     28  C   UNL     1       8.022   5.309  12.708  0.00  0.00    +0.000 A 
ATOM     29  C   UNL     1       7.223   4.397  12.050  0.00  0.00    +0.000 A 
ATOM     30  S   UNL     1       6.114   3.699  13.159  0.00  0.00    +0.000 S 
ATOM     31  H   UNL     1       5.377   3.891  15.660  0.00  0.00    +0.000 HD
ENDBRANCH  22  23
ENDBRANCH  21  22
ENDBRANCH   5  21
TORSDOF 10
ENDMDL
MODEL 8
REMARK VINA RESULT:      -6.6      4.057      6.371
REMARK  Name = 
REMARK  10 active torsions:
REMARK  status: ('A' for Active; 'I' for Inactive)
REMARK    1  A    between atoms: C_2  and  C_3
REMARK    2  A    between atoms: C_3  and  N_4
REMARK    3  A    between atoms: C_5  and  C_6
REMARK    4  A    between atoms: C_6  and  C_7
REMARK    5  A    between atoms: C_7  and  C_8
REMARK    6  A    between atoms: C_8  and  O_9
REMARK    7  A    between atoms: O_9  and  C_10
REMARK    8  A    between atoms: C_20  and  S_21
REMARK    9  A    between atoms: S_21  and  C_22
REMARK   10  A    between atoms: C_22  and  C_23
REMARK                            x       y       z     vdW  Elec       q    Type
REMARK                         _______ _______ _______ _____ _____    ______ ____
ROOT
ATOM      1  N   UNL     1       0.381  10.728  19.784  0.00  0.00    +0.000 N 
ATOM      2  C   UNL     1       0.597   9.970  20.920  0.00  0.00    +0.000 A 
ATOM      3  N   UNL     1       1.151  10.748  21.833  0.00  0.00    +0.000 NA
ATOM      4  N   UNL     1       1.247  12.023  21.329  0.00  0.00    +0.000 NA
ATOM      5  C   UNL     1       0.731  12.009  20.126  0.00  0.00    +0.000 A 
ENDROOT
BRANCH   1   6
ATOM      6  C   UNL     1       0.031  10.250  18.460  0.00  0.00    +0.000 C 
BRANCH   6   8
ATOM      7  C   UNL     1      -2.014   9.941  17.037  0.00  0.00    +0.000 C 
ATOM      8  C   UNL     1      -1.435  10.368  18.166  0.00  0.00    +0.000 C 
ENDBRANCH   6   8
ENDBRANCH   1   6
BRANCH   2   9
ATOM      9  C   UNL     1       0.266   8.510  21.070  0.00  0.00    +0.000 C 
BRANCH   9  10
ATOM     10  C   UNL     1       1.518   7.624  20.989  0.00  0.00    +0.000 C 
BRANCH  10  11
ATOM     11  C   UNL     1       2.165   7.566  19.601  0.00  0.00    +0.000 C 
BRANCH  11  12
ATOM     12  O   UNL     1       2.242   6.184  19.231  0.00  0.00    +0.000 OA
BRANCH  12  13
ATOM     13  C   UNL     1       3.127   5.792  18.262  0.00  0.00    +0.000 A 
ATOM     14  C   UNL     1       4.046   6.639  17.636  0.00  0.00    +0.000 A 
ATOM     15  C   UNL     1       4.913   6.141  16.655  0.00  0.00    +0.000 A 
ATOM     16  C   UNL     1       4.866   4.796  16.292  0.00  0.00    +0.000 A 
ATOM     17 CL   UNL     1       5.939   4.196  15.088  0.00  0.00    +0.000 Cl
ATOM     18  C   UNL     1       3.956   3.938  16.899  0.00  0.00    +0.000 A 
ATOM     19  C   UNL     1       3.091   4.437  17.879  0.00  0.00    +0.000 A 
ATOM     20 CL   UNL     1       1.981   3.326  18.605  0.00  0.00    +0.000 Cl
ENDBRANCH  12  13
ENDBRANCH  11  12
ENDBRANCH  10  11
ENDBRANCH   9  10
ENDBRANCH   2   9
BRANCH   5  21
ATOM     21  S   UNL     1       0.491  13.382  19.104  0.00  0.00    +0.000 S 
BRANCH  21  22
ATOM     22  C   UNL     1       1.746  14.534  19.732  0.00  0.00    +0.000 C 
BRANCH  22  23
ATOM     23  C   UNL     1       3.065  14.307  19.013  0.00  0.00    +0.000 C 
ATOM     24  O   UNL     1       3.163  13.438  18.154  0.00  0.00    +0.000 OA
ATOM     25  N   UNL     1       4.070  15.135  19.470  0.00  0.00    +0.000 N 
ATOM     26  C   UNL     1       5.321  15.113  18.917  0.00  0.00    +0.000 A 
ATOM     27  N   UNL     1       5.733  14.542  17.816  0.00  0.00    +0.000 NA
ATOM     28  C   UNL     1       7.088  14.749  17.669  0.00  0.00    +0.000 A 
ATOM     29  C   UNL     1       7.687  15.472  18.680  0.00  0.00    +0.000 A 
ATOM     30  S   UNL     1       6.500  15.961  19.819  0.00  0.00    +0.000 S 
ATOM     31  H   UNL     1       3.948  15.680  20.314  0.00  0.00    +0.000 HD
ENDBRANCH  22  23
ENDBRANCH  21  22
ENDBRANCH   5  21
TORSDOF 10
ENDMDL
MODEL 9
REMARK VINA RESULT:      -6.6      6.620     10.312
REMARK  Name = 
REMARK  10 active torsions:
REMARK  status: ('A' for Active; 'I' for Inactive)
REMARK    1  A    between atoms: C_2  and  C_3
REMARK    2  A    between atoms: C_3  and  N_4
REMARK    3  A    between atoms: C_5  and  C_6
REMARK    4  A    between atoms: C_6  and  C_7
REMARK    5  A    between atoms: C_7  and  C_8
REMARK    6  A    between atoms: C_8  and  O_9
REMARK    7  A    between atoms: O_9  and  C_10
REMARK    8  A    between atoms: C_20  and  S_21
REMARK    9  A    between atoms: S_21  and  C_22
REMARK   10  A    between atoms: C_22  and  C_23
REMARK                            x       y       z     vdW  Elec       q    Type
REMARK                         _______ _______ _______ _____ _____    ______ ____
ROOT
ATOM      1  N   UNL     1       4.945   5.172  17.522  0.00  0.00    +0.000 N 
ATOM      2  C   UNL     1       3.817   4.824  18.240  0.00  0.00    +0.000 A 
ATOM      3  N   UNL     1       4.195   4.070  19.257  0.00  0.00    +0.000 NA
ATOM      4  N   UNL     1       5.565   3.967  19.247  0.00  0.00    +0.000 NA
ATOM      5  C   UNL     1       6.005   4.677  18.239  0.00  0.00    +0.000 A 
ENDROOT
BRANCH   1   6
ATOM      6  C   UNL     1       4.999   5.773  16.202  0.00  0.00    +0.000 C 
BRANCH   6   8
ATOM      7  C   UNL     1       6.008   4.051  14.681  0.00  0.00    +0.000 C 
ATOM      8  C   UNL     1       4.952   4.761  15.097  0.00  0.00    +0.000 C 
ENDBRANCH   6   8
ENDBRANCH   1   6
BRANCH   2   9
ATOM      9  C   UNL     1       2.408   5.232  17.902  0.00  0.00    +0.000 C 
BRANCH   9  10
ATOM     10  C   UNL     1       2.210   6.751  17.997  0.00  0.00    +0.000 C 
BRANCH  10  11
ATOM     11  C   UNL     1       2.628   7.362  19.338  0.00  0.00    +0.000 C 
BRANCH  11  12
ATOM     12  O   UNL     1       1.443   7.891  19.947  0.00  0.00    +0.000 OA
BRANCH  12  13
ATOM     13  C   UNL     1       1.131   9.215  19.785  0.00  0.00    +0.000 A 
ATOM     14  C   UNL     1       1.519   9.993  18.690  0.00  0.00    +0.000 A 
ATOM     15  C   UNL     1       1.149  11.342  18.614  0.00  0.00    +0.000 A 
ATOM     16  C   UNL     1       0.392  11.921  19.632  0.00  0.00    +0.000 A 
ATOM     17 CL   UNL     1      -0.060  13.578  19.525  0.00  0.00    +0.000 Cl
ATOM     18  C   UNL     1      -0.000  11.166  20.730  0.00  0.00    +0.000 A 
ATOM     19  C   UNL     1       0.370   9.819  20.804  0.00  0.00    +0.000 A 
ATOM     20 CL   UNL     1      -0.147   8.923  22.192  0.00  0.00    +0.000 Cl
ENDBRANCH  12  13
ENDBRANCH  11  12
ENDBRANCH  10  11
ENDBRANCH   9  10
ENDBRANCH   2   9
BRANCH   5  21
ATOM     21  S   UNL     1       7.661   4.983  17.854  0.00  0.00    +0.000 S 
BRANCH  21  22
ATOM     22  C   UNL     1       8.095   6.258  19.071  0.00  0.00    +0.000 C 
BRANCH  22  23
ATOM     23  C   UNL     1       8.169   7.616  18.395  0.00  0.00    +0.000 C 
ATOM     24  O   UNL     1       7.761   7.764  17.249  0.00  0.00    +0.000 OA
ATOM     25  N   UNL     1       8.763   8.575  19.190  0.00  0.00    +0.000 N 
ATOM     26  C   UNL     1       8.883   9.874  18.777  0.00  0.00    +0.000 A 
ATOM     27  N   UNL     1       8.326  10.476  17.760  0.00  0.00    +0.000 NA
ATOM     28  C   UNL     1       8.765  11.782  17.703  0.00  0.00    +0.000 A 
ATOM     29  C   UNL     1       9.665  12.146  18.682  0.00  0.00    +0.000 A 
ATOM     30  S   UNL     1       9.922  10.824  19.746  0.00  0.00    +0.000 S 
ATOM     31  H   UNL     1       9.247   8.315  20.041  0.00  0.00    +0.000 HD
ENDBRANCH  22  23
ENDBRANCH  21  22
ENDBRANCH   5  21
TORSDOF 10
ENDMDL
