MODEL 1
REMARK VINA RESULT:      -8.6      0.000      0.000
REMARK  Name = 
REMARK  5 active torsions:
REMARK  status: ('A' for Active; 'I' for Inactive)
REMARK    1  A    between atoms: C_1  and  C_2
REMARK    2  A    between atoms: C_2  and  C_3
REMARK    3  A    between atoms: N_6  and  C_7
REMARK    4  A    between atoms: C_7  and  C_8
REMARK    5  A    between atoms: C_21  and  C_22
REMARK                            x       y       z     vdW  Elec       q    Type
REMARK                         _______ _______ _______ _____ _____    ______ ____
ROOT
ATOM      1  C   UNL     1       3.598   2.707  20.229  0.00  0.00    +0.000 C 
ATOM      2  C   UNL     1       2.955   3.761  19.305  0.00  0.00    +0.000 C 
ATOM      3  C   UNL     1       1.700   3.114  18.683  0.00  0.00    +0.000 C 
ATOM      4  N   UNL     1       2.479   4.850  20.203  0.00  0.00    +0.000 NA
ATOM      5  C   UNL     1       2.606   6.007  19.655  0.00  0.00    +0.000 C 
ATOM      6  N   UNL     1       2.280   7.212  20.184  0.00  0.00    +0.000 N 
ATOM      7  S   UNL     1       3.291   6.073  18.063  0.00  0.00    +0.000 S 
ATOM      8  C   UNL     1       3.960   4.371  18.255  0.00  0.00    +0.000 C 
ATOM      9  C   UNL     1       3.977   3.673  16.878  0.00  0.00    +0.000 C 
ATOM     10  C   UNL     1       4.956   4.306  15.878  0.00  0.00    +0.000 C 
ATOM     11  C   UNL     1       6.380   4.406  16.439  0.00  0.00    +0.000 C 
ATOM     12  C   UNL     1       7.293   5.147  15.463  0.00  0.00    +0.000 C 
ATOM     13  C   UNL     1       6.402   5.098  17.806  0.00  0.00    +0.000 C 
ATOM     14  C   UNL     1       5.411   4.468  18.786  0.00  0.00    +0.000 C 
ATOM     15  H   UNL     1       2.346   7.989  19.536  0.00  0.00    +0.000 HD
ENDROOT
BRANCH   6  16
ATOM     16  C   UNL     1       1.271   7.350  21.204  0.00  0.00    +0.000 C 
BRANCH  16  17
ATOM     17  C   UNL     1       0.707   8.751  21.194  0.00  0.00    +0.000 A 
ATOM     18  C   UNL     1       0.826   9.555  20.033  0.00  0.00    +0.000 A 
ATOM     19  C   UNL     1       0.363  10.875  20.016  0.00  0.00    +0.000 A 
ATOM     20  C   UNL     1      -0.207  11.367  21.168  0.00  0.00    +0.000 A 
ATOM     21  C   UNL     1      -0.332  10.596  22.299  0.00  0.00    +0.000 A 
ATOM     22  C   UNL     1       0.110   9.289  22.345  0.00  0.00    +0.000 A 
ATOM     23  O   UNL     1      -0.911  11.272  23.327  0.00  0.00    +0.000 OA
ATOM     24  C   UNL     1      -1.110  12.567  22.721  0.00  0.00    +0.000 C 
ATOM     25  O   UNL     1      -0.693  12.625  21.342  0.00  0.00    +0.000 OA
ENDBRANCH  16  17
ENDBRANCH   6  16
TORSDOF 2
ENDMDL
MODEL 2
REMARK VINA RESULT:      -8.5      0.749      1.498
REMARK  Name = 
REMARK  5 active torsions:
REMARK  status: ('A' for Active; 'I' for Inactive)
REMARK    1  A    between atoms: C_1  and  C_2
REMARK    2  A    between atoms: C_2  and  C_3
REMARK    3  A    between atoms: N_6  and  C_7
REMARK    4  A    between atoms: C_7  and  C_8
REMARK    5  A    between atoms: C_21  and  C_22
REMARK                            x       y       z     vdW  Elec       q    Type
REMARK                         _______ _______ _______ _____ _____    ______ ____
ROOT
ATOM      1  C   UNL     1       3.192   2.739  20.471  0.00  0.00    +0.000 C 
ATOM      2  C   UNL     1       2.619   3.817  19.530  0.00  0.00    +0.000 C 
ATOM      3  C   UNL     1       1.357   3.222  18.873  0.00  0.00    +0.000 C 
ATOM      4  N   UNL     1       2.163   4.926  20.414  0.00  0.00    +0.000 NA
ATOM      5  C   UNL     1       2.352   6.076  19.871  0.00  0.00    +0.000 C 
ATOM      6  N   UNL     1       2.061   7.294  20.391  0.00  0.00    +0.000 N 
ATOM      7  S   UNL     1       3.084   6.113  18.299  0.00  0.00    +0.000 S 
ATOM      8  C   UNL     1       3.676   4.385  18.508  0.00  0.00    +0.000 C 
ATOM      9  C   UNL     1       3.704   3.686  17.132  0.00  0.00    +0.000 C 
ATOM     10  C   UNL     1       4.735   4.278  16.160  0.00  0.00    +0.000 C 
ATOM     11  C   UNL     1       6.145   4.320  16.760  0.00  0.00    +0.000 C 
ATOM     12  C   UNL     1       7.115   5.022  15.810  0.00  0.00    +0.000 C 
ATOM     13  C   UNL     1       6.158   5.011  18.128  0.00  0.00    +0.000 C 
ATOM     14  C   UNL     1       5.115   4.423  19.080  0.00  0.00    +0.000 C 
ATOM     15  H   UNL     1       2.177   8.067  19.745  0.00  0.00    +0.000 HD
ENDROOT
BRANCH   6  16
ATOM     16  C   UNL     1       1.030   7.474  21.382  0.00  0.00    +0.000 C 
BRANCH  16  17
ATOM     17  C   UNL     1       0.538   8.902  21.370  0.00  0.00    +0.000 A 
ATOM     18  C   UNL     1      -0.036   9.464  22.537  0.00  0.00    +0.000 A 
ATOM     19  C   UNL     1      -0.550  10.765  22.535  0.00  0.00    +0.000 A 
ATOM     20  C   UNL     1      -0.482  11.478  21.360  0.00  0.00    +0.000 A 
ATOM     21  C   UNL     1       0.077  10.945  20.223  0.00  0.00    +0.000 A 
ATOM     22  C   UNL     1       0.597   9.668  20.194  0.00  0.00    +0.000 A 
ATOM     23  O   UNL     1       0.035  11.807  19.171  0.00  0.00    +0.000 OA
ATOM     24  C   UNL     1      -0.641  12.933  19.770  0.00  0.00    +0.000 C 
ATOM     25  O   UNL     1      -0.945  12.743  21.167  0.00  0.00    +0.000 OA
ENDBRANCH  16  17
ENDBRANCH   6  16
TORSDOF 2
ENDMDL
MODEL 3
REMARK VINA RESULT:      -8.0      1.066      1.157
REMARK  Name = 
REMARK  5 active torsions:
REMARK  status: ('A' for Active; 'I' for Inactive)
REMARK    1  A    between atoms: C_1  and  C_2
REMARK    2  A    between atoms: C_2  and  C_3
REMARK    3  A    between atoms: N_6  and  C_7
REMARK    4  A    between atoms: C_7  and  C_8
REMARK    5  A    between atoms: C_21  and  C_22
REMARK                            x       y       z     vdW  Elec       q    Type
REMARK                         _______ _______ _______ _____ _____    ______ ____
ROOT
ATOM      1  C   UNL     1       2.902   3.195  20.933  0.00  0.00    +0.000 C 
ATOM      2  C   UNL     1       2.395   4.187  19.868  0.00  0.00    +0.000 C 
ATOM      3  C   UNL     1       1.102   3.592  19.273  0.00  0.00    +0.000 C 
ATOM      4  N   UNL     1       2.001   5.416  20.612  0.00  0.00    +0.000 NA
ATOM      5  C   UNL     1       2.258   6.482  19.940  0.00  0.00    +0.000 C 
ATOM      6  N   UNL     1       2.036   7.766  20.311  0.00  0.00    +0.000 N 
ATOM      7  S   UNL     1       2.995   6.292  18.381  0.00  0.00    +0.000 S 
ATOM      8  C   UNL     1       3.486   4.570  18.797  0.00  0.00    +0.000 C 
ATOM      9  C   UNL     1       3.477   3.714  17.512  0.00  0.00    +0.000 C 
ATOM     10  C   UNL     1       4.544   4.128  16.487  0.00  0.00    +0.000 C 
ATOM     11  C   UNL     1       5.952   4.160  17.092  0.00  0.00    +0.000 C 
ATOM     12  C   UNL     1       6.964   4.689  16.076  0.00  0.00    +0.000 C 
ATOM     13  C   UNL     1       6.001   5.004  18.370  0.00  0.00    +0.000 C 
ATOM     14  C   UNL     1       4.923   4.592  19.374  0.00  0.00    +0.000 C 
ATOM     15  H   UNL     1       2.199   8.451  19.581  0.00  0.00    +0.000 HD
ENDROOT
BRANCH   6  16
ATOM     16  C   UNL     1       1.015   8.120  21.265  0.00  0.00    +0.000 C 
BRANCH  16  17
ATOM     17  C   UNL     1       0.413   9.460  20.912  0.00  0.00    +0.000 A 
ATOM     18  C   UNL     1      -0.290   9.621  19.692  0.00  0.00    +0.000 A 
ATOM     19  C   UNL     1      -0.809  10.865  19.316  0.00  0.00    +0.000 A 
ATOM     20  C   UNL     1      -0.608  11.926  20.169  0.00  0.00    +0.000 A 
ATOM     21  C   UNL     1       0.069  11.780  21.357  0.00  0.00    +0.000 A 
ATOM     22  C   UNL     1       0.587  10.567  21.759  0.00  0.00    +0.000 A 
ATOM     23  O   UNL     1       0.167  12.950  22.045  0.00  0.00    +0.000 OA
ATOM     24  C   UNL     1      -0.501  13.854  21.140  0.00  0.00    +0.000 C 
ATOM     25  O   UNL     1      -1.021  13.205  19.961  0.00  0.00    +0.000 OA
ENDBRANCH  16  17
ENDBRANCH   6  16
TORSDOF 2
ENDMDL
MODEL 4
REMARK VINA RESULT:      -7.6      2.036      2.651
REMARK  Name = 
REMARK  5 active torsions:
REMARK  status: ('A' for Active; 'I' for Inactive)
REMARK    1  A    between atoms: C_1  and  C_2
REMARK    2  A    between atoms: C_2  and  C_3
REMARK    3  A    between atoms: N_6  and  C_7
REMARK    4  A    between atoms: C_7  and  C_8
REMARK    5  A    between atoms: C_21  and  C_22
REMARK                            x       y       z     vdW  Elec       q    Type
REMARK                         _______ _______ _______ _____ _____    ______ ____
ROOT
ATOM      1  C   UNL     1       2.901   3.908  21.146  0.00  0.00    +0.000 C 
ATOM      2  C   UNL     1       2.377   4.733  19.954  0.00  0.00    +0.000 C 
ATOM      3  C   UNL     1       1.085   4.048  19.462  0.00  0.00    +0.000 C 
ATOM      4  N   UNL     1       1.978   6.053  20.518  0.00  0.00    +0.000 NA
ATOM      5  C   UNL     1       2.221   7.013  19.698  0.00  0.00    +0.000 C 
ATOM      6  N   UNL     1       1.991   8.336  19.883  0.00  0.00    +0.000 N 
ATOM      7  S   UNL     1       2.947   6.607  18.176  0.00  0.00    +0.000 S 
ATOM      8  C   UNL     1       3.456   4.966  18.830  0.00  0.00    +0.000 C 
ATOM      9  C   UNL     1       3.445   3.935  17.681  0.00  0.00    +0.000 C 
ATOM     10  C   UNL     1       4.500   4.206  16.598  0.00  0.00    +0.000 C 
ATOM     11  C   UNL     1       5.913   4.335  17.180  0.00  0.00    +0.000 C 
ATOM     12  C   UNL     1       6.912   4.720  16.089  0.00  0.00    +0.000 C 
ATOM     13  C   UNL     1       5.964   5.354  18.322  0.00  0.00    +0.000 C 
ATOM     14  C   UNL     1       4.898   5.082  19.385  0.00  0.00    +0.000 C 
ATOM     15  H   UNL     1       2.141   8.910  19.060  0.00  0.00    +0.000 HD
ENDROOT
BRANCH   6  16
ATOM     16  C   UNL     1       0.973   8.815  20.785  0.00  0.00    +0.000 C 
BRANCH  16  17
ATOM     17  C   UNL     1       0.014   9.725  20.054  0.00  0.00    +0.000 A 
ATOM     18  C   UNL     1      -0.564  10.831  20.725  0.00  0.00    +0.000 A 
ATOM     19  C   UNL     1      -1.497  11.656  20.088  0.00  0.00    +0.000 A 
ATOM     20  C   UNL     1      -1.838  11.352  18.790  0.00  0.00    +0.000 A 
ATOM     21  C   UNL     1      -1.281  10.284  18.127  0.00  0.00    +0.000 A 
ATOM     22  C   UNL     1      -0.354   9.455  18.726  0.00  0.00    +0.000 A 
ATOM     23  O   UNL     1      -1.760  10.151  16.861  0.00  0.00    +0.000 OA
ATOM     24  C   UNL     1      -2.703  11.242  16.813  0.00  0.00    +0.000 C 
ATOM     25  O   UNL     1      -2.736  12.027  18.023  0.00  0.00    +0.000 OA
ENDBRANCH  16  17
ENDBRANCH   6  16
TORSDOF 2
ENDMDL
MODEL 5
REMARK VINA RESULT:      -7.2      7.196      9.867
REMARK  Name = 
REMARK  5 active torsions:
REMARK  status: ('A' for Active; 'I' for Inactive)
REMARK    1  A    between atoms: C_1  and  C_2
REMARK    2  A    between atoms: C_2  and  C_3
REMARK    3  A    between atoms: N_6  and  C_7
REMARK    4  A    between atoms: C_7  and  C_8
REMARK    5  A    between atoms: C_21  and  C_22
REMARK                            x       y       z     vdW  Elec       q    Type
REMARK                         _______ _______ _______ _____ _____    ______ ____
ROOT
ATOM      1  C   UNL     1      11.475  11.837  20.159  0.00  0.00    +0.000 C 
ATOM      2  C   UNL     1      10.680  11.811  18.839  0.00  0.00    +0.000 C 
ATOM      3  C   UNL     1      11.707  11.861  17.690  0.00  0.00    +0.000 C 
ATOM      4  N   UNL     1      10.032  10.471  18.782  0.00  0.00    +0.000 NA
ATOM      5  C   UNL     1       8.869  10.528  18.237  0.00  0.00    +0.000 C 
ATOM      6  N   UNL     1       8.003   9.506  18.028  0.00  0.00    +0.000 N 
ATOM      7  S   UNL     1       8.299  12.081  17.717  0.00  0.00    +0.000 S 
ATOM      8  C   UNL     1       9.562  12.919  18.758  0.00  0.00    +0.000 C 
ATOM      9  C   UNL     1       9.988  14.238  18.078  0.00  0.00    +0.000 C 
ATOM     10  C   UNL     1       8.867  15.285  18.004  0.00  0.00    +0.000 C 
ATOM     11  C   UNL     1       8.248  15.574  19.377  0.00  0.00    +0.000 C 
ATOM     12  C   UNL     1       7.062  16.529  19.243  0.00  0.00    +0.000 C 
ATOM     13  C   UNL     1       7.809  14.287  20.082  0.00  0.00    +0.000 C 
ATOM     14  C   UNL     1       8.929  13.247  20.134  0.00  0.00    +0.000 C 
ATOM     15  H   UNL     1       7.191   9.748  17.471  0.00  0.00    +0.000 HD
ENDROOT
BRANCH   6  16
ATOM     16  C   UNL     1       8.450   8.142  17.897  0.00  0.00    +0.000 C 
BRANCH  16  17
ATOM     17  C   UNL     1       7.266   7.204  17.883  0.00  0.00    +0.000 A 
ATOM     18  C   UNL     1       6.104   7.541  17.145  0.00  0.00    +0.000 A 
ATOM     19  C   UNL     1       4.974   6.716  17.161  0.00  0.00    +0.000 A 
ATOM     20  C   UNL     1       5.028   5.571  17.921  0.00  0.00    +0.000 A 
ATOM     21  C   UNL     1       6.151   5.232  18.638  0.00  0.00    +0.000 A 
ATOM     22  C   UNL     1       7.283   6.020  18.639  0.00  0.00    +0.000 A 
ATOM     23  O   UNL     1       5.995   4.070  19.329  0.00  0.00    +0.000 OA
ATOM     24  C   UNL     1       4.634   3.733  18.988  0.00  0.00    +0.000 C 
ATOM     25  O   UNL     1       4.025   4.665  18.071  0.00  0.00    +0.000 OA
ENDBRANCH  16  17
ENDBRANCH   6  16
TORSDOF 2
ENDMDL
MODEL 6
REMARK VINA RESULT:      -7.2      5.482      7.297
REMARK  Name = 
REMARK  5 active torsions:
REMARK  status: ('A' for Active; 'I' for Inactive)
REMARK    1  A    between atoms: C_1  and  C_2
REMARK    2  A    between atoms: C_2  and  C_3
REMARK    3  A    between atoms: N_6  and  C_7
REMARK    4  A    between atoms: C_7  and  C_8
REMARK    5  A    between atoms: C_21  and  C_22
REMARK                            x       y       z     vdW  Elec       q    Type
REMARK                         _______ _______ _______ _____ _____    ______ ____
ROOT
ATOM      1  C   UNL     1       5.199   5.664  15.046  0.00  0.00    +0.000 C 
ATOM      2  C   UNL     1       6.098   5.490  16.286  0.00  0.00    +0.000 C 
ATOM      3  C   UNL     1       7.184   4.458  15.918  0.00  0.00    +0.000 C 
ATOM      4  N   UNL     1       6.790   6.797  16.471  0.00  0.00    +0.000 NA
ATOM      5  C   UNL     1       6.954   7.075  17.716  0.00  0.00    +0.000 C 
ATOM      6  N   UNL     1       7.538   8.178  18.246  0.00  0.00    +0.000 N 
ATOM      7  S   UNL     1       6.351   5.941  18.881  0.00  0.00    +0.000 S 
ATOM      8  C   UNL     1       5.296   5.149  17.599  0.00  0.00    +0.000 C 
ATOM      9  C   UNL     1       5.156   3.645  17.914  0.00  0.00    +0.000 C 
ATOM     10  C   UNL     1       4.383   3.355  19.209  0.00  0.00    +0.000 C 
ATOM     11  C   UNL     1       3.007   4.031  19.230  0.00  0.00    +0.000 C 
ATOM     12  C   UNL     1       2.321   3.816  20.580  0.00  0.00    +0.000 C 
ATOM     13  C   UNL     1       3.107   5.529  18.925  0.00  0.00    +0.000 C 
ATOM     14  C   UNL     1       3.893   5.804  17.642  0.00  0.00    +0.000 C 
ATOM     15  H   UNL     1       7.675   8.141  19.250  0.00  0.00    +0.000 HD
ENDROOT
BRANCH   6  16
ATOM     16  C   UNL     1       8.521   8.944  17.521  0.00  0.00    +0.000 C 
BRANCH  16  17
ATOM     17  C   UNL     1       8.878  10.195  18.290  0.00  0.00    +0.000 A 
ATOM     18  C   UNL     1       9.330  10.099  19.629  0.00  0.00    +0.000 A 
ATOM     19  C   UNL     1       9.613  11.245  20.380  0.00  0.00    +0.000 A 
ATOM     20  C   UNL     1       9.432  12.467  19.775  0.00  0.00    +0.000 A 
ATOM     21  C   UNL     1       8.997  12.572  18.475  0.00  0.00    +0.000 A 
ATOM     22  C   UNL     1       8.715  11.462  17.707  0.00  0.00    +0.000 A 
ATOM     23  O   UNL     1       8.873  13.866  18.072  0.00  0.00    +0.000 OA
ATOM     24  C   UNL     1       9.253  14.562  19.278  0.00  0.00    +0.000 C 
ATOM     25  O   UNL     1       9.637  13.681  20.353  0.00  0.00    +0.000 OA
ENDBRANCH  16  17
ENDBRANCH   6  16
TORSDOF 2
ENDMDL
MODEL 7
REMARK VINA RESULT:      -7.1      3.847      9.308
REMARK  Name = 
REMARK  5 active torsions:
REMARK  status: ('A' for Active; 'I' for Inactive)
REMARK    1  A    between atoms: C_1  and  C_2
REMARK    2  A    between atoms: C_2  and  C_3
REMARK    3  A    between atoms: N_6  and  C_7
REMARK    4  A    between atoms: C_7  and  C_8
REMARK    5  A    between atoms: C_21  and  C_22
REMARK                            x       y       z     vdW  Elec       q    Type
REMARK                         _______ _______ _______ _____ _____    ______ ____
ROOT
ATOM      1  C   UNL     1       1.938  13.656  20.610  0.00  0.00    +0.000 C 
ATOM      2  C   UNL     1       0.857  12.962  19.758  0.00  0.00    +0.000 C 
ATOM      3  C   UNL     1       0.596  13.862  18.533  0.00  0.00    +0.000 C 
ATOM      4  N   UNL     1       1.483  11.710  19.249  0.00  0.00    +0.000 NA
ATOM      5  C   UNL     1       0.635  10.746  19.183  0.00  0.00    +0.000 C 
ATOM      6  N   UNL     1       0.860   9.474  18.772  0.00  0.00    +0.000 N 
ATOM      7  S   UNL     1      -0.990  11.068  19.694  0.00  0.00    +0.000 S 
ATOM      8  C   UNL     1      -0.438  12.585  20.574  0.00  0.00    +0.000 C 
ATOM      9  C   UNL     1      -1.569  13.635  20.537  0.00  0.00    +0.000 C 
ATOM     10  C   UNL     1      -2.819  13.224  21.330  0.00  0.00    +0.000 C 
ATOM     11  C   UNL     1      -2.492  12.850  22.780  0.00  0.00    +0.000 C 
ATOM     12  C   UNL     1      -3.739  12.335  23.499  0.00  0.00    +0.000 C 
ATOM     13  C   UNL     1      -1.374  11.805  22.857  0.00  0.00    +0.000 C 
ATOM     14  C   UNL     1      -0.142  12.219  22.050  0.00  0.00    +0.000 C 
ATOM     15  H   UNL     1       0.025   8.906  18.681  0.00  0.00    +0.000 HD
ENDROOT
BRANCH   6  16
ATOM     16  C   UNL     1       1.927   9.144  17.859  0.00  0.00    +0.000 C 
BRANCH  16  17
ATOM     17  C   UNL     1       2.583   7.847  18.271  0.00  0.00    +0.000 A 
ATOM     18  C   UNL     1       2.180   7.197  19.464  0.00  0.00    +0.000 A 
ATOM     19  C   UNL     1       2.810   6.025  19.897  0.00  0.00    +0.000 A 
ATOM     20  C   UNL     1       3.837   5.529  19.127  0.00  0.00    +0.000 A 
ATOM     21  C   UNL     1       4.234   6.150  17.965  0.00  0.00    +0.000 A 
ATOM     22  C   UNL     1       3.629   7.303  17.509  0.00  0.00    +0.000 A 
ATOM     23  O   UNL     1       5.270   5.507  17.362  0.00  0.00    +0.000 OA
ATOM     24  C   UNL     1       5.498   4.427  18.292  0.00  0.00    +0.000 C 
ATOM     25  O   UNL     1       4.573   4.418  19.399  0.00  0.00    +0.000 OA
ENDBRANCH  16  17
ENDBRANCH   6  16
TORSDOF 2
ENDMDL
MODEL 8
REMARK VINA RESULT:      -7.1      2.620      4.071
REMARK  Name = 
REMARK  5 active torsions:
REMARK  status: ('A' for Active; 'I' for Inactive)
REMARK    1  A    between atoms: C_1  and  C_2
REMARK    2  A    between atoms: C_2  and  C_3
REMARK    3  A    between atoms: N_6  and  C_7
REMARK    4  A    between atoms: C_7  and  C_8
REMARK    5  A    between atoms: C_21  and  C_22
REMARK                            x       y       z     vdW  Elec       q    Type
REMARK                         _______ _______ _______ _____ _____    ______ ____
ROOT
ATOM      1  C   UNL     1       5.209   5.952  15.691  0.00  0.00    +0.000 C 
ATOM      2  C   UNL     1       4.876   6.260  17.165  0.00  0.00    +0.000 C 
ATOM      3  C   UNL     1       6.175   6.758  17.829  0.00  0.00    +0.000 C 
ATOM      4  N   UNL     1       3.935   7.414  17.136  0.00  0.00    +0.000 NA
ATOM      5  C   UNL     1       3.054   7.334  18.068  0.00  0.00    +0.000 C 
ATOM      6  N   UNL     1       2.048   8.203  18.332  0.00  0.00    +0.000 N 
ATOM      7  S   UNL     1       3.115   5.953  19.116  0.00  0.00    +0.000 S 
ATOM      8  C   UNL     1       4.182   5.059  17.915  0.00  0.00    +0.000 C 
ATOM      9  C   UNL     1       5.138   4.122  18.683  0.00  0.00    +0.000 C 
ATOM     10  C   UNL     1       4.423   2.975  19.413  0.00  0.00    +0.000 C 
ATOM     11  C   UNL     1       3.521   2.161  18.478  0.00  0.00    +0.000 C 
ATOM     12  C   UNL     1       2.739   1.108  19.263  0.00  0.00    +0.000 C 
ATOM     13  C   UNL     1       2.554   3.059  17.699  0.00  0.00    +0.000 C 
ATOM     14  C   UNL     1       3.277   4.206  16.991  0.00  0.00    +0.000 C 
ATOM     15  H   UNL     1       1.541   8.014  19.190  0.00  0.00    +0.000 HD
ENDROOT
BRANCH   6  16
ATOM     16  C   UNL     1       2.123   9.593  17.959  0.00  0.00    +0.000 C 
BRANCH  16  17
ATOM     17  C   UNL     1       0.777  10.256  18.141  0.00  0.00    +0.000 A 
ATOM     18  C   UNL     1       0.679  11.477  18.852  0.00  0.00    +0.000 A 
ATOM     19  C   UNL     1      -0.561  12.082  19.082  0.00  0.00    +0.000 A 
ATOM     20  C   UNL     1      -1.682  11.447  18.599  0.00  0.00    +0.000 A 
ATOM     21  C   UNL     1      -1.599  10.263  17.904  0.00  0.00    +0.000 A 
ATOM     22  C   UNL     1      -0.391   9.645  17.656  0.00  0.00    +0.000 A 
ATOM     23  O   UNL     1      -2.820   9.797  17.525  0.00  0.00    +0.000 OA
ATOM     24  C   UNL     1      -3.682  10.809  18.086  0.00  0.00    +0.000 C 
ATOM     25  O   UNL     1      -2.965  11.874  18.743  0.00  0.00    +0.000 OA
ENDBRANCH  16  17
ENDBRANCH   6  16
TORSDOF 2
ENDMDL
MODEL 9
REMARK VINA RESULT:      -7.1      1.744      3.383
REMARK  Name = 
REMARK  5 active torsions:
REMARK  status: ('A' for Active; 'I' for Inactive)
REMARK    1  A    between atoms: C_1  and  C_2
REMARK    2  A    between atoms: C_2  and  C_3
REMARK    3  A    between atoms: N_6  and  C_7
REMARK    4  A    between atoms: C_7  and  C_8
REMARK    5  A    between atoms: C_21  and  C_22
REMARK                            x       y       z     vdW  Elec       q    Type
REMARK                         _______ _______ _______ _____ _____    ______ ____
ROOT
ATOM      1  C   UNL     1       5.236   6.065  15.649  0.00  0.00    +0.000 C 
ATOM      2  C   UNL     1       4.882   6.368  17.118  0.00  0.00    +0.000 C 
ATOM      3  C   UNL     1       6.156   6.924  17.787  0.00  0.00    +0.000 C 
ATOM      4  N   UNL     1       3.896   7.484  17.076  0.00  0.00    +0.000 NA
ATOM      5  C   UNL     1       3.012   7.373  18.003  0.00  0.00    +0.000 C 
ATOM      6  N   UNL     1       1.970   8.203  18.255  0.00  0.00    +0.000 N 
ATOM      7  S   UNL     1       3.124   6.003  19.061  0.00  0.00    +0.000 S 
ATOM      8  C   UNL     1       4.233   5.146  17.872  0.00  0.00    +0.000 C 
ATOM      9  C   UNL     1       5.222   4.253  18.652  0.00  0.00    +0.000 C 
ATOM     10  C   UNL     1       4.549   3.083  19.385  0.00  0.00    +0.000 C 
ATOM     11  C   UNL     1       3.687   2.226  18.450  0.00  0.00    +0.000 C 
ATOM     12  C   UNL     1       2.944   1.148  19.238  0.00  0.00    +0.000 C 
ATOM     13  C   UNL     1       2.689   3.080  17.660  0.00  0.00    +0.000 C 
ATOM     14  C   UNL     1       3.370   4.251  16.949  0.00  0.00    +0.000 C 
ATOM     15  H   UNL     1       1.466   7.999  19.111  0.00  0.00    +0.000 HD
ENDROOT
BRANCH   6  16
ATOM     16  C   UNL     1       1.991   9.593  17.873  0.00  0.00    +0.000 C 
BRANCH  16  17
ATOM     17  C   UNL     1       1.383  10.443  18.964  0.00  0.00    +0.000 A 
ATOM     18  C   UNL     1       1.670  11.829  19.026  0.00  0.00    +0.000 A 
ATOM     19  C   UNL     1       1.165  12.627  20.058  0.00  0.00    +0.000 A 
ATOM     20  C   UNL     1       0.384  12.018  21.013  0.00  0.00    +0.000 A 
ATOM     21  C   UNL     1       0.095  10.674  20.962  0.00  0.00    +0.000 A 
ATOM     22  C   UNL     1       0.573   9.862  19.954  0.00  0.00    +0.000 A 
ATOM     23  O   UNL     1      -0.681  10.270  22.003  0.00  0.00    +0.000 OA
ATOM     24  C   UNL     1      -0.823  11.508  22.732  0.00  0.00    +0.000 C 
ATOM     25  O   UNL     1      -0.175  12.627  22.093  0.00  0.00    +0.000 OA
ENDBRANCH  16  17
ENDBRANCH   6  16
TORSDOF 2
ENDMDL
