MODEL 1
REMARK VINA RESULT:      -8.3      0.000      0.000
REMARK  Name = 
REMARK  6 active torsions:
REMARK  status: ('A' for Active; 'I' for Inactive)
REMARK    1  A    between atoms: C_1  and  C_2
REMARK    2  A    between atoms: N_4  and  C_5
REMARK    3  A    between atoms: C_8  and  N_9
REMARK    4  A    between atoms: C_15  and  C_16
REMARK    5  A    between atoms: N_18  and  C_19
REMARK    6  A    between atoms: C_23  and  C_24
REMARK                            x       y       z     vdW  Elec       q    Type
REMARK                         _______ _______ _______ _____ _____    ______ ____
ROOT
ATOM      1  C   UNL     1       5.664   4.861  15.828  0.00  0.00    +0.000 A 
ATOM      2  C   UNL     1       5.388   3.504  15.910  0.00  0.00    +0.000 A 
ATOM      3  C   UNL     1       4.483   3.023  16.858  0.00  0.00    +0.000 A 
ATOM      4  C   UNL     1       3.806   3.849  17.772  0.00  0.00    +0.000 A 
ATOM      5  C   UNL     1       4.080   5.237  17.663  0.00  0.00    +0.000 A 
ATOM      6  C   UNL     1       5.026   5.730  16.712  0.00  0.00    +0.000 A 
ENDROOT
BRANCH   4   7
ATOM      7  N   UNL     1       2.931   3.246  18.651  0.00  0.00    +0.000 N 
ATOM      8  C   UNL     1       1.465   3.431  18.559  0.00  0.00    +0.000 C 
ATOM      9  C   UNL     1       0.917   3.906  19.912  0.00  0.00    +0.000 C 
ATOM     10  O   UNL     1       1.274   3.000  20.969  0.00  0.00    +0.000 OA
ATOM     11  C   UNL     1       2.704   2.870  21.061  0.00  0.00    +0.000 C 
ATOM     12  C   UNL     1       3.331   2.353  19.748  0.00  0.00    +0.000 C 
ENDBRANCH   4   7
BRANCH   1  16
ATOM     13  C   UNL     1       8.052   5.566  12.992  0.00  0.00    +0.000 C 
ATOM     14  C   UNL     1       6.935   4.830  13.682  0.00  0.00    +0.000 C 
ATOM     15  O   UNL     1       6.435   3.840  13.163  0.00  0.00    +0.000 OA
ATOM     16  N   UNL     1       6.592   5.390  14.902  0.00  0.00    +0.000 N 
ATOM     17  H   UNL     1       6.998   6.289  15.128  0.00  0.00    +0.000 HD
ENDBRANCH   1  16
BRANCH   5  18
ATOM     18  C   UNL     1       3.508   6.272  18.574  0.00  0.00    +0.000 C 
ATOM     19  O   UNL     1       3.697   6.169  19.781  0.00  0.00    +0.000 OA
ATOM     20  N   UNL     1       2.779   7.265  17.947  0.00  0.00    +0.000 N 
ATOM     21  H   UNL     1       2.500   7.087  16.987  0.00  0.00    +0.000 HD
BRANCH  20  22
ATOM     22  C   UNL     1       2.082   8.294  18.624  0.00  0.00    +0.000 A 
ATOM     23  C   UNL     1       1.883   9.499  17.948  0.00  0.00    +0.000 A 
ATOM     24  C   UNL     1       1.108  10.510  18.528  0.00  0.00    +0.000 A 
ATOM     25  C   UNL     1       0.599  10.355  19.816  0.00  0.00    +0.000 A 
ATOM     26  C   UNL     1       0.857   9.184  20.538  0.00  0.00    +0.000 A 
ATOM     27  C   UNL     1       0.369   9.032  21.950  0.00  0.00    +0.000 C 
ATOM     28  C   UNL     1       1.585   8.148  19.925  0.00  0.00    +0.000 A 
ENDBRANCH  20  22
ENDBRANCH   5  18
TORSDOF 4
ENDMDL
MODEL 2
REMARK VINA RESULT:      -8.0      1.412      1.996
REMARK  Name = 
REMARK  6 active torsions:
REMARK  status: ('A' for Active; 'I' for Inactive)
REMARK    1  A    between atoms: C_1  and  C_2
REMARK    2  A    between atoms: N_4  and  C_5
REMARK    3  A    between atoms: C_8  and  N_9
REMARK    4  A    between atoms: C_15  and  C_16
REMARK    5  A    between atoms: N_18  and  C_19
REMARK    6  A    between atoms: C_23  and  C_24
REMARK                            x       y       z     vdW  Elec       q    Type
REMARK                         _______ _______ _______ _____ _____    ______ ____
ROOT
ATOM      1  C   UNL     1       5.214   5.330  16.327  0.00  0.00    +0.000 A 
ATOM      2  C   UNL     1       4.995   4.027  16.752  0.00  0.00    +0.000 A 
ATOM      3  C   UNL     1       4.056   3.759  17.749  0.00  0.00    +0.000 A 
ATOM      4  C   UNL     1       3.287   4.753  18.379  0.00  0.00    +0.000 A 
ATOM      5  C   UNL     1       3.505   6.078  17.919  0.00  0.00    +0.000 A 
ATOM      6  C   UNL     1       4.484   6.360  16.917  0.00  0.00    +0.000 A 
ENDROOT
BRANCH   4   7
ATOM      7  N   UNL     1       2.388   4.351  19.343  0.00  0.00    +0.000 N 
ATOM      8  C   UNL     1       2.703   4.402  20.789  0.00  0.00    +0.000 C 
ATOM      9  C   UNL     1       2.458   3.025  21.420  0.00  0.00    +0.000 C 
ATOM     10  O   UNL     1       1.115   2.570  21.183  0.00  0.00    +0.000 OA
ATOM     11  C   UNL     1       0.851   2.492  19.772  0.00  0.00    +0.000 C 
ATOM     12  C   UNL     1       1.033   3.854  19.066  0.00  0.00    +0.000 C 
ENDBRANCH   4   7
BRANCH   1  16
ATOM     13  C   UNL     1       7.714   5.413  13.501  0.00  0.00    +0.000 C 
ATOM     14  C   UNL     1       6.583   4.828  14.303  0.00  0.00    +0.000 C 
ATOM     15  O   UNL     1       6.128   3.727  14.016  0.00  0.00    +0.000 OA
ATOM     16  N   UNL     1       6.172   5.651  15.338  0.00  0.00    +0.000 N 
ATOM     17  H   UNL     1       6.548   6.590  15.359  0.00  0.00    +0.000 HD
ENDBRANCH   1  16
BRANCH   5  18
ATOM     18  C   UNL     1       2.832   7.279  18.495  0.00  0.00    +0.000 C 
ATOM     19  O   UNL     1       2.664   7.340  19.708  0.00  0.00    +0.000 OA
ATOM     20  N   UNL     1       2.433   8.226  17.570  0.00  0.00    +0.000 N 
ATOM     21  H   UNL     1       2.412   7.933  16.598  0.00  0.00    +0.000 HD
BRANCH  20  22
ATOM     22  C   UNL     1       1.705   9.398  17.889  0.00  0.00    +0.000 A 
ATOM     23  C   UNL     1       0.314   9.303  17.953  0.00  0.00    +0.000 A 
ATOM     24  C   UNL     1      -0.446  10.402  18.370  0.00  0.00    +0.000 A 
ATOM     25  C   UNL     1       0.171  11.622  18.642  0.00  0.00    +0.000 A 
ATOM     26  C   UNL     1       1.557  11.755  18.504  0.00  0.00    +0.000 A 
ATOM     27  C   UNL     1       2.225  13.080  18.732  0.00  0.00    +0.000 C 
ATOM     28  C   UNL     1       2.321  10.629  18.146  0.00  0.00    +0.000 A 
ENDBRANCH  20  22
ENDBRANCH   5  18
TORSDOF 4
ENDMDL
MODEL 3
REMARK VINA RESULT:      -8.0      1.182      1.575
REMARK  Name = 
REMARK  6 active torsions:
REMARK  status: ('A' for Active; 'I' for Inactive)
REMARK    1  A    between atoms: C_1  and  C_2
REMARK    2  A    between atoms: N_4  and  C_5
REMARK    3  A    between atoms: C_8  and  N_9
REMARK    4  A    between atoms: C_15  and  C_16
REMARK    5  A    between atoms: N_18  and  C_19
REMARK    6  A    between atoms: C_23  and  C_24
REMARK                            x       y       z     vdW  Elec       q    Type
REMARK                         _______ _______ _______ _____ _____    ______ ____
ROOT
ATOM      1  C   UNL     1       5.459   5.314  16.334  0.00  0.00    +0.000 A 
ATOM      2  C   UNL     1       5.310   4.059  16.906  0.00  0.00    +0.000 A 
ATOM      3  C   UNL     1       4.318   3.833  17.862  0.00  0.00    +0.000 A 
ATOM      4  C   UNL     1       3.425   4.824  18.303  0.00  0.00    +0.000 A 
ATOM      5  C   UNL     1       3.574   6.097  17.693  0.00  0.00    +0.000 A 
ATOM      6  C   UNL     1       4.606   6.340  16.734  0.00  0.00    +0.000 A 
ENDROOT
BRANCH   4   7
ATOM      7  N   UNL     1       2.486   4.465  19.246  0.00  0.00    +0.000 N 
ATOM      8  C   UNL     1       2.744   4.568  20.699  0.00  0.00    +0.000 C 
ATOM      9  C   UNL     1       2.464   3.217  21.372  0.00  0.00    +0.000 C 
ATOM     10  O   UNL     1       1.128   2.763  21.100  0.00  0.00    +0.000 OA
ATOM     11  C   UNL     1       0.918   2.634  19.683  0.00  0.00    +0.000 C 
ATOM     12  C   UNL     1       1.138   3.967  18.935  0.00  0.00    +0.000 C 
ENDBRANCH   4   7
BRANCH   1  16
ATOM     13  C   UNL     1       7.930   5.363  13.482  0.00  0.00    +0.000 C 
ATOM     14  C   UNL     1       6.701   4.893  14.212  0.00  0.00    +0.000 C 
ATOM     15  O   UNL     1       6.030   3.973  13.761  0.00  0.00    +0.000 OA
ATOM     16  N   UNL     1       6.466   5.596  15.382  0.00  0.00    +0.000 N 
ATOM     17  H   UNL     1       7.027   6.422  15.546  0.00  0.00    +0.000 HD
ENDBRANCH   1  16
BRANCH   5  18
ATOM     18  C   UNL     1       2.764   7.295  18.061  0.00  0.00    +0.000 C 
ATOM     19  O   UNL     1       2.572   8.163  17.216  0.00  0.00    +0.000 OA
ATOM     20  N   UNL     1       2.313   7.318  19.367  0.00  0.00    +0.000 N 
ATOM     21  H   UNL     1       2.751   6.667  20.011  0.00  0.00    +0.000 HD
BRANCH  20  22
ATOM     22  C   UNL     1       1.600   8.395  19.949  0.00  0.00    +0.000 A 
ATOM     23  C   UNL     1       1.309   9.494  19.140  0.00  0.00    +0.000 A 
ATOM     24  C   UNL     1       0.514  10.537  19.631  0.00  0.00    +0.000 A 
ATOM     25  C   UNL     1       0.079  10.526  20.955  0.00  0.00    +0.000 A 
ATOM     26  C   UNL     1       0.431   9.468  21.802  0.00  0.00    +0.000 A 
ATOM     27  C   UNL     1       0.022   9.477  23.247  0.00  0.00    +0.000 C 
ATOM     28  C   UNL     1       1.177   8.394  21.283  0.00  0.00    +0.000 A 
ENDBRANCH  20  22
ENDBRANCH   5  18
TORSDOF 4
ENDMDL
MODEL 4
REMARK VINA RESULT:      -7.9      1.414      1.811
REMARK  Name = 
REMARK  6 active torsions:
REMARK  status: ('A' for Active; 'I' for Inactive)
REMARK    1  A    between atoms: C_1  and  C_2
REMARK    2  A    between atoms: N_4  and  C_5
REMARK    3  A    between atoms: C_8  and  N_9
REMARK    4  A    between atoms: C_15  and  C_16
REMARK    5  A    between atoms: N_18  and  C_19
REMARK    6  A    between atoms: C_23  and  C_24
REMARK                            x       y       z     vdW  Elec       q    Type
REMARK                         _______ _______ _______ _____ _____    ______ ____
ROOT
ATOM      1  C   UNL     1       5.232   5.332  16.276  0.00  0.00    +0.000 A 
ATOM      2  C   UNL     1       5.020   4.022  16.679  0.00  0.00    +0.000 A 
ATOM      3  C   UNL     1       4.084   3.732  17.673  0.00  0.00    +0.000 A 
ATOM      4  C   UNL     1       3.312   4.712  18.322  0.00  0.00    +0.000 A 
ATOM      5  C   UNL     1       3.523   6.045  17.884  0.00  0.00    +0.000 A 
ATOM      6  C   UNL     1       4.499   6.349  16.886  0.00  0.00    +0.000 A 
ENDROOT
BRANCH   4   7
ATOM      7  N   UNL     1       2.416   4.289  19.280  0.00  0.00    +0.000 N 
ATOM      8  C   UNL     1       2.736   4.309  20.725  0.00  0.00    +0.000 C 
ATOM      9  C   UNL     1       2.494   2.918  21.328  0.00  0.00    +0.000 C 
ATOM     10  O   UNL     1       1.150   2.469  21.087  0.00  0.00    +0.000 OA
ATOM     11  C   UNL     1       0.880   2.421  19.674  0.00  0.00    +0.000 C 
ATOM     12  C   UNL     1       1.060   3.798  18.998  0.00  0.00    +0.000 C 
ENDBRANCH   4   7
BRANCH   1  16
ATOM     13  C   UNL     1       7.752   5.469  13.470  0.00  0.00    +0.000 C 
ATOM     14  C   UNL     1       6.635   4.854  14.270  0.00  0.00    +0.000 C 
ATOM     15  O   UNL     1       6.221   3.736  13.992  0.00  0.00    +0.000 OA
ATOM     16  N   UNL     1       6.187   5.675  15.292  0.00  0.00    +0.000 N 
ATOM     17  H   UNL     1       6.531   6.627  15.304  0.00  0.00    +0.000 HD
ENDBRANCH   1  16
BRANCH   5  18
ATOM     18  C   UNL     1       2.845   7.234  18.482  0.00  0.00    +0.000 C 
ATOM     19  O   UNL     1       2.742   7.306  19.701  0.00  0.00    +0.000 OA
ATOM     20  N   UNL     1       2.366   8.155  17.569  0.00  0.00    +0.000 N 
ATOM     21  H   UNL     1       2.302   7.847  16.604  0.00  0.00    +0.000 HD
BRANCH  20  22
ATOM     22  C   UNL     1       1.621   9.308  17.913  0.00  0.00    +0.000 A 
ATOM     23  C   UNL     1       2.328  10.472  18.218  0.00  0.00    +0.000 A 
ATOM     24  C   UNL     1       1.642  11.669  18.459  0.00  0.00    +0.000 A 
ATOM     25  C   UNL     1       0.249  11.689  18.477  0.00  0.00    +0.000 A 
ATOM     26  C   UNL     1      -0.474  10.512  18.253  0.00  0.00    +0.000 A 
ATOM     27  C   UNL     1      -1.974  10.507  18.334  0.00  0.00    +0.000 C 
ATOM     28  C   UNL     1       0.222   9.327  17.950  0.00  0.00    +0.000 A 
ENDBRANCH  20  22
ENDBRANCH   5  18
TORSDOF 4
ENDMDL
MODEL 5
REMARK VINA RESULT:      -7.9      0.462      1.302
REMARK  Name = 
REMARK  6 active torsions:
REMARK  status: ('A' for Active; 'I' for Inactive)
REMARK    1  A    between atoms: C_1  and  C_2
REMARK    2  A    between atoms: N_4  and  C_5
REMARK    3  A    between atoms: C_8  and  N_9
REMARK    4  A    between atoms: C_15  and  C_16
REMARK    5  A    between atoms: N_18  and  C_19
REMARK    6  A    between atoms: C_23  and  C_24
REMARK                            x       y       z     vdW  Elec       q    Type
REMARK                         _______ _______ _______ _____ _____    ______ ____
ROOT
ATOM      1  C   UNL     1       5.747   4.827  15.693  0.00  0.00    +0.000 A 
ATOM      2  C   UNL     1       5.447   3.473  15.701  0.00  0.00    +0.000 A 
ATOM      3  C   UNL     1       4.564   2.950  16.647  0.00  0.00    +0.000 A 
ATOM      4  C   UNL     1       3.932   3.730  17.631  0.00  0.00    +0.000 A 
ATOM      5  C   UNL     1       4.229   5.117  17.598  0.00  0.00    +0.000 A 
ATOM      6  C   UNL     1       5.154   5.651  16.648  0.00  0.00    +0.000 A 
ENDROOT
BRANCH   4   7
ATOM      7  N   UNL     1       3.073   3.090  18.500  0.00  0.00    +0.000 N 
ATOM      8  C   UNL     1       1.603   3.140  18.339  0.00  0.00    +0.000 C 
ATOM      9  C   UNL     1       0.955   3.621  19.644  0.00  0.00    +0.000 C 
ATOM     10  O   UNL     1       1.341   2.796  20.756  0.00  0.00    +0.000 OA
ATOM     11  C   UNL     1       2.771   2.799  20.914  0.00  0.00    +0.000 C 
ATOM     12  C   UNL     1       3.499   2.284  19.653  0.00  0.00    +0.000 C 
ENDBRANCH   4   7
BRANCH   1  16
ATOM     13  C   UNL     1       8.103   5.639  12.859  0.00  0.00    +0.000 C 
ATOM     14  C   UNL     1       7.013   4.860  13.544  0.00  0.00    +0.000 C 
ATOM     15  O   UNL     1       6.543   3.861  13.014  0.00  0.00    +0.000 OA
ATOM     16  N   UNL     1       6.655   5.396  14.771  0.00  0.00    +0.000 N 
ATOM     17  H   UNL     1       7.032   6.304  15.006  0.00  0.00    +0.000 HD
ENDBRANCH   1  16
BRANCH   5  18
ATOM     18  C   UNL     1       3.706   6.104  18.588  0.00  0.00    +0.000 C 
ATOM     19  O   UNL     1       4.128   6.070  19.738  0.00  0.00    +0.000 OA
ATOM     20  N   UNL     1       2.749   6.973  18.098  0.00  0.00    +0.000 N 
ATOM     21  H   UNL     1       2.322   6.727  17.211  0.00  0.00    +0.000 HD
BRANCH  20  22
ATOM     22  C   UNL     1       2.062   7.931  18.883  0.00  0.00    +0.000 A 
ATOM     23  C   UNL     1       1.759   7.594  20.203  0.00  0.00    +0.000 A 
ATOM     24  C   UNL     1       1.179   8.541  21.055  0.00  0.00    +0.000 A 
ATOM     25  C   UNL     1       0.823   9.798  20.570  0.00  0.00    +0.000 A 
ATOM     26  C   UNL     1       1.047  10.123  19.227  0.00  0.00    +0.000 A 
ATOM     27  C   UNL     1       0.610  11.451  18.677  0.00  0.00    +0.000 C 
ATOM     28  C   UNL     1       1.688   9.188  18.393  0.00  0.00    +0.000 A 
ENDBRANCH  20  22
ENDBRANCH   5  18
TORSDOF 4
ENDMDL
MODEL 6
REMARK VINA RESULT:      -7.9      1.084      1.878
REMARK  Name = 
REMARK  6 active torsions:
REMARK  status: ('A' for Active; 'I' for Inactive)
REMARK    1  A    between atoms: C_1  and  C_2
REMARK    2  A    between atoms: N_4  and  C_5
REMARK    3  A    between atoms: C_8  and  N_9
REMARK    4  A    between atoms: C_15  and  C_16
REMARK    5  A    between atoms: N_18  and  C_19
REMARK    6  A    between atoms: C_23  and  C_24
REMARK                            x       y       z     vdW  Elec       q    Type
REMARK                         _______ _______ _______ _____ _____    ______ ____
ROOT
ATOM      1  C   UNL     1       5.681   5.242  15.910  0.00  0.00    +0.000 A 
ATOM      2  C   UNL     1       5.496   3.957  16.399  0.00  0.00    +0.000 A 
ATOM      3  C   UNL     1       4.517   3.701  17.361  0.00  0.00    +0.000 A 
ATOM      4  C   UNL     1       3.672   4.692  17.889  0.00  0.00    +0.000 A 
ATOM      5  C   UNL     1       3.856   5.997  17.364  0.00  0.00    +0.000 A 
ATOM      6  C   UNL     1       4.875   6.269  16.400  0.00  0.00    +0.000 A 
ENDROOT
BRANCH   4   7
ATOM      7  N   UNL     1       2.739   4.304  18.827  0.00  0.00    +0.000 N 
ATOM      8  C   UNL     1       3.046   4.252  20.274  0.00  0.00    +0.000 C 
ATOM      9  C   UNL     1       2.700   2.864  20.829  0.00  0.00    +0.000 C 
ATOM     10  O   UNL     1       1.330   2.520  20.563  0.00  0.00    +0.000 OA
ATOM     11  C   UNL     1       1.071   2.538  19.148  0.00  0.00    +0.000 C 
ATOM     12  C   UNL     1       1.354   3.920  18.519  0.00  0.00    +0.000 C 
ENDBRANCH   4   7
BRANCH   1  16
ATOM     13  C   UNL     1       8.143   5.360  13.052  0.00  0.00    +0.000 C 
ATOM     14  C   UNL     1       6.928   4.856  13.785  0.00  0.00    +0.000 C 
ATOM     15  O   UNL     1       6.282   3.918  13.336  0.00  0.00    +0.000 OA
ATOM     16  N   UNL     1       6.677   5.552  14.956  0.00  0.00    +0.000 N 
ATOM     17  H   UNL     1       7.216   6.393  15.119  0.00  0.00    +0.000 HD
ENDBRANCH   1  16
BRANCH   5  18
ATOM     18  C   UNL     1       3.099   7.197  17.832  0.00  0.00    +0.000 C 
ATOM     19  O   UNL     1       3.083   8.199  17.126  0.00  0.00    +0.000 OA
ATOM     20  N   UNL     1       2.490   7.060  19.064  0.00  0.00    +0.000 N 
ATOM     21  H   UNL     1       2.791   6.277  19.637  0.00  0.00    +0.000 HD
BRANCH  20  22
ATOM     22  C   UNL     1       1.794   8.096  19.732  0.00  0.00    +0.000 A 
ATOM     23  C   UNL     1       1.609   7.973  21.110  0.00  0.00    +0.000 A 
ATOM     24  C   UNL     1       1.025   9.017  21.837  0.00  0.00    +0.000 A 
ATOM     25  C   UNL     1       0.549  10.151  21.180  0.00  0.00    +0.000 A 
ATOM     26  C   UNL     1       0.656  10.254  19.789  0.00  0.00    +0.000 A 
ATOM     27  C   UNL     1       0.089  11.441  19.063  0.00  0.00    +0.000 C 
ATOM     28  C   UNL     1       1.299   9.228  19.073  0.00  0.00    +0.000 A 
ENDBRANCH  20  22
ENDBRANCH   5  18
TORSDOF 4
ENDMDL
MODEL 7
REMARK VINA RESULT:      -7.9      0.895      1.269
REMARK  Name = 
REMARK  6 active torsions:
REMARK  status: ('A' for Active; 'I' for Inactive)
REMARK    1  A    between atoms: C_1  and  C_2
REMARK    2  A    between atoms: N_4  and  C_5
REMARK    3  A    between atoms: C_8  and  N_9
REMARK    4  A    between atoms: C_15  and  C_16
REMARK    5  A    between atoms: N_18  and  C_19
REMARK    6  A    between atoms: C_23  and  C_24
REMARK                            x       y       z     vdW  Elec       q    Type
REMARK                         _______ _______ _______ _____ _____    ______ ____
ROOT
ATOM      1  C   UNL     1       5.656   4.855  15.420  0.00  0.00    +0.000 A 
ATOM      2  C   UNL     1       5.265   3.588  15.825  0.00  0.00    +0.000 A 
ATOM      3  C   UNL     1       4.358   3.431  16.875  0.00  0.00    +0.000 A 
ATOM      4  C   UNL     1       3.792   4.508  17.578  0.00  0.00    +0.000 A 
ATOM      5  C   UNL     1       4.183   5.799  17.138  0.00  0.00    +0.000 A 
ATOM      6  C   UNL     1       5.132   5.964  16.082  0.00  0.00    +0.000 A 
ENDROOT
BRANCH   4   7
ATOM      7  N   UNL     1       2.902   4.215  18.589  0.00  0.00    +0.000 N 
ATOM      8  C   UNL     1       3.301   4.194  20.014  0.00  0.00    +0.000 C 
ATOM      9  C   UNL     1       2.906   2.852  20.644  0.00  0.00    +0.000 C 
ATOM     10  O   UNL     1       1.502   2.590  20.481  0.00  0.00    +0.000 OA
ATOM     11  C   UNL     1       1.150   2.575  19.086  0.00  0.00    +0.000 C 
ATOM     12  C   UNL     1       1.478   3.912  18.386  0.00  0.00    +0.000 C 
ENDBRANCH   4   7
BRANCH   1  16
ATOM     13  C   UNL     1       7.807   4.760  12.320  0.00  0.00    +0.000 C 
ATOM     14  C   UNL     1       6.603   4.414  13.154  0.00  0.00    +0.000 C 
ATOM     15  O   UNL     1       5.765   3.627  12.733  0.00  0.00    +0.000 OA
ATOM     16  N   UNL     1       6.591   5.062  14.379  0.00  0.00    +0.000 N 
ATOM     17  H   UNL     1       7.278   5.790  14.524  0.00  0.00    +0.000 HD
ENDBRANCH   1  16
BRANCH   5  18
ATOM     18  C   UNL     1       3.740   7.069  17.787  0.00  0.00    +0.000 C 
ATOM     19  O   UNL     1       4.569   7.945  18.003  0.00  0.00    +0.000 OA
ATOM     20  N   UNL     1       2.397   7.123  18.109  0.00  0.00    +0.000 N 
ATOM     21  H   UNL     1       1.891   6.243  18.100  0.00  0.00    +0.000 HD
BRANCH  20  22
ATOM     22  C   UNL     1       1.783   8.194  18.802  0.00  0.00    +0.000 A 
ATOM     23  C   UNL     1       1.345   9.287  18.054  0.00  0.00    +0.000 A 
ATOM     24  C   UNL     1       0.635  10.324  18.672  0.00  0.00    +0.000 A 
ATOM     25  C   UNL     1       0.434  10.313  20.051  0.00  0.00    +0.000 A 
ATOM     26  C   UNL     1       0.938   9.262  20.827  0.00  0.00    +0.000 A 
ATOM     27  C   UNL     1       0.783   9.272  22.321  0.00  0.00    +0.000 C 
ATOM     28  C   UNL     1       1.595   8.194  20.190  0.00  0.00    +0.000 A 
ENDBRANCH  20  22
ENDBRANCH   5  18
TORSDOF 4
ENDMDL
MODEL 8
REMARK VINA RESULT:      -7.7      1.172      1.399
REMARK  Name = 
REMARK  6 active torsions:
REMARK  status: ('A' for Active; 'I' for Inactive)
REMARK    1  A    between atoms: C_1  and  C_2
REMARK    2  A    between atoms: N_4  and  C_5
REMARK    3  A    between atoms: C_8  and  N_9
REMARK    4  A    between atoms: C_15  and  C_16
REMARK    5  A    between atoms: N_18  and  C_19
REMARK    6  A    between atoms: C_23  and  C_24
REMARK                            x       y       z     vdW  Elec       q    Type
REMARK                         _______ _______ _______ _____ _____    ______ ____
ROOT
ATOM      1  C   UNL     1       5.806   5.168  16.468  0.00  0.00    +0.000 A 
ATOM      2  C   UNL     1       6.172   4.108  17.284  0.00  0.00    +0.000 A 
ATOM      3  C   UNL     1       5.366   3.737  18.362  0.00  0.00    +0.000 A 
ATOM      4  C   UNL     1       4.164   4.386  18.691  0.00  0.00    +0.000 A 
ATOM      5  C   UNL     1       3.790   5.454  17.834  0.00  0.00    +0.000 A 
ATOM      6  C   UNL     1       4.626   5.855  16.747  0.00  0.00    +0.000 A 
ENDROOT
BRANCH   4   7
ATOM      7  N   UNL     1       3.457   3.913  19.776  0.00  0.00    +0.000 N 
ATOM      8  C   UNL     1       3.386   2.472  20.106  0.00  0.00    +0.000 C 
ATOM      9  C   UNL     1       1.919   2.042  20.237  0.00  0.00    +0.000 C 
ATOM     10  O   UNL     1       1.222   2.845  21.205  0.00  0.00    +0.000 OA
ATOM     11  C   UNL     1       1.273   4.235  20.839  0.00  0.00    +0.000 C 
ATOM     12  C   UNL     1       2.722   4.758  20.728  0.00  0.00    +0.000 C 
ENDBRANCH   4   7
BRANCH   1  16
ATOM     13  C   UNL     1       7.855   5.553  13.321  0.00  0.00    +0.000 C 
ATOM     14  C   UNL     1       6.860   4.876  14.225  0.00  0.00    +0.000 C 
ATOM     15  O   UNL     1       6.374   3.798  13.910  0.00  0.00    +0.000 OA
ATOM     16  N   UNL     1       6.604   5.596  15.382  0.00  0.00    +0.000 N 
ATOM     17  H   UNL     1       6.973   6.537  15.432  0.00  0.00    +0.000 HD
ENDBRANCH   1  16
BRANCH   5  18
ATOM     18  C   UNL     1       2.582   6.305  18.044  0.00  0.00    +0.000 C 
ATOM     19  O   UNL     1       1.504   5.922  17.604  0.00  0.00    +0.000 OA
ATOM     20  N   UNL     1       2.810   7.490  18.717  0.00  0.00    +0.000 N 
ATOM     21  H   UNL     1       3.777   7.788  18.799  0.00  0.00    +0.000 HD
BRANCH  20  22
ATOM     22  C   UNL     1       1.825   8.481  18.950  0.00  0.00    +0.000 A 
ATOM     23  C   UNL     1       1.401   9.244  17.862  0.00  0.00    +0.000 A 
ATOM     24  C   UNL     1       0.354  10.161  18.012  0.00  0.00    +0.000 A 
ATOM     25  C   UNL     1      -0.216  10.378  19.265  0.00  0.00    +0.000 A 
ATOM     26  C   UNL     1       0.254   9.678  20.382  0.00  0.00    +0.000 A 
ATOM     27  C   UNL     1      -0.308   9.950  21.748  0.00  0.00    +0.000 C 
ATOM     28  C   UNL     1       1.264   8.713  20.211  0.00  0.00    +0.000 A 
ENDBRANCH  20  22
ENDBRANCH   5  18
TORSDOF 4
ENDMDL
MODEL 9
REMARK VINA RESULT:      -7.7      2.090      6.545
REMARK  Name = 
REMARK  6 active torsions:
REMARK  status: ('A' for Active; 'I' for Inactive)
REMARK    1  A    between atoms: C_1  and  C_2
REMARK    2  A    between atoms: N_4  and  C_5
REMARK    3  A    between atoms: C_8  and  N_9
REMARK    4  A    between atoms: C_15  and  C_16
REMARK    5  A    between atoms: N_18  and  C_19
REMARK    6  A    between atoms: C_23  and  C_24
REMARK                            x       y       z     vdW  Elec       q    Type
REMARK                         _______ _______ _______ _____ _____    ______ ____
ROOT
ATOM      1  C   UNL     1       1.829   7.448  20.079  0.00  0.00    +0.000 A 
ATOM      2  C   UNL     1       1.047   6.466  20.668  0.00  0.00    +0.000 A 
ATOM      3  C   UNL     1       1.379   5.117  20.523  0.00  0.00    +0.000 A 
ATOM      4  C   UNL     1       2.492   4.667  19.793  0.00  0.00    +0.000 A 
ATOM      5  C   UNL     1       3.296   5.683  19.214  0.00  0.00    +0.000 A 
ATOM      6  C   UNL     1       2.945   7.063  19.338  0.00  0.00    +0.000 A 
ENDROOT
BRANCH   4   7
ATOM      7  N   UNL     1       2.712   3.307  19.736  0.00  0.00    +0.000 N 
ATOM      8  C   UNL     1       3.495   2.589  20.765  0.00  0.00    +0.000 C 
ATOM      9  C   UNL     1       4.615   1.781  20.094  0.00  0.00    +0.000 C 
ATOM     10  O   UNL     1       4.091   0.883  19.102  0.00  0.00    +0.000 OA
ATOM     11  C   UNL     1       3.369   1.612  18.093  0.00  0.00    +0.000 C 
ATOM     12  C   UNL     1       2.193   2.420  18.684  0.00  0.00    +0.000 C 
ENDBRANCH   4   7
BRANCH   1  16
ATOM     13  C   UNL     1       1.006  11.092  19.542  0.00  0.00    +0.000 C 
ATOM     14  C   UNL     1       1.137   9.650  19.132  0.00  0.00    +0.000 C 
ATOM     15  O   UNL     1       0.921   9.316  17.974  0.00  0.00    +0.000 OA
ATOM     16  N   UNL     1       1.517   8.823  20.178  0.00  0.00    +0.000 N 
ATOM     17  H   UNL     1       1.518   9.224  21.107  0.00  0.00    +0.000 HD
ENDBRANCH   1  16
BRANCH   5  18
ATOM     18  C   UNL     1       4.488   5.413  18.357  0.00  0.00    +0.000 C 
ATOM     19  O   UNL     1       5.591   5.326  18.885  0.00  0.00    +0.000 OA
ATOM     20  N   UNL     1       4.223   5.305  17.004  0.00  0.00    +0.000 N 
ATOM     21  H   UNL     1       3.319   5.643  16.689  0.00  0.00    +0.000 HD
BRANCH  20  22
ATOM     22  C   UNL     1       5.213   5.134  16.007  0.00  0.00    +0.000 A 
ATOM     23  C   UNL     1       6.445   5.762  16.198  0.00  0.00    +0.000 A 
ATOM     24  C   UNL     1       7.495   5.539  15.300  0.00  0.00    +0.000 A 
ATOM     25  C   UNL     1       7.294   4.757  14.164  0.00  0.00    +0.000 A 
ATOM     26  C   UNL     1       6.040   4.186  13.916  0.00  0.00    +0.000 A 
ATOM     27  C   UNL     1       5.793   3.395  12.663  0.00  0.00    +0.000 C 
ATOM     28  C   UNL     1       5.008   4.364  14.856  0.00  0.00    +0.000 A 
ENDBRANCH  20  22
ENDBRANCH   5  18
TORSDOF 4
ENDMDL
