MODEL 1
REMARK VINA RESULT:      -5.6      0.000      0.000
REMARK  Name = 
REMARK  3 active torsions:
REMARK  status: ('A' for Active; 'I' for Inactive)
REMARK    1  A    between atoms: C_5  and  N_6
REMARK    2  A    between atoms: C_11  and  N_12
REMARK    3  A    between atoms: C_15  and  N_16
REMARK                            x       y       z     vdW  Elec       q    Type
REMARK                         _______ _______ _______ _____ _____    ______ ____
ROOT
ATOM      1  O   UNL     1       5.156   3.052  19.428  0.00  0.00    +0.000 OA
ATOM      2  C   UNL     1       5.051   4.196  18.997  0.00  0.00    +0.000 C 
ATOM      3  C   UNL     1       6.234   4.909  18.493  0.00  0.00    +0.000 C 
ATOM      4  F   UNL     1       7.418   4.407  18.912  0.00  0.00    +0.000 F 
ATOM      5  C   UNL     1       6.189   5.986  17.704  0.00  0.00    +0.000 C 
ATOM      6  C   UNL     1       4.812   6.374  17.252  0.00  0.00    +0.000 C 
ATOM      7  O   UNL     1       4.615   6.951  16.185  0.00  0.00    +0.000 OA
ATOM      8  C   UNL     1       3.665   6.054  18.191  0.00  0.00    +0.000 C 
ATOM      9  C   UNL     1       3.766   4.978  19.012  0.00  0.00    +0.000 C 
ENDROOT
BRANCH   5  10
ATOM     10  N   UNL     1       7.336   6.723  17.412  0.00  0.00    +0.000 N 
ATOM     11  C   UNL     1       7.287   8.174  17.540  0.00  0.00    +0.000 C 
ATOM     12  C   UNL     1       8.202   7.338  18.399  0.00  0.00    +0.000 C 
ENDBRANCH   5  10
BRANCH   8  13
ATOM     13  N   UNL     1       2.504   6.829  18.062  0.00  0.00    +0.000 N 
ATOM     14  C   UNL     1       2.124   7.712  19.160  0.00  0.00    +0.000 C 
ATOM     15  C   UNL     1       2.606   8.269  17.844  0.00  0.00    +0.000 C 
ENDBRANCH   8  13
BRANCH   9  16
ATOM     16  N   UNL     1       2.817   4.647  19.990  0.00  0.00    +0.000 N 
ATOM     17  C   UNL     1       1.581   3.982  19.592  0.00  0.00    +0.000 C 
ATOM     18  C   UNL     1       2.615   3.277  20.436  0.00  0.00    +0.000 C 
ENDBRANCH   9  16
TORSDOF 3
ENDMDL
MODEL 2
REMARK VINA RESULT:      -5.5      2.158      3.854
REMARK  Name = 
REMARK  3 active torsions:
REMARK  status: ('A' for Active; 'I' for Inactive)
REMARK    1  A    between atoms: C_5  and  N_6
REMARK    2  A    between atoms: C_11  and  N_12
REMARK    3  A    between atoms: C_15  and  N_16
REMARK                            x       y       z     vdW  Elec       q    Type
REMARK                         _______ _______ _______ _____ _____    ______ ____
ROOT
ATOM      1  O   UNL     1       3.269   8.036  17.801  0.00  0.00    +0.000 OA
ATOM      2  C   UNL     1       3.734   6.900  17.813  0.00  0.00    +0.000 C 
ATOM      3  C   UNL     1       4.700   6.484  16.787  0.00  0.00    +0.000 C 
ATOM      4  F   UNL     1       4.702   7.246  15.669  0.00  0.00    +0.000 F 
ATOM      5  C   UNL     1       5.512   5.429  16.896  0.00  0.00    +0.000 C 
ATOM      6  C   UNL     1       5.459   4.733  18.224  0.00  0.00    +0.000 C 
ATOM      7  O   UNL     1       6.427   4.130  18.682  0.00  0.00    +0.000 OA
ATOM      8  C   UNL     1       4.140   4.774  18.970  0.00  0.00    +0.000 C 
ATOM      9  C   UNL     1       3.319   5.841  18.798  0.00  0.00    +0.000 C 
ENDROOT
BRANCH   5  10
ATOM     10  N   UNL     1       6.272   4.980  15.816  0.00  0.00    +0.000 N 
ATOM     11  C   UNL     1       6.140   3.590  15.398  0.00  0.00    +0.000 C 
ATOM     12  C   UNL     1       5.754   4.726  14.486  0.00  0.00    +0.000 C 
ENDBRANCH   5  10
BRANCH   8  13
ATOM     13  N   UNL     1       3.903   3.751  19.898  0.00  0.00    +0.000 N 
ATOM     14  C   UNL     1       3.008   2.660  19.527  0.00  0.00    +0.000 C 
ATOM     15  C   UNL     1       4.489   2.430  19.696  0.00  0.00    +0.000 C 
ENDBRANCH   8  13
BRANCH   9  16
ATOM     16  N   UNL     1       2.035   5.940  19.352  0.00  0.00    +0.000 N 
ATOM     17  C   UNL     1       1.835   5.606  20.759  0.00  0.00    +0.000 C 
ATOM     18  C   UNL     1       1.665   7.019  20.254  0.00  0.00    +0.000 C 
ENDBRANCH   9  16
TORSDOF 3
ENDMDL
MODEL 3
REMARK VINA RESULT:      -5.5      1.858      4.519
REMARK  Name = 
REMARK  3 active torsions:
REMARK  status: ('A' for Active; 'I' for Inactive)
REMARK    1  A    between atoms: C_5  and  N_6
REMARK    2  A    between atoms: C_11  and  N_12
REMARK    3  A    between atoms: C_15  and  N_16
REMARK                            x       y       z     vdW  Elec       q    Type
REMARK                         _______ _______ _______ _____ _____    ______ ____
ROOT
ATOM      1  O   UNL     1       6.356   4.819  19.043  0.00  0.00    +0.000 OA
ATOM      2  C   UNL     1       5.133   4.891  18.978  0.00  0.00    +0.000 C 
ATOM      3  C   UNL     1       4.297   3.808  19.513  0.00  0.00    +0.000 C 
ATOM      4  F   UNL     1       4.937   2.626  19.675  0.00  0.00    +0.000 F 
ATOM      5  C   UNL     1       2.999   3.928  19.805  0.00  0.00    +0.000 C 
ATOM      6  C   UNL     1       2.450   5.316  19.657  0.00  0.00    +0.000 C 
ATOM      7  O   UNL     1       1.505   5.718  20.332  0.00  0.00    +0.000 OA
ATOM      8  C   UNL     1       3.091   6.201  18.606  0.00  0.00    +0.000 C 
ATOM      9  C   UNL     1       4.401   6.018  18.301  0.00  0.00    +0.000 C 
ENDROOT
BRANCH   5  10
ATOM     10  N   UNL     1       2.221   2.818  20.134  0.00  0.00    +0.000 N 
ATOM     11  C   UNL     1       0.849   2.756  19.645  0.00  0.00    +0.000 C 
ATOM     12  C   UNL     1       1.882   1.743  19.223  0.00  0.00    +0.000 C 
ENDBRANCH   5  10
BRANCH   8  13
ATOM     13  N   UNL     1       2.311   7.247  18.095  0.00  0.00    +0.000 N 
ATOM     14  C   UNL     1       2.007   8.382  18.960  0.00  0.00    +0.000 C 
ATOM     15  C   UNL     1       2.928   8.531  17.775  0.00  0.00    +0.000 C 
ENDBRANCH   8  13
BRANCH   9  16
ATOM     16  N   UNL     1       5.071   6.704  17.277  0.00  0.00    +0.000 N 
ATOM     17  C   UNL     1       6.364   6.212  16.813  0.00  0.00    +0.000 C 
ATOM     18  C   UNL     1       5.146   6.183  15.922  0.00  0.00    +0.000 C 
ENDBRANCH   9  16
TORSDOF 3
ENDMDL
MODEL 4
REMARK VINA RESULT:      -5.5      2.130      2.525
REMARK  Name = 
REMARK  3 active torsions:
REMARK  status: ('A' for Active; 'I' for Inactive)
REMARK    1  A    between atoms: C_5  and  N_6
REMARK    2  A    between atoms: C_11  and  N_12
REMARK    3  A    between atoms: C_15  and  N_16
REMARK                            x       y       z     vdW  Elec       q    Type
REMARK                         _______ _______ _______ _____ _____    ______ ____
ROOT
ATOM      1  O   UNL     1       1.548   3.057  17.869  0.00  0.00    +0.000 OA
ATOM      2  C   UNL     1       2.256   4.027  18.122  0.00  0.00    +0.000 C 
ATOM      3  C   UNL     1       3.452   4.302  17.313  0.00  0.00    +0.000 C 
ATOM      4  F   UNL     1       3.912   3.244  16.606  0.00  0.00    +0.000 F 
ATOM      5  C   UNL     1       4.083   5.479  17.270  0.00  0.00    +0.000 C 
ATOM      6  C   UNL     1       3.408   6.578  18.037  0.00  0.00    +0.000 C 
ATOM      7  O   UNL     1       3.517   7.759  17.714  0.00  0.00    +0.000 OA
ATOM      8  C   UNL     1       2.607   6.173  19.259  0.00  0.00    +0.000 C 
ATOM      9  C   UNL     1       2.020   4.950  19.286  0.00  0.00    +0.000 C 
ENDROOT
BRANCH   5  10
ATOM     10  N   UNL     1       5.313   5.623  16.630  0.00  0.00    +0.000 N 
ATOM     11  C   UNL     1       6.359   6.392  17.292  0.00  0.00    +0.000 C 
ATOM     12  C   UNL     1       6.528   4.923  16.999  0.00  0.00    +0.000 C 
ENDBRANCH   5  10
BRANCH   8  13
ATOM     13  N   UNL     1       2.419   7.150  20.247  0.00  0.00    +0.000 N 
ATOM     14  C   UNL     1       1.651   8.345  19.915  0.00  0.00    +0.000 C 
ATOM     15  C   UNL     1       1.112   7.313  20.875  0.00  0.00    +0.000 C 
ENDBRANCH   8  13
BRANCH   9  16
ATOM     16  N   UNL     1       1.345   4.429  20.399  0.00  0.00    +0.000 N 
ATOM     17  C   UNL     1       1.217   2.983  20.547  0.00  0.00    +0.000 C 
ATOM     18  C   UNL     1       2.050   3.800  21.504  0.00  0.00    +0.000 C 
ENDBRANCH   9  16
TORSDOF 3
ENDMDL
MODEL 5
REMARK VINA RESULT:      -5.4      2.302      2.694
REMARK  Name = 
REMARK  3 active torsions:
REMARK  status: ('A' for Active; 'I' for Inactive)
REMARK    1  A    between atoms: C_5  and  N_6
REMARK    2  A    between atoms: C_11  and  N_12
REMARK    3  A    between atoms: C_15  and  N_16
REMARK                            x       y       z     vdW  Elec       q    Type
REMARK                         _______ _______ _______ _____ _____    ______ ____
ROOT
ATOM      1  O   UNL     1       1.728   2.250  18.188  0.00  0.00    +0.000 OA
ATOM      2  C   UNL     1       2.540   3.166  18.272  0.00  0.00    +0.000 C 
ATOM      3  C   UNL     1       3.806   3.104  17.526  0.00  0.00    +0.000 C 
ATOM      4  F   UNL     1       4.163   1.863  17.121  0.00  0.00    +0.000 F 
ATOM      5  C   UNL     1       4.585   4.158  17.270  0.00  0.00    +0.000 C 
ATOM      6  C   UNL     1       4.017   5.477  17.705  0.00  0.00    +0.000 C 
ATOM      7  O   UNL     1       4.297   6.527  17.131  0.00  0.00    +0.000 OA
ATOM      8  C   UNL     1       3.103   5.467  18.914  0.00  0.00    +0.000 C 
ATOM      9  C   UNL     1       2.361   4.359  19.170  0.00  0.00    +0.000 C 
ENDROOT
BRANCH   5  10
ATOM     10  N   UNL     1       5.858   4.006  16.721  0.00  0.00    +0.000 N 
ATOM     11  C   UNL     1       5.986   3.898  15.272  0.00  0.00    +0.000 C 
ATOM     12  C   UNL     1       6.595   5.048  16.034  0.00  0.00    +0.000 C 
ENDBRANCH   5  10
BRANCH   8  13
ATOM     13  N   UNL     1       2.989   6.664  19.633  0.00  0.00    +0.000 N 
ATOM     14  C   UNL     1       2.210   7.756  19.059  0.00  0.00    +0.000 C 
ATOM     15  C   UNL     1       1.727   7.012  20.279  0.00  0.00    +0.000 C 
ENDBRANCH   8  13
BRANCH   9  16
ATOM     16  N   UNL     1       1.562   4.197  20.311  0.00  0.00    +0.000 N 
ATOM     17  C   UNL     1       1.176   2.854  20.730  0.00  0.00    +0.000 C 
ATOM     18  C   UNL     1       2.103   3.702  21.567  0.00  0.00    +0.000 C 
ENDBRANCH   9  16
TORSDOF 3
ENDMDL
MODEL 6
REMARK VINA RESULT:      -5.2      2.436      3.817
REMARK  Name = 
REMARK  3 active torsions:
REMARK  status: ('A' for Active; 'I' for Inactive)
REMARK    1  A    between atoms: C_5  and  N_6
REMARK    2  A    between atoms: C_11  and  N_12
REMARK    3  A    between atoms: C_15  and  N_16
REMARK                            x       y       z     vdW  Elec       q    Type
REMARK                         _______ _______ _______ _____ _____    ______ ____
ROOT
ATOM      1  O   UNL     1       2.117   7.292  19.690  0.00  0.00    +0.000 OA
ATOM      2  C   UNL     1       2.812   6.357  19.305  0.00  0.00    +0.000 C 
ATOM      3  C   UNL     1       3.848   6.574  18.285  0.00  0.00    +0.000 C 
ATOM      4  F   UNL     1       3.693   7.700  17.552  0.00  0.00    +0.000 F 
ATOM      5  C   UNL     1       4.864   5.739  18.050  0.00  0.00    +0.000 C 
ATOM      6  C   UNL     1       4.954   4.579  18.998  0.00  0.00    +0.000 C 
ATOM      7  O   UNL     1       6.025   4.043  19.270  0.00  0.00    +0.000 OA
ATOM      8  C   UNL     1       3.653   4.068  19.584  0.00  0.00    +0.000 C 
ATOM      9  C   UNL     1       2.625   4.937  19.765  0.00  0.00    +0.000 C 
ENDROOT
BRANCH   5  10
ATOM     10  N   UNL     1       5.706   5.908  16.951  0.00  0.00    +0.000 N 
ATOM     11  C   UNL     1       6.040   4.743  16.141  0.00  0.00    +0.000 C 
ATOM     12  C   UNL     1       5.274   5.907  15.567  0.00  0.00    +0.000 C 
ENDBRANCH   5  10
BRANCH   8  13
ATOM     13  N   UNL     1       3.634   2.737  20.022  0.00  0.00    +0.000 N 
ATOM     14  C   UNL     1       3.779   1.671  19.036  0.00  0.00    +0.000 C 
ATOM     15  C   UNL     1       4.866   1.955  20.042  0.00  0.00    +0.000 C 
ENDBRANCH   8  13
BRANCH   9  16
ATOM     16  N   UNL     1       1.347   4.559  20.201  0.00  0.00    +0.000 N 
ATOM     17  C   UNL     1       0.677   3.432  19.562  0.00  0.00    +0.000 C 
ATOM     18  C   UNL     1       1.127   3.365  21.002  0.00  0.00    +0.000 C 
ENDBRANCH   9  16
TORSDOF 3
ENDMDL
MODEL 7
REMARK VINA RESULT:      -5.2      2.238      4.862
REMARK  Name = 
REMARK  3 active torsions:
REMARK  status: ('A' for Active; 'I' for Inactive)
REMARK    1  A    between atoms: C_5  and  N_6
REMARK    2  A    between atoms: C_11  and  N_12
REMARK    3  A    between atoms: C_15  and  N_16
REMARK                            x       y       z     vdW  Elec       q    Type
REMARK                         _______ _______ _______ _____ _____    ______ ____
ROOT
ATOM      1  O   UNL     1       5.448   3.434  16.637  0.00  0.00    +0.000 OA
ATOM      2  C   UNL     1       4.562   3.875  17.362  0.00  0.00    +0.000 C 
ATOM      3  C   UNL     1       3.618   2.959  18.019  0.00  0.00    +0.000 C 
ATOM      4  F   UNL     1       3.541   1.730  17.459  0.00  0.00    +0.000 F 
ATOM      5  C   UNL     1       2.858   3.282  19.069  0.00  0.00    +0.000 C 
ATOM      6  C   UNL     1       3.117   4.648  19.633  0.00  0.00    +0.000 C 
ATOM      7  O   UNL     1       2.930   4.909  20.819  0.00  0.00    +0.000 OA
ATOM      8  C   UNL     1       3.588   5.714  18.663  0.00  0.00    +0.000 C 
ATOM      9  C   UNL     1       4.318   5.343  17.581  0.00  0.00    +0.000 C 
ENDROOT
BRANCH   5  10
ATOM     10  N   UNL     1       1.854   2.431  19.530  0.00  0.00    +0.000 N 
ATOM     11  C   UNL     1       0.644   3.018  20.092  0.00  0.00    +0.000 C 
ATOM     12  C   UNL     1       0.602   2.177  18.842  0.00  0.00    +0.000 C 
ENDBRANCH   5  10
BRANCH   8  13
ATOM     13  N   UNL     1       3.340   7.047  19.016  0.00  0.00    +0.000 N 
ATOM     14  C   UNL     1       2.377   7.814  18.232  0.00  0.00    +0.000 C 
ATOM     15  C   UNL     1       2.080   7.413  19.656  0.00  0.00    +0.000 C 
ENDBRANCH   8  13
BRANCH   9  16
ATOM     16  N   UNL     1       4.719   6.225  16.566  0.00  0.00    +0.000 N 
ATOM     17  C   UNL     1       6.049   6.822  16.621  0.00  0.00    +0.000 C 
ATOM     18  C   UNL     1       5.674   5.837  15.540  0.00  0.00    +0.000 C 
ENDBRANCH   9  16
TORSDOF 3
ENDMDL
MODEL 8
REMARK VINA RESULT:      -5.1      2.518      4.954
REMARK  Name = 
REMARK  3 active torsions:
REMARK  status: ('A' for Active; 'I' for Inactive)
REMARK    1  A    between atoms: C_5  and  N_6
REMARK    2  A    between atoms: C_11  and  N_12
REMARK    3  A    between atoms: C_15  and  N_16
REMARK                            x       y       z     vdW  Elec       q    Type
REMARK                         _______ _______ _______ _____ _____    ______ ____
ROOT
ATOM      1  O   UNL     1       5.373   6.759  16.028  0.00  0.00    +0.000 OA
ATOM      2  C   UNL     1       4.659   6.081  16.761  0.00  0.00    +0.000 C 
ATOM      3  C   UNL     1       3.620   6.720  17.580  0.00  0.00    +0.000 C 
ATOM      4  F   UNL     1       3.789   8.048  17.775  0.00  0.00    +0.000 F 
ATOM      5  C   UNL     1       2.588   6.074  18.131  0.00  0.00    +0.000 C 
ATOM      6  C   UNL     1       2.484   4.625  17.756  0.00  0.00    +0.000 C 
ATOM      7  O   UNL     1       1.405   4.038  17.720  0.00  0.00    +0.000 OA
ATOM      8  C   UNL     1       3.780   3.898  17.457  0.00  0.00    +0.000 C 
ATOM      9  C   UNL     1       4.824   4.597  16.942  0.00  0.00    +0.000 C 
ENDROOT
BRANCH   5  10
ATOM     10  N   UNL     1       1.742   6.701  19.045  0.00  0.00    +0.000 N 
ATOM     11  C   UNL     1       1.693   6.196  20.412  0.00  0.00    +0.000 C 
ATOM     12  C   UNL     1       2.177   7.590  20.104  0.00  0.00    +0.000 C 
ENDBRANCH   5  10
BRANCH   8  13
ATOM     13  N   UNL     1       3.779   2.506  17.619  0.00  0.00    +0.000 N 
ATOM     14  C   UNL     1       4.099   1.952  18.930  0.00  0.00    +0.000 C 
ATOM     15  C   UNL     1       2.705   1.857  18.364  0.00  0.00    +0.000 C 
ENDBRANCH   8  13
BRANCH   9  16
ATOM     16  N   UNL     1       6.098   4.054  16.723  0.00  0.00    +0.000 N 
ATOM     17  C   UNL     1       7.031   4.750  15.843  0.00  0.00    +0.000 C 
ATOM     18  C   UNL     1       7.293   4.625  17.324  0.00  0.00    +0.000 C 
ENDBRANCH   9  16
TORSDOF 3
ENDMDL
MODEL 9
REMARK VINA RESULT:      -5.1      2.630      4.058
REMARK  Name = 
REMARK  3 active torsions:
REMARK  status: ('A' for Active; 'I' for Inactive)
REMARK    1  A    between atoms: C_5  and  N_6
REMARK    2  A    between atoms: C_11  and  N_12
REMARK    3  A    between atoms: C_15  and  N_16
REMARK                            x       y       z     vdW  Elec       q    Type
REMARK                         _______ _______ _______ _____ _____    ______ ____
ROOT
ATOM      1  O   UNL     1       3.054   4.410  20.952  0.00  0.00    +0.000 OA
ATOM      2  C   UNL     1       3.074   4.905  19.829  0.00  0.00    +0.000 C 
ATOM      3  C   UNL     1       2.357   6.160  19.560  0.00  0.00    +0.000 C 
ATOM      4  F   UNL     1       1.396   6.466  20.462  0.00  0.00    +0.000 F 
ATOM      5  C   UNL     1       2.584   6.950  18.508  0.00  0.00    +0.000 C 
ATOM      6  C   UNL     1       3.735   6.527  17.644  0.00  0.00    +0.000 C 
ATOM      7  O   UNL     1       4.395   7.336  16.996  0.00  0.00    +0.000 OA
ATOM      8  C   UNL     1       4.033   5.042  17.574  0.00  0.00    +0.000 C 
ATOM      9  C   UNL     1       3.744   4.261  18.646  0.00  0.00    +0.000 C 
ENDROOT
BRANCH   5  10
ATOM     10  N   UNL     1       1.748   8.027  18.212  0.00  0.00    +0.000 N 
ATOM     11  C   UNL     1       1.541   9.051  19.228  0.00  0.00    +0.000 C 
ATOM     12  C   UNL     1       2.201   9.371  17.911  0.00  0.00    +0.000 C 
ENDBRANCH   5  10
BRANCH   8  13
ATOM     13  N   UNL     1       4.710   4.583  16.436  0.00  0.00    +0.000 N 
ATOM     14  C   UNL     1       5.661   5.473  15.779  0.00  0.00    +0.000 C 
ATOM     15  C   UNL     1       6.126   4.241  16.515  0.00  0.00    +0.000 C 
ENDBRANCH   8  13
BRANCH   9  16
ATOM     16  N   UNL     1       3.879   2.865  18.659  0.00  0.00    +0.000 N 
ATOM     17  C   UNL     1       2.799   2.046  19.199  0.00  0.00    +0.000 C 
ATOM     18  C   UNL     1       3.152   2.012  17.732  0.00  0.00    +0.000 C 
ENDBRANCH   9  16
TORSDOF 3
ENDMDL
