MODEL 1
REMARK VINA RESULT:      -8.9      0.000      0.000
REMARK  Name = 
REMARK  5 active torsions:
REMARK  status: ('A' for Active; 'I' for Inactive)
REMARK    1  A    between atoms: C_1  and  C_2
REMARK    2  A    between atoms: C_2  and  C_3
REMARK    3  A    between atoms: C_2  and  N_4
REMARK    4  A    between atoms: C_9  and  N_10
REMARK    5  A    between atoms: C_11  and  C_13
REMARK                            x       y       z     vdW  Elec       q    Type
REMARK                         _______ _______ _______ _____ _____    ______ ____
ROOT
ATOM      1  N   UNL     1       1.924   8.560  18.403  0.00  0.00    +0.000 N 
ATOM      2  C   UNL     1       1.550   8.743  19.717  0.00  0.00    +0.000 C 
ATOM      3  O   UNL     1       1.925   8.052  20.663  0.00  0.00    +0.000 OA
ATOM      4  H   UNL     1       1.681   9.277  17.736  0.00  0.00    +0.000 HD
ENDROOT
BRANCH   2   5
ATOM      5  C   UNL     1       0.527   9.773  19.999  0.00  0.00    +0.000 A 
ATOM      6  C   UNL     1       0.333  10.566  21.129  0.00  0.00    +0.000 A 
ATOM      7  C   UNL     1      -0.801  11.444  21.216  0.00  0.00    +0.000 A 
ATOM      8  C   UNL     1      -1.710  11.541  20.125  0.00  0.00    +0.000 A 
ATOM      9  C   UNL     1      -2.967  12.173  19.762  0.00  0.00    +0.000 A 
ATOM     10  C   UNL     1      -3.361  11.748  18.471  0.00  0.00    +0.000 A 
ATOM     11  N   UNL     1      -2.305  11.032  18.038  0.00  0.00    +0.000 N 
ATOM     12  C   UNL     1      -1.398  10.779  19.025  0.00  0.00    +0.000 A 
ATOM     13  C   UNL     1      -0.346   9.883  18.943  0.00  0.00    +0.000 A 
ATOM     14  C   UNL     1      -2.023  10.374  16.744  0.00  0.00    +0.000 C 
ATOM     15  C   UNL     1      -2.872   9.947  15.577  0.00  0.00    +0.000 C 
ATOM     16  C   UNL     1      -4.132  10.750  15.419  0.00  0.00    +0.000 C 
ATOM     17  N   UNL     1      -4.893  11.181  16.595  0.00  0.00    +0.000 N 
ATOM     18  C   UNL     1      -4.599  11.924  17.733  0.00  0.00    +0.000 C 
ATOM     19  O   UNL     1      -5.503  12.655  18.140  0.00  0.00    +0.000 OA
ATOM     20  H   UNL     1      -5.845  11.417  16.340  0.00  0.00    +0.000 HD
ENDBRANCH   2   5
BRANCH   1  26
ATOM     21  N   UNL     1       5.169   4.334  17.241  0.00  0.00    +0.000 N 
ATOM     22  N   UNL     1       4.441   3.221  17.528  0.00  0.00    +0.000 NA
ATOM     23  C   UNL     1       3.258   3.711  17.912  0.00  0.00    +0.000 A 
ATOM     24  C   UNL     1       3.212   5.117  17.837  0.00  0.00    +0.000 A 
ATOM     25  C   UNL     1       2.294   6.130  18.139  0.00  0.00    +0.000 A 
ATOM     26  C   UNL     1       2.711   7.462  17.965  0.00  0.00    +0.000 A 
ATOM     27  C   UNL     1       3.956   7.679  17.400  0.00  0.00    +0.000 A 
ATOM     28  N   UNL     1       4.870   6.750  17.083  0.00  0.00    +0.000 NA
ATOM     29  C   UNL     1       4.453   5.491  17.346  0.00  0.00    +0.000 A 
BRANCH  21  31
ATOM     30  C   UNL     1       6.881   4.699  15.504  0.00  0.00    +0.000 C 
ATOM     31  C   UNL     1       6.589   4.208  16.925  0.00  0.00    +0.000 C 
ATOM     32  C   UNL     1       7.457   4.942  17.948  0.00  0.00    +0.000 C 
ENDBRANCH  21  31
ENDBRANCH   1  26
TORSDOF 3
ENDMDL
MODEL 2
REMARK VINA RESULT:      -8.8      2.578      9.507
REMARK  Name = 
REMARK  5 active torsions:
REMARK  status: ('A' for Active; 'I' for Inactive)
REMARK    1  A    between atoms: C_1  and  C_2
REMARK    2  A    between atoms: C_2  and  C_3
REMARK    3  A    between atoms: C_2  and  N_4
REMARK    4  A    between atoms: C_9  and  N_10
REMARK    5  A    between atoms: C_11  and  C_13
REMARK                            x       y       z     vdW  Elec       q    Type
REMARK                         _______ _______ _______ _____ _____    ______ ____
ROOT
ATOM      1  N   UNL     1       1.437   9.040  19.358  0.00  0.00    +0.000 N 
ATOM      2  C   UNL     1       2.177   9.136  18.200  0.00  0.00    +0.000 C 
ATOM      3  O   UNL     1       2.126  10.070  17.401  0.00  0.00    +0.000 OA
ATOM      4  H   UNL     1       1.672   8.309  20.013  0.00  0.00    +0.000 HD
ENDROOT
BRANCH   2   5
ATOM      5  C   UNL     1       3.010   7.974  17.823  0.00  0.00    +0.000 A 
ATOM      6  C   UNL     1       4.088   7.883  16.943  0.00  0.00    +0.000 A 
ATOM      7  C   UNL     1       4.691   6.610  16.660  0.00  0.00    +0.000 A 
ATOM      8  C   UNL     1       4.219   5.438  17.316  0.00  0.00    +0.000 A 
ATOM      9  C   UNL     1       4.418   3.999  17.325  0.00  0.00    +0.000 A 
ATOM     10  C   UNL     1       3.502   3.396  18.221  0.00  0.00    +0.000 A 
ATOM     11  N   UNL     1       2.911   4.446  18.823  0.00  0.00    +0.000 N 
ATOM     12  C   UNL     1       3.205   5.635  18.221  0.00  0.00    +0.000 A 
ATOM     13  C   UNL     1       2.570   6.840  18.464  0.00  0.00    +0.000 A 
ATOM     14  C   UNL     1       1.920   4.526  19.918  0.00  0.00    +0.000 C 
ATOM     15  C   UNL     1       0.953   3.549  20.531  0.00  0.00    +0.000 C 
ATOM     16  C   UNL     1       1.378   2.115  20.400  0.00  0.00    +0.000 C 
ATOM     17  N   UNL     1       2.024   1.637  19.174  0.00  0.00    +0.000 N 
ATOM     18  C   UNL     1       3.157   2.005  18.458  0.00  0.00    +0.000 C 
ATOM     19  O   UNL     1       3.784   1.081  17.939  0.00  0.00    +0.000 OA
ATOM     20  H   UNL     1       1.959   0.628  19.103  0.00  0.00    +0.000 HD
ENDBRANCH   2   5
BRANCH   1  26
ATOM     21  N   UNL     1      -2.201  12.978  20.357  0.00  0.00    +0.000 N 
ATOM     22  N   UNL     1      -3.224  12.764  19.485  0.00  0.00    +0.000 NA
ATOM     23  C   UNL     1      -2.856  11.654  18.837  0.00  0.00    +0.000 A 
ATOM     24  C   UNL     1      -1.633  11.139  19.310  0.00  0.00    +0.000 A 
ATOM     25  C   UNL     1      -0.778  10.076  18.995  0.00  0.00    +0.000 A 
ATOM     26  C   UNL     1       0.427   9.973  19.713  0.00  0.00    +0.000 A 
ATOM     27  C   UNL     1       0.632  10.858  20.758  0.00  0.00    +0.000 A 
ATOM     28  N   UNL     1      -0.153  11.886  21.110  0.00  0.00    +0.000 NA
ATOM     29  C   UNL     1      -1.258  11.992  20.336  0.00  0.00    +0.000 A 
BRANCH  21  31
ATOM     30  C   UNL     1      -1.372  15.299  20.435  0.00  0.00    +0.000 C 
ATOM     31  C   UNL     1      -2.170  14.204  21.149  0.00  0.00    +0.000 C 
ATOM     32  C   UNL     1      -3.581  14.686  21.490  0.00  0.00    +0.000 C 
ENDBRANCH  21  31
ENDBRANCH   1  26
TORSDOF 3
ENDMDL
MODEL 3
REMARK VINA RESULT:      -8.8      1.117      2.002
REMARK  Name = 
REMARK  5 active torsions:
REMARK  status: ('A' for Active; 'I' for Inactive)
REMARK    1  A    between atoms: C_1  and  C_2
REMARK    2  A    between atoms: C_2  and  C_3
REMARK    3  A    between atoms: C_2  and  N_4
REMARK    4  A    between atoms: C_9  and  N_10
REMARK    5  A    between atoms: C_11  and  C_13
REMARK                            x       y       z     vdW  Elec       q    Type
REMARK                         _______ _______ _______ _____ _____    ______ ____
ROOT
ATOM      1  N   UNL     1       1.595   8.525  19.122  0.00  0.00    +0.000 N 
ATOM      2  C   UNL     1       1.251   8.985  20.375  0.00  0.00    +0.000 C 
ATOM      3  O   UNL     1       1.653   8.515  21.438  0.00  0.00    +0.000 OA
ATOM      4  H   UNL     1       1.332   9.082  18.322  0.00  0.00    +0.000 HD
ENDROOT
BRANCH   2   5
ATOM      5  C   UNL     1       0.226  10.048  20.454  0.00  0.00    +0.000 A 
ATOM      6  C   UNL     1      -0.045  10.968  21.467  0.00  0.00    +0.000 A 
ATOM      7  C   UNL     1      -1.167  11.858  21.360  0.00  0.00    +0.000 A 
ATOM      8  C   UNL     1      -1.984  11.837  20.195  0.00  0.00    +0.000 A 
ATOM      9  C   UNL     1      -3.197  12.433  19.661  0.00  0.00    +0.000 A 
ATOM     10  C   UNL     1      -3.493  11.865  18.399  0.00  0.00    +0.000 A 
ATOM     11  N   UNL     1      -2.418  11.096  18.138  0.00  0.00    +0.000 N 
ATOM     12  C   UNL     1      -1.597  10.951  19.218  0.00  0.00    +0.000 A 
ATOM     13  C   UNL     1      -0.557  10.044  19.325  0.00  0.00    +0.000 A 
ATOM     14  C   UNL     1      -2.044  10.293  16.954  0.00  0.00    +0.000 C 
ATOM     15  C   UNL     1      -2.804   9.741  15.777  0.00  0.00    +0.000 C 
ATOM     16  C   UNL     1      -4.033  10.530  15.427  0.00  0.00    +0.000 C 
ATOM     17  N   UNL     1      -4.879  11.098  16.480  0.00  0.00    +0.000 N 
ATOM     18  C   UNL     1      -4.665  11.965  17.547  0.00  0.00    +0.000 C 
ATOM     19  O   UNL     1      -5.586  12.745  17.793  0.00  0.00    +0.000 OA
ATOM     20  H   UNL     1      -5.803  11.311  16.124  0.00  0.00    +0.000 HD
ENDBRANCH   2   5
BRANCH   1  26
ATOM     21  N   UNL     1       4.222   3.894  17.944  0.00  0.00    +0.000 N 
ATOM     22  N   UNL     1       5.069   4.200  16.924  0.00  0.00    +0.000 NA
ATOM     23  C   UNL     1       4.877   5.510  16.741  0.00  0.00    +0.000 A 
ATOM     24  C   UNL     1       3.948   6.047  17.653  0.00  0.00    +0.000 A 
ATOM     25  C   UNL     1       3.350   7.290  17.895  0.00  0.00    +0.000 A 
ATOM     26  C   UNL     1       2.382   7.361  18.912  0.00  0.00    +0.000 A 
ATOM     27  C   UNL     1       2.169   6.229  19.680  0.00  0.00    +0.000 A 
ATOM     28  N   UNL     1       2.718   5.019  19.501  0.00  0.00    +0.000 NA
ATOM     29  C   UNL     1       3.580   4.982  18.459  0.00  0.00    +0.000 A 
BRANCH  21  31
ATOM     30  C   UNL     1       4.335   2.304  19.826  0.00  0.00    +0.000 C 
ATOM     31  C   UNL     1       4.037   2.500  18.337  0.00  0.00    +0.000 C 
ATOM     32  C   UNL     1       2.633   2.002  17.988  0.00  0.00    +0.000 C 
ENDBRANCH  21  31
ENDBRANCH   1  26
TORSDOF 3
ENDMDL
MODEL 4
REMARK VINA RESULT:      -8.7      2.438      9.542
REMARK  Name = 
REMARK  5 active torsions:
REMARK  status: ('A' for Active; 'I' for Inactive)
REMARK    1  A    between atoms: C_1  and  C_2
REMARK    2  A    between atoms: C_2  and  C_3
REMARK    3  A    between atoms: C_2  and  N_4
REMARK    4  A    between atoms: C_9  and  N_10
REMARK    5  A    between atoms: C_11  and  C_13
REMARK                            x       y       z     vdW  Elec       q    Type
REMARK                         _______ _______ _______ _____ _____    ______ ____
ROOT
ATOM      1  N   UNL     1       0.836   8.896  18.530  0.00  0.00    +0.000 N 
ATOM      2  C   UNL     1       2.054   9.174  17.948  0.00  0.00    +0.000 C 
ATOM      3  O   UNL     1       2.408  10.279  17.539  0.00  0.00    +0.000 OA
ATOM      4  H   UNL     1       0.713   7.995  18.968  0.00  0.00    +0.000 HD
ENDROOT
BRANCH   2   5
ATOM      5  C   UNL     1       2.961   8.037  17.685  0.00  0.00    +0.000 A 
ATOM      6  C   UNL     1       4.131   7.971  16.929  0.00  0.00    +0.000 A 
ATOM      7  C   UNL     1       4.804   6.716  16.736  0.00  0.00    +0.000 A 
ATOM      8  C   UNL     1       4.303   5.538  17.359  0.00  0.00    +0.000 A 
ATOM      9  C   UNL     1       4.547   4.107  17.416  0.00  0.00    +0.000 A 
ATOM     10  C   UNL     1       3.560   3.486  18.219  0.00  0.00    +0.000 A 
ATOM     11  N   UNL     1       2.872   4.523  18.734  0.00  0.00    +0.000 N 
ATOM     12  C   UNL     1       3.189   5.712  18.145  0.00  0.00    +0.000 A 
ATOM     13  C   UNL     1       2.492   6.898  18.295  0.00  0.00    +0.000 A 
ATOM     14  C   UNL     1       1.766   4.584  19.713  0.00  0.00    +0.000 C 
ATOM     15  C   UNL     1       0.771   3.582  20.236  0.00  0.00    +0.000 C 
ATOM     16  C   UNL     1       1.255   2.162  20.179  0.00  0.00    +0.000 C 
ATOM     17  N   UNL     1       2.046   1.690  19.039  0.00  0.00    +0.000 N 
ATOM     18  C   UNL     1       3.238   2.087  18.442  0.00  0.00    +0.000 C 
ATOM     19  O   UNL     1       3.948   1.178  18.012  0.00  0.00    +0.000 OA
ATOM     20  H   UNL     1       2.023   0.678  18.979  0.00  0.00    +0.000 HD
ENDBRANCH   2   5
BRANCH   1  26
ATOM     21  N   UNL     1      -3.492  12.152  19.168  0.00  0.00    +0.000 N 
ATOM     22  N   UNL     1      -3.277  12.826  20.330  0.00  0.00    +0.000 NA
ATOM     23  C   UNL     1      -2.076  12.393  20.726  0.00  0.00    +0.000 A 
ATOM     24  C   UNL     1      -1.509  11.482  19.814  0.00  0.00    +0.000 A 
ATOM     25  C   UNL     1      -0.347  10.705  19.729  0.00  0.00    +0.000 A 
ATOM     26  C   UNL     1      -0.215   9.846  18.623  0.00  0.00    +0.000 A 
ATOM     27  C   UNL     1      -1.186   9.911  17.638  0.00  0.00    +0.000 A 
ATOM     28  N   UNL     1      -2.311  10.640  17.661  0.00  0.00    +0.000 NA
ATOM     29  C   UNL     1      -2.430  11.386  18.783  0.00  0.00    +0.000 A 
BRANCH  21  31
ATOM     30  C   UNL     1      -5.465  10.880  18.415  0.00  0.00    +0.000 C 
ATOM     31  C   UNL     1      -4.788  12.251  18.504  0.00  0.00    +0.000 C 
ATOM     32  C   UNL     1      -5.696  13.268  19.196  0.00  0.00    +0.000 C 
ENDBRANCH  21  31
ENDBRANCH   1  26
TORSDOF 3
ENDMDL
MODEL 5
REMARK VINA RESULT:      -8.7      0.794      1.006
REMARK  Name = 
REMARK  5 active torsions:
REMARK  status: ('A' for Active; 'I' for Inactive)
REMARK    1  A    between atoms: C_1  and  C_2
REMARK    2  A    between atoms: C_2  and  C_3
REMARK    3  A    between atoms: C_2  and  N_4
REMARK    4  A    between atoms: C_9  and  N_10
REMARK    5  A    between atoms: C_11  and  C_13
REMARK                            x       y       z     vdW  Elec       q    Type
REMARK                         _______ _______ _______ _____ _____    ______ ____
ROOT
ATOM      1  N   UNL     1       1.649   8.890  18.847  0.00  0.00    +0.000 N 
ATOM      2  C   UNL     1       1.249   9.151  20.139  0.00  0.00    +0.000 C 
ATOM      3  O   UNL     1       1.649   8.557  21.139  0.00  0.00    +0.000 OA
ATOM      4  H   UNL     1       1.375   9.539  18.124  0.00  0.00    +0.000 HD
ENDROOT
BRANCH   2   5
ATOM      5  C   UNL     1       0.166  10.140  20.332  0.00  0.00    +0.000 A 
ATOM      6  C   UNL     1      -0.143  10.937  21.434  0.00  0.00    +0.000 A 
ATOM      7  C   UNL     1      -1.316  11.766  21.426  0.00  0.00    +0.000 A 
ATOM      8  C   UNL     1      -2.146  11.813  20.271  0.00  0.00    +0.000 A 
ATOM      9  C   UNL     1      -3.398  12.387  19.809  0.00  0.00    +0.000 A 
ATOM     10  C   UNL     1      -3.679  11.931  18.499  0.00  0.00    +0.000 A 
ATOM     11  N   UNL     1      -2.566  11.256  18.154  0.00  0.00    +0.000 N 
ATOM     12  C   UNL     1      -1.723  11.052  19.207  0.00  0.00    +0.000 A 
ATOM     13  C   UNL     1      -0.632  10.201  19.215  0.00  0.00    +0.000 A 
ATOM     14  C   UNL     1      -2.163  10.597  16.893  0.00  0.00    +0.000 C 
ATOM     15  C   UNL     1      -2.906  10.121  15.673  0.00  0.00    +0.000 C 
ATOM     16  C   UNL     1      -4.183  10.867  15.413  0.00  0.00    +0.000 C 
ATOM     17  N   UNL     1      -5.046  11.279  16.525  0.00  0.00    +0.000 N 
ATOM     18  C   UNL     1      -4.867  12.046  17.670  0.00  0.00    +0.000 C 
ATOM     19  O   UNL     1      -5.827  12.743  18.001  0.00  0.00    +0.000 OA
ATOM     20  H   UNL     1      -5.985  11.471  16.198  0.00  0.00    +0.000 HD
ENDBRANCH   2   5
BRANCH   1  26
ATOM     21  N   UNL     1       5.318   4.981  17.847  0.00  0.00    +0.000 N 
ATOM     22  N   UNL     1       5.116   4.034  18.803  0.00  0.00    +0.000 NA
ATOM     23  C   UNL     1       4.076   4.506  19.497  0.00  0.00    +0.000 A 
ATOM     24  C   UNL     1       3.590   5.719  18.973  0.00  0.00    +0.000 A 
ATOM     25  C   UNL     1       2.597   6.651  19.297  0.00  0.00    +0.000 A 
ATOM     26  C   UNL     1       2.503   7.808  18.502  0.00  0.00    +0.000 A 
ATOM     27  C   UNL     1       3.319   7.892  17.388  0.00  0.00    +0.000 A 
ATOM     28  N   UNL     1       4.279   7.029  17.025  0.00  0.00    +0.000 NA
ATOM     29  C   UNL     1       4.385   5.976  17.867  0.00  0.00    +0.000 A 
BRANCH  21  31
ATOM     30  C   UNL     1       7.743   4.538  17.771  0.00  0.00    +0.000 C 
ATOM     31  C   UNL     1       6.483   4.890  16.973  0.00  0.00    +0.000 C 
ATOM     32  C   UNL     1       6.256   3.890  15.838  0.00  0.00    +0.000 C 
ENDBRANCH  21  31
ENDBRANCH   1  26
TORSDOF 3
ENDMDL
MODEL 6
REMARK VINA RESULT:      -8.6      3.729     10.224
REMARK  Name = 
REMARK  5 active torsions:
REMARK  status: ('A' for Active; 'I' for Inactive)
REMARK    1  A    between atoms: C_1  and  C_2
REMARK    2  A    between atoms: C_2  and  C_3
REMARK    3  A    between atoms: C_2  and  N_4
REMARK    4  A    between atoms: C_9  and  N_10
REMARK    5  A    between atoms: C_11  and  C_13
REMARK                            x       y       z     vdW  Elec       q    Type
REMARK                         _______ _______ _______ _____ _____    ______ ____
ROOT
ATOM      1  N   UNL     1      -0.141  10.954  20.829  0.00  0.00    +0.000 N 
ATOM      2  C   UNL     1       0.444   9.735  21.095  0.00  0.00    +0.000 C 
ATOM      3  O   UNL     1       0.448   9.175  22.190  0.00  0.00    +0.000 OA
ATOM      4  H   UNL     1      -0.219  11.243  19.865  0.00  0.00    +0.000 HD
ENDROOT
BRANCH   2   5
ATOM      5  C   UNL     1       1.231   9.104  20.014  0.00  0.00    +0.000 A 
ATOM      6  C   UNL     1       1.669   9.623  18.796  0.00  0.00    +0.000 A 
ATOM      7  C   UNL     1       2.349   8.782  17.849  0.00  0.00    +0.000 A 
ATOM      8  C   UNL     1       2.618   7.421  18.171  0.00  0.00    +0.000 A 
ATOM      9  C   UNL     1       3.165   6.214  17.578  0.00  0.00    +0.000 A 
ATOM     10  C   UNL     1       3.050   5.138  18.492  0.00  0.00    +0.000 A 
ATOM     11  N   UNL     1       2.606   5.727  19.619  0.00  0.00    +0.000 N 
ATOM     12  C   UNL     1       2.215   7.019  19.422  0.00  0.00    +0.000 A 
ATOM     13  C   UNL     1       1.508   7.794  20.324  0.00  0.00    +0.000 A 
ATOM     14  C   UNL     1       2.352   5.195  20.975  0.00  0.00    +0.000 C 
ATOM     15  C   UNL     1       2.146   3.815  21.540  0.00  0.00    +0.000 C 
ATOM     16  C   UNL     1       2.803   2.729  20.736  0.00  0.00    +0.000 C 
ATOM     17  N   UNL     1       2.813   2.787  19.272  0.00  0.00    +0.000 N 
ATOM     18  C   UNL     1       3.261   3.710  18.333  0.00  0.00    +0.000 C 
ATOM     19  O   UNL     1       3.744   3.233  17.305  0.00  0.00    +0.000 OA
ATOM     20  H   UNL     1       2.991   1.872  18.876  0.00  0.00    +0.000 HD
ENDBRANCH   2   5
BRANCH   1  26
ATOM     21  N   UNL     1      -2.656  14.351  24.275  0.00  0.00    +0.000 N 
ATOM     22  N   UNL     1      -3.782  13.701  24.676  0.00  0.00    +0.000 NA
ATOM     23  C   UNL     1      -3.696  12.517  24.062  0.00  0.00    +0.000 A 
ATOM     24  C   UNL     1      -2.514  12.391  23.307  0.00  0.00    +0.000 A 
ATOM     25  C   UNL     1      -1.935  11.439  22.459  0.00  0.00    +0.000 A 
ATOM     26  C   UNL     1      -0.721  11.773  21.834  0.00  0.00    +0.000 A 
ATOM     27  C   UNL     1      -0.122  12.971  22.187  0.00  0.00    +0.000 A 
ATOM     28  N   UNL     1      -0.624  13.914  22.997  0.00  0.00    +0.000 NA
ATOM     29  C   UNL     1      -1.831  13.580  23.508  0.00  0.00    +0.000 A 
BRANCH  21  31
ATOM     30  C   UNL     1      -3.813  16.452  24.848  0.00  0.00    +0.000 C 
ATOM     31  C   UNL     1      -2.467  15.755  24.627  0.00  0.00    +0.000 C 
ATOM     32  C   UNL     1      -1.561  15.909  25.850  0.00  0.00    +0.000 C 
ENDBRANCH  21  31
ENDBRANCH   1  26
TORSDOF 3
ENDMDL
MODEL 7
REMARK VINA RESULT:      -8.6      1.267      1.416
REMARK  Name = 
REMARK  5 active torsions:
REMARK  status: ('A' for Active; 'I' for Inactive)
REMARK    1  A    between atoms: C_1  and  C_2
REMARK    2  A    between atoms: C_2  and  C_3
REMARK    3  A    between atoms: C_2  and  N_4
REMARK    4  A    between atoms: C_9  and  N_10
REMARK    5  A    between atoms: C_11  and  C_13
REMARK                            x       y       z     vdW  Elec       q    Type
REMARK                         _______ _______ _______ _____ _____    ______ ____
ROOT
ATOM      1  N   UNL     1       1.656   7.982  18.874  0.00  0.00    +0.000 N 
ATOM      2  C   UNL     1       1.443   9.254  18.391  0.00  0.00    +0.000 C 
ATOM      3  O   UNL     1       1.899   9.699  17.339  0.00  0.00    +0.000 OA
ATOM      4  H   UNL     1       1.109   7.675  19.665  0.00  0.00    +0.000 HD
ENDROOT
BRANCH   2   5
ATOM      5  C   UNL     1       0.709  10.200  19.259  0.00  0.00    +0.000 A 
ATOM      6  C   UNL     1       1.060  10.755  20.489  0.00  0.00    +0.000 A 
ATOM      7  C   UNL     1       0.132  11.590  21.202  0.00  0.00    +0.000 A 
ATOM      8  C   UNL     1      -1.137  11.891  20.632  0.00  0.00    +0.000 A 
ATOM      9  C   UNL     1      -2.380  12.571  20.953  0.00  0.00    +0.000 A 
ATOM     10  C   UNL     1      -3.304  12.404  19.893  0.00  0.00    +0.000 A 
ATOM     11  N   UNL     1      -2.578  11.795  18.935  0.00  0.00    +0.000 N 
ATOM     12  C   UNL     1      -1.365  11.361  19.385  0.00  0.00    +0.000 A 
ATOM     13  C   UNL     1      -0.512  10.508  18.708  0.00  0.00    +0.000 A 
ATOM     14  C   UNL     1      -2.907  11.406  17.547  0.00  0.00    +0.000 C 
ATOM     15  C   UNL     1      -4.193  11.209  16.789  0.00  0.00    +0.000 C 
ATOM     16  C   UNL     1      -5.341  12.016  17.323  0.00  0.00    +0.000 C 
ATOM     17  N   UNL     1      -5.513  12.202  18.767  0.00  0.00    +0.000 N 
ATOM     18  C   UNL     1      -4.719  12.710  19.790  0.00  0.00    +0.000 C 
ATOM     19  O   UNL     1      -5.316  13.340  20.664  0.00  0.00    +0.000 OA
ATOM     20  H   UNL     1      -6.464  12.476  18.984  0.00  0.00    +0.000 HD
ENDBRANCH   2   5
BRANCH   1  26
ATOM     21  N   UNL     1       5.259   4.336  17.013  0.00  0.00    +0.000 N 
ATOM     22  N   UNL     1       4.632   3.130  17.080  0.00  0.00    +0.000 NA
ATOM     23  C   UNL     1       3.410   3.438  17.528  0.00  0.00    +0.000 A 
ATOM     24  C   UNL     1       3.241   4.824  17.710  0.00  0.00    +0.000 A 
ATOM     25  C   UNL     1       2.238   5.682  18.177  0.00  0.00    +0.000 A 
ATOM     26  C   UNL     1       2.537   7.054  18.256  0.00  0.00    +0.000 A 
ATOM     27  C   UNL     1       3.758   7.477  17.760  0.00  0.00    +0.000 A 
ATOM     28  N   UNL     1       4.750   6.705  17.294  0.00  0.00    +0.000 NA
ATOM     29  C   UNL     1       4.444   5.388  17.316  0.00  0.00    +0.000 A 
BRANCH  21  31
ATOM     30  C   UNL     1       6.924   5.055  15.341  0.00  0.00    +0.000 C 
ATOM     31  C   UNL     1       6.685   4.393  16.702  0.00  0.00    +0.000 C 
ATOM     32  C   UNL     1       7.470   5.105  17.804  0.00  0.00    +0.000 C 
ENDBRANCH  21  31
ENDBRANCH   1  26
TORSDOF 3
ENDMDL
MODEL 8
REMARK VINA RESULT:      -8.5      1.464      1.769
REMARK  Name = 
REMARK  5 active torsions:
REMARK  status: ('A' for Active; 'I' for Inactive)
REMARK    1  A    between atoms: C_1  and  C_2
REMARK    2  A    between atoms: C_2  and  C_3
REMARK    3  A    between atoms: C_2  and  N_4
REMARK    4  A    between atoms: C_9  and  N_10
REMARK    5  A    between atoms: C_11  and  C_13
REMARK                            x       y       z     vdW  Elec       q    Type
REMARK                         _______ _______ _______ _____ _____    ______ ____
ROOT
ATOM      1  N   UNL     1       1.525   8.212  19.591  0.00  0.00    +0.000 N 
ATOM      2  C   UNL     1       1.160   9.362  18.925  0.00  0.00    +0.000 C 
ATOM      3  O   UNL     1       1.483   9.648  17.774  0.00  0.00    +0.000 OA
ATOM      4  H   UNL     1       1.076   8.009  20.472  0.00  0.00    +0.000 HD
ENDROOT
BRANCH   2   5
ATOM      5  C   UNL     1       0.422  10.389  19.692  0.00  0.00    +0.000 A 
ATOM      6  C   UNL     1       0.761  11.052  20.870  0.00  0.00    +0.000 A 
ATOM      7  C   UNL     1      -0.169  11.956  21.490  0.00  0.00    +0.000 A 
ATOM      8  C   UNL     1      -1.427  12.213  20.877  0.00  0.00    +0.000 A 
ATOM      9  C   UNL     1      -2.669  12.929  21.115  0.00  0.00    +0.000 A 
ATOM     10  C   UNL     1      -3.579  12.671  20.063  0.00  0.00    +0.000 A 
ATOM     11  N   UNL     1      -2.846  11.971  19.175  0.00  0.00    +0.000 N 
ATOM     12  C   UNL     1      -1.643  11.572  19.680  0.00  0.00    +0.000 A 
ATOM     13  C   UNL     1      -0.788  10.654  19.097  0.00  0.00    +0.000 A 
ATOM     14  C   UNL     1      -3.159  11.459  17.824  0.00  0.00    +0.000 C 
ATOM     15  C   UNL     1      -4.436  11.202  17.069  0.00  0.00    +0.000 C 
ATOM     16  C   UNL     1      -5.584  12.063  17.510  0.00  0.00    +0.000 C 
ATOM     17  N   UNL     1      -5.775  12.383  18.928  0.00  0.00    +0.000 N 
ATOM     18  C   UNL     1      -4.991  12.977  19.911  0.00  0.00    +0.000 C 
ATOM     19  O   UNL     1      -5.594  13.689  20.715  0.00  0.00    +0.000 OA
ATOM     20  H   UNL     1      -6.726  12.682  19.105  0.00  0.00    +0.000 HD
ENDBRANCH   2   5
BRANCH   1  26
ATOM     21  N   UNL     1       5.383   4.767  17.860  0.00  0.00    +0.000 N 
ATOM     22  N   UNL     1       5.293   3.677  18.670  0.00  0.00    +0.000 NA
ATOM     23  C   UNL     1       4.262   3.966  19.470  0.00  0.00    +0.000 A 
ATOM     24  C   UNL     1       3.672   5.205  19.156  0.00  0.00    +0.000 A 
ATOM     25  C   UNL     1       2.638   6.005  19.657  0.00  0.00    +0.000 A 
ATOM     26  C   UNL     1       2.428   7.256  19.051  0.00  0.00    +0.000 A 
ATOM     27  C   UNL     1       3.179   7.563  17.929  0.00  0.00    +0.000 A 
ATOM     28  N   UNL     1       4.172   6.835  17.401  0.00  0.00    +0.000 NA
ATOM     29  C   UNL     1       4.389   5.679  18.069  0.00  0.00    +0.000 A 
BRANCH  21  31
ATOM     30  C   UNL     1       7.823   4.507  17.615  0.00  0.00    +0.000 C 
ATOM     31  C   UNL     1       6.505   4.891  16.935  0.00  0.00    +0.000 C 
ATOM     32  C   UNL     1       6.281   4.062  15.669  0.00  0.00    +0.000 C 
ENDBRANCH  21  31
ENDBRANCH   1  26
TORSDOF 3
ENDMDL
MODEL 9
REMARK VINA RESULT:      -8.4      3.756      9.813
REMARK  Name = 
REMARK  5 active torsions:
REMARK  status: ('A' for Active; 'I' for Inactive)
REMARK    1  A    between atoms: C_1  and  C_2
REMARK    2  A    between atoms: C_2  and  C_3
REMARK    3  A    between atoms: C_2  and  N_4
REMARK    4  A    between atoms: C_9  and  N_10
REMARK    5  A    between atoms: C_11  and  C_13
REMARK                            x       y       z     vdW  Elec       q    Type
REMARK                         _______ _______ _______ _____ _____    ______ ____
ROOT
ATOM      1  N   UNL     1       1.439  11.121  19.654  0.00  0.00    +0.000 N 
ATOM      2  C   UNL     1       1.607  10.049  18.805  0.00  0.00    +0.000 C 
ATOM      3  O   UNL     1       1.642  10.115  17.577  0.00  0.00    +0.000 OA
ATOM      4  H   UNL     1       1.581  10.972  20.642  0.00  0.00    +0.000 HD
ENDROOT
BRANCH   2   5
ATOM      5  C   UNL     1       1.627   8.698  19.406  0.00  0.00    +0.000 A 
ATOM      6  C   UNL     1       0.917   8.181  20.490  0.00  0.00    +0.000 A 
ATOM      7  C   UNL     1       1.174   6.848  20.959  0.00  0.00    +0.000 A 
ATOM      8  C   UNL     1       2.126   6.029  20.289  0.00  0.00    +0.000 A 
ATOM      9  C   UNL     1       2.767   4.730  20.400  0.00  0.00    +0.000 A 
ATOM     10  C   UNL     1       3.731   4.583  19.373  0.00  0.00    +0.000 A 
ATOM     11  N   UNL     1       3.545   5.675  18.607  0.00  0.00    +0.000 N 
ATOM     12  C   UNL     1       2.722   6.596  19.188  0.00  0.00    +0.000 A 
ATOM     13  C   UNL     1       2.534   7.896  18.755  0.00  0.00    +0.000 A 
ATOM     14  C   UNL     1       4.161   6.102  17.332  0.00  0.00    +0.000 C 
ATOM     15  C   UNL     1       5.415   5.718  16.592  0.00  0.00    +0.000 C 
ATOM     16  C   UNL     1       5.888   4.323  16.886  0.00  0.00    +0.000 C 
ATOM     17  N   UNL     1       5.794   3.774  18.242  0.00  0.00    +0.000 N 
ATOM     18  C   UNL     1       4.759   3.582  19.151  0.00  0.00    +0.000 C 
ATOM     19  O   UNL     1       4.834   2.561  19.836  0.00  0.00    +0.000 OA
ATOM     20  H   UNL     1       6.421   2.987  18.356  0.00  0.00    +0.000 HD
ENDBRANCH   2   5
BRANCH   1  26
ATOM     21  N   UNL     1       0.395  16.334  18.438  0.00  0.00    +0.000 N 
ATOM     22  N   UNL     1       1.609  16.926  18.282  0.00  0.00    +0.000 NA
ATOM     23  C   UNL     1       2.472  15.920  18.456  0.00  0.00    +0.000 A 
ATOM     24  C   UNL     1       1.823  14.691  18.683  0.00  0.00    +0.000 A 
ATOM     25  C   UNL     1       2.195  13.371  18.962  0.00  0.00    +0.000 A 
ATOM     26  C   UNL     1       1.169  12.438  19.196  0.00  0.00    +0.000 A 
ATOM     27  C   UNL     1      -0.138  12.861  19.021  0.00  0.00    +0.000 A 
ATOM     28  N   UNL     1      -0.552  14.106  18.747  0.00  0.00    +0.000 NA
ATOM     29  C   UNL     1       0.470  14.982  18.613  0.00  0.00    +0.000 A 
BRANCH  21  31
ATOM     30  C   UNL     1      -1.069  17.704  19.874  0.00  0.00    +0.000 C 
ATOM     31  C   UNL     1      -0.812  17.155  18.468  0.00  0.00    +0.000 C 
ATOM     32  C   UNL     1      -0.744  18.287  17.441  0.00  0.00    +0.000 C 
ENDBRANCH  21  31
ENDBRANCH   1  26
TORSDOF 3
ENDMDL
