MODEL 1
REMARK VINA RESULT:      -9.4      0.000      0.000
REMARK  Name = 
REMARK  4 active torsions:
REMARK  status: ('A' for Active; 'I' for Inactive)
REMARK    1  A    between atoms: C_7  and  C_8
REMARK    2  A    between atoms: C_13  and  C_14
REMARK    3  A    between atoms: C_17  and  S_18
REMARK    4  A    between atoms: S_18  and  C_19
REMARK                            x       y       z     vdW  Elec       q    Type
REMARK                         _______ _______ _______ _____ _____    ______ ____
ROOT
ATOM      1  N   UNL     1       0.903   4.493  20.134  0.00  0.00    +0.000 N 
ATOM      2  C   UNL     1       1.868   3.857  19.407  0.00  0.00    +0.000 A 
ATOM      3  N   UNL     1       1.887   2.549  19.560  0.00  0.00    +0.000 NA
ATOM      4  C   UNL     1       2.792   1.804  18.841  0.00  0.00    +0.000 A 
ATOM      5  C   UNL     1       3.669   2.329  17.975  0.00  0.00    +0.000 A 
ATOM      6  N   UNL     1       3.679   3.699  17.803  0.00  0.00    +0.000 N 
ATOM      7  C   UNL     1       4.457   4.519  17.014  0.00  0.00    +0.000 A 
ATOM      8  N   UNL     1       4.082   5.778  17.135  0.00  0.00    +0.000 NA
ATOM      9  C   UNL     1       3.101   5.796  18.108  0.00  0.00    +0.000 A 
ATOM     10  C   UNL     1       2.801   4.503  18.505  0.00  0.00    +0.000 A 
ATOM     11  H   UNL     1       0.247   3.833  20.537  0.00  0.00    +0.000 HD
ATOM     12  H   UNL     1       0.446   5.266  19.663  0.00  0.00    +0.000 HD
ENDROOT
BRANCH   9  13
ATOM     13  C   UNL     1       2.505   7.045  18.560  0.00  0.00    +0.000 A 
ATOM     14  C   UNL     1       2.288   8.082  17.643  0.00  0.00    +0.000 A 
ATOM     15  C   UNL     1       1.662   9.270  18.043  0.00  0.00    +0.000 A 
ATOM     16  C   UNL     1       1.211   9.426  19.356  0.00  0.00    +0.000 A 
ATOM     17  C   UNL     1       1.481   8.425  20.288  0.00  0.00    +0.000 A 
ATOM     18  C   UNL     1       2.160   7.264  19.898  0.00  0.00    +0.000 A 
BRANCH  16  19
ATOM     19  S   UNL     1       0.363  10.911  19.848  0.00  0.00    +0.000 S 
BRANCH  19  20
ATOM     20  C   UNL     1      -1.196  10.841  18.973  0.00  0.00    +0.000 A 
ATOM     21  C   UNL     1      -2.183  11.776  19.320  0.00  0.00    +0.000 A 
ATOM     22  C   UNL     1      -3.410  11.807  18.650  0.00  0.00    +0.000 A 
ATOM     23  C   UNL     1      -3.665  10.904  17.620  0.00  0.00    +0.000 A 
ATOM     24  C   UNL     1      -2.691   9.977  17.259  0.00  0.00    +0.000 A 
ATOM     25  C   UNL     1      -1.463   9.947  17.929  0.00  0.00    +0.000 A 
ENDBRANCH  19  20
ENDBRANCH  16  19
ENDBRANCH   9  13
BRANCH   7  26
ATOM     26  C   UNL     1       5.645   4.066  16.170  0.00  0.00    +0.000 C 
ATOM     27  C   UNL     1       5.589   4.506  14.676  0.00  0.00    +0.000 C 
ATOM     28  C   UNL     1       7.105   4.769  14.766  0.00  0.00    +0.000 C 
ATOM     29  C   UNL     1       6.888   5.001  16.271  0.00  0.00    +0.000 C 
ENDBRANCH   7  26
TORSDOF 4
ENDMDL
MODEL 2
REMARK VINA RESULT:      -9.0      0.279      1.338
REMARK  Name = 
REMARK  4 active torsions:
REMARK  status: ('A' for Active; 'I' for Inactive)
REMARK    1  A    between atoms: C_7  and  C_8
REMARK    2  A    between atoms: C_13  and  C_14
REMARK    3  A    between atoms: C_17  and  S_18
REMARK    4  A    between atoms: S_18  and  C_19
REMARK                            x       y       z     vdW  Elec       q    Type
REMARK                         _______ _______ _______ _____ _____    ______ ____
ROOT
ATOM      1  N   UNL     1       0.860   4.394  20.010  0.00  0.00    +0.000 N 
ATOM      2  C   UNL     1       1.884   3.806  19.327  0.00  0.00    +0.000 A 
ATOM      3  N   UNL     1       1.941   2.497  19.458  0.00  0.00    +0.000 NA
ATOM      4  C   UNL     1       2.911   1.798  18.777  0.00  0.00    +0.000 A 
ATOM      5  C   UNL     1       3.814   2.370  17.970  0.00  0.00    +0.000 A 
ATOM      6  N   UNL     1       3.785   3.743  17.823  0.00  0.00    +0.000 N 
ATOM      7  C   UNL     1       4.576   4.604  17.093  0.00  0.00    +0.000 A 
ATOM      8  N   UNL     1       4.150   5.847  17.215  0.00  0.00    +0.000 NA
ATOM      9  C   UNL     1       3.117   5.812  18.132  0.00  0.00    +0.000 A 
ATOM     10  C   UNL     1       2.842   4.502  18.489  0.00  0.00    +0.000 A 
ATOM     11  H   UNL     1       0.206   3.704  20.364  0.00  0.00    +0.000 HD
ATOM     12  H   UNL     1       0.401   5.160  19.528  0.00  0.00    +0.000 HD
ENDROOT
BRANCH   9  13
ATOM     13  C   UNL     1       2.453   7.030  18.572  0.00  0.00    +0.000 A 
ATOM     14  C   UNL     1       2.061   7.163  19.911  0.00  0.00    +0.000 A 
ATOM     15  C   UNL     1       1.474   8.349  20.370  0.00  0.00    +0.000 A 
ATOM     16  C   UNL     1       1.301   9.434  19.507  0.00  0.00    +0.000 A 
ATOM     17  C   UNL     1       1.629   9.286  18.160  0.00  0.00    +0.000 A 
ATOM     18  C   UNL     1       2.160   8.079  17.692  0.00  0.00    +0.000 A 
BRANCH  16  19
ATOM     19  S   UNL     1       0.610  10.961  20.105  0.00  0.00    +0.000 S 
BRANCH  19  20
ATOM     20  C   UNL     1      -0.995  11.057  19.319  0.00  0.00    +0.000 A 
ATOM     21  C   UNL     1      -1.311  10.087  18.356  0.00  0.00    +0.000 A 
ATOM     22  C   UNL     1      -2.561  10.075  17.731  0.00  0.00    +0.000 A 
ATOM     23  C   UNL     1      -3.515  11.034  18.065  0.00  0.00    +0.000 A 
ATOM     24  C   UNL     1      -3.220  11.997  19.025  0.00  0.00    +0.000 A 
ATOM     25  C   UNL     1      -1.968  12.007  19.651  0.00  0.00    +0.000 A 
ENDBRANCH  19  20
ENDBRANCH  16  19
ENDBRANCH   9  13
BRANCH   7  26
ATOM     26  C   UNL     1       5.823   4.208  16.308  0.00  0.00    +0.000 C 
ATOM     27  C   UNL     1       5.646   4.205  14.760  0.00  0.00    +0.000 C 
ATOM     28  C   UNL     1       7.062   4.806  14.664  0.00  0.00    +0.000 C 
ATOM     29  C   UNL     1       6.820   5.383  16.068  0.00  0.00    +0.000 C 
ENDBRANCH   7  26
TORSDOF 4
ENDMDL
MODEL 3
REMARK VINA RESULT:      -9.0      0.607      1.114
REMARK  Name = 
REMARK  4 active torsions:
REMARK  status: ('A' for Active; 'I' for Inactive)
REMARK    1  A    between atoms: C_7  and  C_8
REMARK    2  A    between atoms: C_13  and  C_14
REMARK    3  A    between atoms: C_17  and  S_18
REMARK    4  A    between atoms: S_18  and  C_19
REMARK                            x       y       z     vdW  Elec       q    Type
REMARK                         _______ _______ _______ _____ _____    ______ ____
ROOT
ATOM      1  N   UNL     1       1.012   4.749  20.455  0.00  0.00    +0.000 N 
ATOM      2  C   UNL     1       2.110   4.178  19.881  0.00  0.00    +0.000 A 
ATOM      3  N   UNL     1       2.280   2.907  20.182  0.00  0.00    +0.000 NA
ATOM      4  C   UNL     1       3.334   2.222  19.623  0.00  0.00    +0.000 A 
ATOM      5  C   UNL     1       4.212   2.769  18.772  0.00  0.00    +0.000 A 
ATOM      6  N   UNL     1       4.064   4.104  18.447  0.00  0.00    +0.000 N 
ATOM      7  C   UNL     1       4.801   4.936  17.632  0.00  0.00    +0.000 A 
ATOM      8  N   UNL     1       4.260   6.139  17.580  0.00  0.00    +0.000 NA
ATOM      9  C   UNL     1       3.201   6.123  18.467  0.00  0.00    +0.000 A 
ATOM     10  C   UNL     1       3.032   4.849  18.985  0.00  0.00    +0.000 A 
ATOM     11  H   UNL     1       0.411   4.051  20.880  0.00  0.00    +0.000 HD
ATOM     12  H   UNL     1       0.505   5.400  19.867  0.00  0.00    +0.000 HD
ENDROOT
BRANCH   9  13
ATOM     13  C   UNL     1       2.414   7.319  18.728  0.00  0.00    +0.000 A 
ATOM     14  C   UNL     1       1.973   7.590  20.030  0.00  0.00    +0.000 A 
ATOM     15  C   UNL     1       1.265   8.764  20.316  0.00  0.00    +0.000 A 
ATOM     16  C   UNL     1       1.016   9.704  19.312  0.00  0.00    +0.000 A 
ATOM     17  C   UNL     1       1.395   9.411  18.002  0.00  0.00    +0.000 A 
ATOM     18  C   UNL     1       2.050   8.208  17.710  0.00  0.00    +0.000 A 
BRANCH  16  19
ATOM     19  S   UNL     1       0.168  11.222  19.687  0.00  0.00    +0.000 S 
BRANCH  19  20
ATOM     20  C   UNL     1      -1.456  11.011  18.968  0.00  0.00    +0.000 A 
ATOM     21  C   UNL     1      -2.449  11.943  19.310  0.00  0.00    +0.000 A 
ATOM     22  C   UNL     1      -3.729  11.865  18.754  0.00  0.00    +0.000 A 
ATOM     23  C   UNL     1      -4.033  10.855  17.844  0.00  0.00    +0.000 A 
ATOM     24  C   UNL     1      -3.056   9.929  17.488  0.00  0.00    +0.000 A 
ATOM     25  C   UNL     1      -1.775  10.009  18.044  0.00  0.00    +0.000 A 
ENDBRANCH  19  20
ENDBRANCH  16  19
ENDBRANCH   9  13
BRANCH   7  26
ATOM     26  C   UNL     1       6.107   4.563  16.937  0.00  0.00    +0.000 C 
ATOM     27  C   UNL     1       5.936   3.897  15.538  0.00  0.00    +0.000 C 
ATOM     28  C   UNL     1       7.150   4.722  15.071  0.00  0.00    +0.000 C 
ATOM     29  C   UNL     1       6.769   5.740  16.158  0.00  0.00    +0.000 C 
ENDBRANCH   7  26
TORSDOF 4
ENDMDL
MODEL 4
REMARK VINA RESULT:      -8.9      1.970      2.728
REMARK  Name = 
REMARK  4 active torsions:
REMARK  status: ('A' for Active; 'I' for Inactive)
REMARK    1  A    between atoms: C_7  and  C_8
REMARK    2  A    between atoms: C_13  and  C_14
REMARK    3  A    between atoms: C_17  and  S_18
REMARK    4  A    between atoms: S_18  and  C_19
REMARK                            x       y       z     vdW  Elec       q    Type
REMARK                         _______ _______ _______ _____ _____    ______ ____
ROOT
ATOM      1  N   UNL     1       0.911   4.424  19.987  0.00  0.00    +0.000 N 
ATOM      2  C   UNL     1       1.910   3.825  19.277  0.00  0.00    +0.000 A 
ATOM      3  N   UNL     1       1.951   2.514  19.398  0.00  0.00    +0.000 NA
ATOM      4  C   UNL     1       2.893   1.806  18.691  0.00  0.00    +0.000 A 
ATOM      5  C   UNL     1       3.786   2.368  17.865  0.00  0.00    +0.000 A 
ATOM      6  N   UNL     1       3.774   3.743  17.727  0.00  0.00    +0.000 N 
ATOM      7  C   UNL     1       4.559   4.597  16.984  0.00  0.00    +0.000 A 
ATOM      8  N   UNL     1       4.155   5.845  17.123  0.00  0.00    +0.000 NA
ATOM      9  C   UNL     1       3.144   5.819  18.064  0.00  0.00    +0.000 A 
ATOM     10  C   UNL     1       2.858   4.512  18.420  0.00  0.00    +0.000 A 
ATOM     11  H   UNL     1       0.256   3.742  20.353  0.00  0.00    +0.000 HD
ATOM     12  H   UNL     1       0.453   5.199  19.521  0.00  0.00    +0.000 HD
ENDROOT
BRANCH   9  13
ATOM     13  C   UNL     1       2.509   7.045  18.527  0.00  0.00    +0.000 A 
ATOM     14  C   UNL     1       2.142   8.030  17.600  0.00  0.00    +0.000 A 
ATOM     15  C   UNL     1       1.477   9.190  18.015  0.00  0.00    +0.000 A 
ATOM     16  C   UNL     1       1.136   9.369  19.358  0.00  0.00    +0.000 A 
ATOM     17  C   UNL     1       1.554   8.424  20.294  0.00  0.00    +0.000 A 
ATOM     18  C   UNL     1       2.271   7.295  19.883  0.00  0.00    +0.000 A 
BRANCH  16  19
ATOM     19  S   UNL     1       0.238  10.816  19.876  0.00  0.00    +0.000 S 
BRANCH  19  20
ATOM     20  C   UNL     1       1.396  12.161  19.647  0.00  0.00    +0.000 A 
ATOM     21  C   UNL     1       1.765  12.906  20.777  0.00  0.00    +0.000 A 
ATOM     22  C   UNL     1       2.696  13.944  20.681  0.00  0.00    +0.000 A 
ATOM     23  C   UNL     1       3.275  14.249  19.451  0.00  0.00    +0.000 A 
ATOM     24  C   UNL     1       2.926  13.512  18.322  0.00  0.00    +0.000 A 
ATOM     25  C   UNL     1       1.995  12.472  18.420  0.00  0.00    +0.000 A 
ENDBRANCH  19  20
ENDBRANCH  16  19
ENDBRANCH   9  13
BRANCH   7  26
ATOM     26  C   UNL     1       5.782   4.188  16.167  0.00  0.00    +0.000 C 
ATOM     27  C   UNL     1       5.597   4.285  14.622  0.00  0.00    +0.000 C 
ATOM     28  C   UNL     1       7.041   4.820  14.551  0.00  0.00    +0.000 C 
ATOM     29  C   UNL     1       6.835   5.324  15.989  0.00  0.00    +0.000 C 
ENDBRANCH   7  26
TORSDOF 4
ENDMDL
MODEL 5
REMARK VINA RESULT:      -8.6      1.724      2.328
REMARK  Name = 
REMARK  4 active torsions:
REMARK  status: ('A' for Active; 'I' for Inactive)
REMARK    1  A    between atoms: C_7  and  C_8
REMARK    2  A    between atoms: C_13  and  C_14
REMARK    3  A    between atoms: C_17  and  S_18
REMARK    4  A    between atoms: S_18  and  C_19
REMARK                            x       y       z     vdW  Elec       q    Type
REMARK                         _______ _______ _______ _____ _____    ______ ____
ROOT
ATOM      1  N   UNL     1       0.666   4.193  20.371  0.00  0.00    +0.000 N 
ATOM      2  C   UNL     1       1.600   3.667  19.527  0.00  0.00    +0.000 A 
ATOM      3  N   UNL     1       1.613   2.351  19.485  0.00  0.00    +0.000 NA
ATOM      4  C   UNL     1       2.488   1.717  18.634  0.00  0.00    +0.000 A 
ATOM      5  C   UNL     1       3.339   2.361  17.824  0.00  0.00    +0.000 A 
ATOM      6  N   UNL     1       3.355   3.742  17.856  0.00  0.00    +0.000 N 
ATOM      7  C   UNL     1       4.113   4.666  17.170  0.00  0.00    +0.000 A 
ATOM      8  N   UNL     1       3.753   5.895  17.487  0.00  0.00    +0.000 NA
ATOM      9  C   UNL     1       2.805   5.772  18.485  0.00  0.00    +0.000 A 
ATOM     10  C   UNL     1       2.507   4.437  18.698  0.00  0.00    +0.000 A 
ATOM     11  H   UNL     1       0.018   3.483  20.696  0.00  0.00    +0.000 HD
ATOM     12  H   UNL     1       0.200   5.028  20.036  0.00  0.00    +0.000 HD
ENDROOT
BRANCH   9  13
ATOM     13  C   UNL     1       2.235   6.943  19.136  0.00  0.00    +0.000 A 
ATOM     14  C   UNL     1       1.945   8.086  18.379  0.00  0.00    +0.000 A 
ATOM     15  C   UNL     1       1.342   9.203  18.971  0.00  0.00    +0.000 A 
ATOM     16  C   UNL     1       0.986   9.182  20.323  0.00  0.00    +0.000 A 
ATOM     17  C   UNL     1       1.329   8.073  21.096  0.00  0.00    +0.000 A 
ATOM     18  C   UNL     1       1.986   6.983  20.512  0.00  0.00    +0.000 A 
BRANCH  16  19
ATOM     19  S   UNL     1       0.166  10.577  21.061  0.00  0.00    +0.000 S 
BRANCH  19  20
ATOM     20  C   UNL     1       0.744  11.982  20.115  0.00  0.00    +0.000 A 
ATOM     21  C   UNL     1      -0.117  12.513  19.142  0.00  0.00    +0.000 A 
ATOM     22  C   UNL     1       0.251  13.635  18.393  0.00  0.00    +0.000 A 
ATOM     23  C   UNL     1       1.485  14.244  18.611  0.00  0.00    +0.000 A 
ATOM     24  C   UNL     1       2.345  13.733  19.579  0.00  0.00    +0.000 A 
ATOM     25  C   UNL     1       1.976  12.611  20.329  0.00  0.00    +0.000 A 
ENDBRANCH  19  20
ENDBRANCH  16  19
ENDBRANCH   9  13
BRANCH   7  26
ATOM     26  C   UNL     1       5.268   4.338  16.228  0.00  0.00    +0.000 C 
ATOM     27  C   UNL     1       5.629   5.469  15.219  0.00  0.00    +0.000 C 
ATOM     28  C   UNL     1       7.110   5.116  15.455  0.00  0.00    +0.000 C 
ATOM     29  C   UNL     1       6.678   4.602  16.838  0.00  0.00    +0.000 C 
ENDBRANCH   7  26
TORSDOF 4
ENDMDL
MODEL 6
REMARK VINA RESULT:      -8.6      4.013      9.404
REMARK  Name = 
REMARK  4 active torsions:
REMARK  status: ('A' for Active; 'I' for Inactive)
REMARK    1  A    between atoms: C_7  and  C_8
REMARK    2  A    between atoms: C_13  and  C_14
REMARK    3  A    between atoms: C_17  and  S_18
REMARK    4  A    between atoms: S_18  and  C_19
REMARK                            x       y       z     vdW  Elec       q    Type
REMARK                         _______ _______ _______ _____ _____    ______ ____
ROOT
ATOM      1  N   UNL     1       2.649  11.888  17.571  0.00  0.00    +0.000 N 
ATOM      2  C   UNL     1       1.898  12.564  18.488  0.00  0.00    +0.000 A 
ATOM      3  N   UNL     1       1.945  13.875  18.366  0.00  0.00    +0.000 NA
ATOM      4  C   UNL     1       1.191  14.653  19.213  0.00  0.00    +0.000 A 
ATOM      5  C   UNL     1       0.392  14.159  20.167  0.00  0.00    +0.000 A 
ATOM      6  N   UNL     1       0.333  12.788  20.326  0.00  0.00    +0.000 N 
ATOM      7  C   UNL     1      -0.367  11.996  21.211  0.00  0.00    +0.000 A 
ATOM      8  N   UNL     1      -0.154  10.717  20.964  0.00  0.00    +0.000 NA
ATOM      9  C   UNL     1       0.792  10.672  19.959  0.00  0.00    +0.000 A 
ATOM     10  C   UNL     1       1.075  11.952  19.512  0.00  0.00    +0.000 A 
ATOM     11  H   UNL     1       2.981  12.504  16.837  0.00  0.00    +0.000 HD
ATOM     12  H   UNL     1       2.232  11.037  17.212  0.00  0.00    +0.000 HD
ENDROOT
BRANCH   9  13
ATOM     13  C   UNL     1       1.328   9.406  19.480  0.00  0.00    +0.000 A 
ATOM     14  C   UNL     1       1.538   9.215  18.108  0.00  0.00    +0.000 A 
ATOM     15  C   UNL     1       2.108   8.028  17.630  0.00  0.00    +0.000 A 
ATOM     16  C   UNL     1       2.510   7.027  18.519  0.00  0.00    +0.000 A 
ATOM     17  C   UNL     1       2.246   7.184  19.879  0.00  0.00    +0.000 A 
ATOM     18  C   UNL     1       1.622   8.346  20.346  0.00  0.00    +0.000 A 
BRANCH  16  19
ATOM     19  S   UNL     1       3.289   5.545  17.916  0.00  0.00    +0.000 S 
BRANCH  19  20
ATOM     20  C   UNL     1       5.040   5.848  18.126  0.00  0.00    +0.000 A 
ATOM     21  C   UNL     1       5.659   6.745  17.242  0.00  0.00    +0.000 A 
ATOM     22  C   UNL     1       7.014   7.061  17.372  0.00  0.00    +0.000 A 
ATOM     23  C   UNL     1       7.769   6.487  18.392  0.00  0.00    +0.000 A 
ATOM     24  C   UNL     1       7.166   5.602  19.283  0.00  0.00    +0.000 A 
ATOM     25  C   UNL     1       5.809   5.287  19.152  0.00  0.00    +0.000 A 
ENDBRANCH  19  20
ENDBRANCH  16  19
ENDBRANCH   9  13
BRANCH   7  26
ATOM     26  C   UNL     1      -1.215  12.506  22.373  0.00  0.00    +0.000 C 
ATOM     27  C   UNL     1      -2.697  12.824  22.008  0.00  0.00    +0.000 C 
ATOM     28  C   UNL     1      -3.092  12.216  23.368  0.00  0.00    +0.000 C 
ATOM     29  C   UNL     1      -1.808  11.376  23.269  0.00  0.00    +0.000 C 
ENDBRANCH   7  26
TORSDOF 4
ENDMDL
MODEL 7
REMARK VINA RESULT:      -8.5      1.215      1.866
REMARK  Name = 
REMARK  4 active torsions:
REMARK  status: ('A' for Active; 'I' for Inactive)
REMARK    1  A    between atoms: C_7  and  C_8
REMARK    2  A    between atoms: C_13  and  C_14
REMARK    3  A    between atoms: C_17  and  S_18
REMARK    4  A    between atoms: S_18  and  C_19
REMARK                            x       y       z     vdW  Elec       q    Type
REMARK                         _______ _______ _______ _____ _____    ______ ____
ROOT
ATOM      1  N   UNL     1       0.697   3.865  20.123  0.00  0.00    +0.000 N 
ATOM      2  C   UNL     1       1.734   3.400  19.368  0.00  0.00    +0.000 A 
ATOM      3  N   UNL     1       1.779   2.088  19.261  0.00  0.00    +0.000 NA
ATOM      4  C   UNL     1       2.760   1.513  18.486  0.00  0.00    +0.000 A 
ATOM      5  C   UNL     1       3.685   2.212  17.816  0.00  0.00    +0.000 A 
ATOM      6  N   UNL     1       3.669   3.589  17.920  0.00  0.00    +0.000 N 
ATOM      7  C   UNL     1       4.482   4.560  17.376  0.00  0.00    +0.000 A 
ATOM      8  N   UNL     1       4.062   5.764  17.712  0.00  0.00    +0.000 NA
ATOM      9  C   UNL     1       3.008   5.575  18.584  0.00  0.00    +0.000 A 
ATOM     10  C   UNL     1       2.715   4.225  18.692  0.00  0.00    +0.000 A 
ATOM     11  H   UNL     1       0.031   3.130  20.333  0.00  0.00    +0.000 HD
ATOM     12  H   UNL     1       0.256   4.710  19.779  0.00  0.00    +0.000 HD
ENDROOT
BRANCH   9  13
ATOM     13  C   UNL     1       2.341   6.701  19.223  0.00  0.00    +0.000 A 
ATOM     14  C   UNL     1       1.932   6.598  20.559  0.00  0.00    +0.000 A 
ATOM     15  C   UNL     1       1.342   7.687  21.212  0.00  0.00    +0.000 A 
ATOM     16  C   UNL     1       1.185   8.909  20.552  0.00  0.00    +0.000 A 
ATOM     17  C   UNL     1       1.531   8.999  19.204  0.00  0.00    +0.000 A 
ATOM     18  C   UNL     1       2.065   7.889  18.538  0.00  0.00    +0.000 A 
BRANCH  16  19
ATOM     19  S   UNL     1       0.490  10.310  21.401  0.00  0.00    +0.000 S 
BRANCH  19  20
ATOM     20  C   UNL     1       0.023  11.434  20.089  0.00  0.00    +0.000 A 
ATOM     21  C   UNL     1       0.895  12.494  19.796  0.00  0.00    +0.000 A 
ATOM     22  C   UNL     1       0.615  13.388  18.757  0.00  0.00    +0.000 A 
ATOM     23  C   UNL     1      -0.540  13.229  17.995  0.00  0.00    +0.000 A 
ATOM     24  C   UNL     1      -1.409  12.176  18.268  0.00  0.00    +0.000 A 
ATOM     25  C   UNL     1      -1.127  11.283  19.307  0.00  0.00    +0.000 A 
ENDBRANCH  19  20
ENDBRANCH  16  19
ENDBRANCH   9  13
BRANCH   7  26
ATOM     26  C   UNL     1       5.745   4.299  16.560  0.00  0.00    +0.000 C 
ATOM     27  C   UNL     1       5.523   4.231  15.018  0.00  0.00    +0.000 C 
ATOM     28  C   UNL     1       6.850   4.998  14.861  0.00  0.00    +0.000 C 
ATOM     29  C   UNL     1       6.581   5.580  16.258  0.00  0.00    +0.000 C 
ENDBRANCH   7  26
TORSDOF 4
ENDMDL
MODEL 8
REMARK VINA RESULT:      -8.5      3.319      8.470
REMARK  Name = 
REMARK  4 active torsions:
REMARK  status: ('A' for Active; 'I' for Inactive)
REMARK    1  A    between atoms: C_7  and  C_8
REMARK    2  A    between atoms: C_13  and  C_14
REMARK    3  A    between atoms: C_17  and  S_18
REMARK    4  A    between atoms: S_18  and  C_19
REMARK                            x       y       z     vdW  Elec       q    Type
REMARK                         _______ _______ _______ _____ _____    ______ ____
ROOT
ATOM      1  N   UNL     1       1.691   9.079  22.325  0.00  0.00    +0.000 N 
ATOM      2  C   UNL     1       0.653   9.877  21.940  0.00  0.00    +0.000 A 
ATOM      3  N   UNL     1       0.058  10.507  22.932  0.00  0.00    +0.000 NA
ATOM      4  C   UNL     1      -0.975  11.371  22.652  0.00  0.00    +0.000 A 
ATOM      5  C   UNL     1      -1.420  11.625  21.415  0.00  0.00    +0.000 A 
ATOM      6  N   UNL     1      -0.821  10.970  20.356  0.00  0.00    +0.000 N 
ATOM      7  C   UNL     1      -1.063  11.006  19.000  0.00  0.00    +0.000 A 
ATOM      8  N   UNL     1      -0.206  10.241  18.351  0.00  0.00    +0.000 NA
ATOM      9  C   UNL     1       0.550   9.606  19.316  0.00  0.00    +0.000 A 
ATOM     10  C   UNL     1       0.215  10.081  20.574  0.00  0.00    +0.000 A 
ATOM     11  H   UNL     1       1.943   9.240  23.294  0.00  0.00    +0.000 HD
ATOM     12  H   UNL     1       2.493   9.081  21.704  0.00  0.00    +0.000 HD
ENDROOT
BRANCH   9  13
ATOM     13  C   UNL     1       1.557   8.616  18.960  0.00  0.00    +0.000 A 
ATOM     14  C   UNL     1       2.333   8.799  17.808  0.00  0.00    +0.000 A 
ATOM     15  C   UNL     1       3.347   7.891  17.478  0.00  0.00    +0.000 A 
ATOM     16  C   UNL     1       3.625   6.805  18.312  0.00  0.00    +0.000 A 
ATOM     17  C   UNL     1       2.814   6.581  19.424  0.00  0.00    +0.000 A 
ATOM     18  C   UNL     1       1.764   7.458  19.718  0.00  0.00    +0.000 A 
BRANCH  16  19
ATOM     19  S   UNL     1       4.952   5.685  17.923  0.00  0.00    +0.000 S 
BRANCH  19  20
ATOM     20  C   UNL     1       4.243   4.059  18.160  0.00  0.00    +0.000 A 
ATOM     21  C   UNL     1       4.651   3.326  19.285  0.00  0.00    +0.000 A 
ATOM     22  C   UNL     1       4.109   2.066  19.557  0.00  0.00    +0.000 A 
ATOM     23  C   UNL     1       3.146   1.524  18.708  0.00  0.00    +0.000 A 
ATOM     24  C   UNL     1       2.724   2.245  17.594  0.00  0.00    +0.000 A 
ATOM     25  C   UNL     1       3.267   3.505  17.323  0.00  0.00    +0.000 A 
ENDBRANCH  19  20
ENDBRANCH  16  19
ENDBRANCH   9  13
BRANCH   7  26
ATOM     26  C   UNL     1      -2.207  11.759  18.326  0.00  0.00    +0.000 C 
ATOM     27  C   UNL     1      -2.422  11.410  16.822  0.00  0.00    +0.000 C 
ATOM     28  C   UNL     1      -3.937  11.478  17.091  0.00  0.00    +0.000 C 
ATOM     29  C   UNL     1      -3.608  11.112  18.548  0.00  0.00    +0.000 C 
ENDBRANCH   7  26
TORSDOF 4
ENDMDL
MODEL 9
REMARK VINA RESULT:      -8.5      1.290      1.981
REMARK  Name = 
REMARK  4 active torsions:
REMARK  status: ('A' for Active; 'I' for Inactive)
REMARK    1  A    between atoms: C_7  and  C_8
REMARK    2  A    between atoms: C_13  and  C_14
REMARK    3  A    between atoms: C_17  and  S_18
REMARK    4  A    between atoms: S_18  and  C_19
REMARK                            x       y       z     vdW  Elec       q    Type
REMARK                         _______ _______ _______ _____ _____    ______ ____
ROOT
ATOM      1  N   UNL     1       0.826   3.916  20.339  0.00  0.00    +0.000 N 
ATOM      2  C   UNL     1       1.766   3.415  19.487  0.00  0.00    +0.000 A 
ATOM      3  N   UNL     1       1.818   2.099  19.451  0.00  0.00    +0.000 NA
ATOM      4  C   UNL     1       2.702   1.488  18.593  0.00  0.00    +0.000 A 
ATOM      5  C   UNL     1       3.525   2.153  17.771  0.00  0.00    +0.000 A 
ATOM      6  N   UNL     1       3.500   3.534  17.796  0.00  0.00    +0.000 N 
ATOM      7  C   UNL     1       4.223   4.477  17.098  0.00  0.00    +0.000 A 
ATOM      8  N   UNL     1       3.829   5.696  17.414  0.00  0.00    +0.000 NA
ATOM      9  C   UNL     1       2.897   5.550  18.422  0.00  0.00    +0.000 A 
ATOM     10  C   UNL     1       2.641   4.207  18.645  0.00  0.00    +0.000 A 
ATOM     11  H   UNL     1       0.203   3.189  20.674  0.00  0.00    +0.000 HD
ATOM     12  H   UNL     1       0.331   4.736  20.005  0.00  0.00    +0.000 HD
ENDROOT
BRANCH   9  13
ATOM     13  C   UNL     1       2.299   6.706  19.074  0.00  0.00    +0.000 A 
ATOM     14  C   UNL     1       1.951   6.636  20.430  0.00  0.00    +0.000 A 
ATOM     15  C   UNL     1       1.429   7.754  21.093  0.00  0.00    +0.000 A 
ATOM     16  C   UNL     1       1.280   8.970  20.421  0.00  0.00    +0.000 A 
ATOM     17  C   UNL     1       1.563   9.029  19.057  0.00  0.00    +0.000 A 
ATOM     18  C   UNL     1       2.028   7.893  18.384  0.00  0.00    +0.000 A 
BRANCH  16  19
ATOM     19  S   UNL     1       0.672  10.406  21.279  0.00  0.00    +0.000 S 
BRANCH  19  20
ATOM     20  C   UNL     1       0.334  11.588  19.979  0.00  0.00    +0.000 A 
ATOM     21  C   UNL     1      -0.916  11.522  19.344  0.00  0.00    +0.000 A 
ATOM     22  C   UNL     1      -1.265  12.439  18.348  0.00  0.00    +0.000 A 
ATOM     23  C   UNL     1      -0.369  13.438  17.976  0.00  0.00    +0.000 A 
ATOM     24  C   UNL     1       0.871  13.522  18.604  0.00  0.00    +0.000 A 
ATOM     25  C   UNL     1       1.219  12.604  19.601  0.00  0.00    +0.000 A 
ENDBRANCH  19  20
ENDBRANCH  16  19
ENDBRANCH   9  13
BRANCH   7  26
ATOM     26  C   UNL     1       5.377   4.178  16.145  0.00  0.00    +0.000 C 
ATOM     27  C   UNL     1       5.655   5.290  15.088  0.00  0.00    +0.000 C 
ATOM     28  C   UNL     1       7.158   5.029  15.306  0.00  0.00    +0.000 C 
ATOM     29  C   UNL     1       6.781   4.543  16.716  0.00  0.00    +0.000 C 
ENDBRANCH   7  26
TORSDOF 4
ENDMDL
