MODEL 1
REMARK VINA RESULT:      -8.5      0.000      0.000
REMARK  Name = 
REMARK  6 active torsions:
REMARK  status: ('A' for Active; 'I' for Inactive)
REMARK    1  A    between atoms: C_1  and  C_2
REMARK    2  A    between atoms: C_4  and  C_5
REMARK    3  A    between atoms: C_14  and  C_15
REMARK    4  A    between atoms: N_17  and  C_18
REMARK    5  A    between atoms: C_23  and  C_24
REMARK    6  A    between atoms: C_24  and  O_26
REMARK                            x       y       z     vdW  Elec       q    Type
REMARK                         _______ _______ _______ _____ _____    ______ ____
ROOT
ATOM      1  C   UNL     1       7.523   5.386  19.142  0.00  0.00    +0.000 C 
ATOM      2  C   UNL     1       6.553   5.286  18.006  0.00  0.00    +0.000 A 
ATOM      3  C   UNL     1       6.920   4.869  16.784  0.00  0.00    +0.000 A 
ATOM      4  C   UNL     1       5.853   4.856  15.729  0.00  0.00    +0.000 A 
ATOM      5  N   UNL     1       4.600   5.143  15.943  0.00  0.00    +0.000 NA
ATOM      6  C   UNL     1       4.264   5.540  17.204  0.00  0.00    +0.000 A 
ATOM      7  N   UNL     1       3.085   5.910  17.671  0.00  0.00    +0.000 NA
ATOM      8  C   UNL     1       3.351   6.275  18.970  0.00  0.00    +0.000 A 
ATOM      9  N   UNL     1       4.627   6.100  19.347  0.00  0.00    +0.000 NA
ATOM     10  N   UNL     1       5.217   5.639  18.223  0.00  0.00    +0.000 N 
ENDROOT
BRANCH   4  11
ATOM     11  C   UNL     1       6.298   4.489  14.351  0.00  0.00    +0.000 A 
ATOM     12  C   UNL     1       5.546   3.564  13.617  0.00  0.00    +0.000 A 
ATOM     13  C   UNL     1       5.908   3.252  12.305  0.00  0.00    +0.000 A 
ATOM     14  C   UNL     1       7.019   3.859  11.721  0.00  0.00    +0.000 A 
ATOM     15  C   UNL     1       7.773   4.777  12.447  0.00  0.00    +0.000 A 
ATOM     16  C   UNL     1       7.413   5.098  13.756  0.00  0.00    +0.000 A 
ENDBRANCH   4  11
BRANCH   8  17
ATOM     17  C   UNL     1       2.314   6.810  19.874  0.00  0.00    +0.000 C 
ATOM     18  O   UNL     1       1.683   6.096  20.657  0.00  0.00    +0.000 OA
ATOM     19  N   UNL     1       2.042   8.167  19.705  0.00  0.00    +0.000 N 
ATOM     20  H   UNL     1       2.390   8.595  18.847  0.00  0.00    +0.000 HD
BRANCH  19  21
ATOM     21  C   UNL     1       1.128   8.868  20.529  0.00  0.00    +0.000 A 
ATOM     22  C   UNL     1       1.132   8.622  21.913  0.00  0.00    +0.000 A 
ATOM     23  C   UNL     1       0.269   9.312  22.769  0.00  0.00    +0.000 A 
ATOM     24  C   UNL     1      -0.627  10.241  22.253  0.00  0.00    +0.000 A 
ATOM     25  C   UNL     1      -0.645  10.498  20.883  0.00  0.00    +0.000 A 
ATOM     26  C   UNL     1       0.238   9.826  20.017  0.00  0.00    +0.000 A 
BRANCH  26  27
ATOM     27  C   UNL     1       0.094  10.134  18.573  0.00  0.00    +0.000 C 
ATOM     28  O   UNL     1      -0.983  10.171  18.007  0.00  0.00    +0.000 OA
BRANCH  27  29
ATOM     29  O   UNL     1       1.270  10.306  17.933  0.00  0.00    +0.000 OA
ATOM     30  H   UNL     1       1.522   9.551  17.365  0.00  0.00    +0.000 HD
ENDBRANCH  27  29
ENDBRANCH  26  27
ENDBRANCH  19  21
ENDBRANCH   8  17
TORSDOF 5
ENDMDL
MODEL 2
REMARK VINA RESULT:      -8.4      4.057      5.724
REMARK  Name = 
REMARK  6 active torsions:
REMARK  status: ('A' for Active; 'I' for Inactive)
REMARK    1  A    between atoms: C_1  and  C_2
REMARK    2  A    between atoms: C_4  and  C_5
REMARK    3  A    between atoms: C_14  and  C_15
REMARK    4  A    between atoms: N_17  and  C_18
REMARK    5  A    between atoms: C_23  and  C_24
REMARK    6  A    between atoms: C_24  and  O_26
REMARK                            x       y       z     vdW  Elec       q    Type
REMARK                         _______ _______ _______ _____ _____    ______ ____
ROOT
ATOM      1  C   UNL     1       2.072   9.706  17.596  0.00  0.00    +0.000 C 
ATOM      2  C   UNL     1       2.018   8.546  18.543  0.00  0.00    +0.000 A 
ATOM      3  C   UNL     1       2.488   7.332  18.216  0.00  0.00    +0.000 A 
ATOM      4  C   UNL     1       2.333   6.251  19.246  0.00  0.00    +0.000 A 
ATOM      5  N   UNL     1       1.853   6.436  20.444  0.00  0.00    +0.000 NA
ATOM      6  C   UNL     1       1.408   7.690  20.744  0.00  0.00    +0.000 A 
ATOM      7  N   UNL     1       0.857   8.130  21.861  0.00  0.00    +0.000 NA
ATOM      8  C   UNL     1       0.538   9.436  21.572  0.00  0.00    +0.000 A 
ATOM      9  N   UNL     1       0.912   9.844  20.349  0.00  0.00    +0.000 NA
ATOM     10  N   UNL     1       1.459   8.732  19.812  0.00  0.00    +0.000 N 
ENDROOT
BRANCH   4  11
ATOM     11  C   UNL     1       2.765   4.883  18.831  0.00  0.00    +0.000 A 
ATOM     12  C   UNL     1       3.672   4.183  19.636  0.00  0.00    +0.000 A 
ATOM     13  C   UNL     1       4.044   2.879  19.301  0.00  0.00    +0.000 A 
ATOM     14  C   UNL     1       3.515   2.270  18.163  0.00  0.00    +0.000 A 
ATOM     15  C   UNL     1       2.615   2.962  17.356  0.00  0.00    +0.000 A 
ATOM     16  C   UNL     1       2.236   4.263  17.689  0.00  0.00    +0.000 A 
ENDBRANCH   4  11
BRANCH   8  17
ATOM     17  C   UNL     1      -0.153  10.318  22.534  0.00  0.00    +0.000 C 
ATOM     18  O   UNL     1      -0.117  10.129  23.752  0.00  0.00    +0.000 OA
ATOM     19  N   UNL     1      -0.924  11.321  21.949  0.00  0.00    +0.000 N 
ATOM     20  H   UNL     1      -1.129  11.214  20.956  0.00  0.00    +0.000 HD
BRANCH  19  21
ATOM     21  C   UNL     1      -1.602  12.303  22.714  0.00  0.00    +0.000 A 
ATOM     22  C   UNL     1      -2.841  11.979  23.292  0.00  0.00    +0.000 A 
ATOM     23  C   UNL     1      -3.531  12.905  24.079  0.00  0.00    +0.000 A 
ATOM     24  C   UNL     1      -3.006  14.177  24.280  0.00  0.00    +0.000 A 
ATOM     25  C   UNL     1      -1.778  14.515  23.712  0.00  0.00    +0.000 A 
ATOM     26  C   UNL     1      -1.064  13.580  22.940  0.00  0.00    +0.000 A 
BRANCH  26  27
ATOM     27  C   UNL     1       0.202  14.064  22.338  0.00  0.00    +0.000 C 
ATOM     28  O   UNL     1       0.865  13.398  21.563  0.00  0.00    +0.000 OA
BRANCH  27  29
ATOM     29  O   UNL     1       0.585  15.282  22.778  0.00  0.00    +0.000 OA
ATOM     30  H   UNL     1      -0.031  15.999  22.533  0.00  0.00    +0.000 HD
ENDBRANCH  27  29
ENDBRANCH  26  27
ENDBRANCH  19  21
ENDBRANCH   8  17
TORSDOF 5
ENDMDL
MODEL 3
REMARK VINA RESULT:      -8.4      4.219      5.536
REMARK  Name = 
REMARK  6 active torsions:
REMARK  status: ('A' for Active; 'I' for Inactive)
REMARK    1  A    between atoms: C_1  and  C_2
REMARK    2  A    between atoms: C_4  and  C_5
REMARK    3  A    between atoms: C_14  and  C_15
REMARK    4  A    between atoms: N_17  and  C_18
REMARK    5  A    between atoms: C_23  and  C_24
REMARK    6  A    between atoms: C_24  and  O_26
REMARK                            x       y       z     vdW  Elec       q    Type
REMARK                         _______ _______ _______ _____ _____    ______ ____
ROOT
ATOM      1  C   UNL     1       2.276   9.170  17.552  0.00  0.00    +0.000 C 
ATOM      2  C   UNL     1       2.146   8.068  18.558  0.00  0.00    +0.000 A 
ATOM      3  C   UNL     1       2.551   6.813  18.303  0.00  0.00    +0.000 A 
ATOM      4  C   UNL     1       2.322   5.800  19.386  0.00  0.00    +0.000 A 
ATOM      5  N   UNL     1       1.836   6.075  20.564  0.00  0.00    +0.000 NA
ATOM      6  C   UNL     1       1.458   7.366  20.790  0.00  0.00    +0.000 A 
ATOM      7  N   UNL     1       0.917   7.895  21.873  0.00  0.00    +0.000 NA
ATOM      8  C   UNL     1       0.676   9.199  21.511  0.00  0.00    +0.000 A 
ATOM      9  N   UNL     1       1.089   9.519  20.274  0.00  0.00    +0.000 NA
ATOM     10  N   UNL     1       1.580   8.352  19.805  0.00  0.00    +0.000 N 
ENDROOT
BRANCH   4  11
ATOM     11  C   UNL     1       2.683   4.390  19.051  0.00  0.00    +0.000 A 
ATOM     12  C   UNL     1       1.901   3.691  18.121  0.00  0.00    +0.000 A 
ATOM     13  C   UNL     1       2.254   2.393  17.746  0.00  0.00    +0.000 A 
ATOM     14  C   UNL     1       3.384   1.788  18.294  0.00  0.00    +0.000 A 
ATOM     15  C   UNL     1       4.164   2.476  19.221  0.00  0.00    +0.000 A 
ATOM     16  C   UNL     1       3.819   3.775  19.596  0.00  0.00    +0.000 A 
ENDBRANCH   4  11
BRANCH   8  17
ATOM     17  C   UNL     1       0.022  10.167  22.413  0.00  0.00    +0.000 C 
ATOM     18  O   UNL     1       0.072  10.069  23.641  0.00  0.00    +0.000 OA
ATOM     19  N   UNL     1      -0.732  11.144  21.765  0.00  0.00    +0.000 N 
ATOM     20  H   UNL     1      -0.956  10.968  20.785  0.00  0.00    +0.000 HD
BRANCH  19  21
ATOM     21  C   UNL     1      -1.374  12.197  22.463  0.00  0.00    +0.000 A 
ATOM     22  C   UNL     1      -2.583  11.936  23.129  0.00  0.00    +0.000 A 
ATOM     23  C   UNL     1      -3.235  12.936  23.855  0.00  0.00    +0.000 A 
ATOM     24  C   UNL     1      -2.703  14.219  23.906  0.00  0.00    +0.000 A 
ATOM     25  C   UNL     1      -1.504  14.497  23.249  0.00  0.00    +0.000 A 
ATOM     26  C   UNL     1      -0.828  13.489  22.538  0.00  0.00    +0.000 A 
BRANCH  26  27
ATOM     27  C   UNL     1       0.408  13.908  21.832  0.00  0.00    +0.000 C 
ATOM     28  O   UNL     1       1.297  14.542  22.371  0.00  0.00    +0.000 OA
BRANCH  27  29
ATOM     29  O   UNL     1       0.426  13.578  20.523  0.00  0.00    +0.000 OA
ATOM     30  H   UNL     1       0.575  12.626  20.360  0.00  0.00    +0.000 HD
ENDBRANCH  27  29
ENDBRANCH  26  27
ENDBRANCH  19  21
ENDBRANCH   8  17
TORSDOF 5
ENDMDL
MODEL 4
REMARK VINA RESULT:      -8.2      3.485      5.736
REMARK  Name = 
REMARK  6 active torsions:
REMARK  status: ('A' for Active; 'I' for Inactive)
REMARK    1  A    between atoms: C_1  and  C_2
REMARK    2  A    between atoms: C_4  and  C_5
REMARK    3  A    between atoms: C_14  and  C_15
REMARK    4  A    between atoms: N_17  and  C_18
REMARK    5  A    between atoms: C_23  and  C_24
REMARK    6  A    between atoms: C_24  and  O_26
REMARK                            x       y       z     vdW  Elec       q    Type
REMARK                         _______ _______ _______ _____ _____    ______ ____
ROOT
ATOM      1  C   UNL     1       1.981  10.607  17.617  0.00  0.00    +0.000 C 
ATOM      2  C   UNL     1       1.972   9.351  18.432  0.00  0.00    +0.000 A 
ATOM      3  C   UNL     1       2.503   8.202  17.984  0.00  0.00    +0.000 A 
ATOM      4  C   UNL     1       2.389   7.010  18.889  0.00  0.00    +0.000 A 
ATOM      5  N   UNL     1       1.885   7.041  20.091  0.00  0.00    +0.000 NA
ATOM      6  C   UNL     1       1.377   8.233  20.516  0.00  0.00    +0.000 A 
ATOM      7  N   UNL     1       0.792   8.523  21.664  0.00  0.00    +0.000 NA
ATOM      8  C   UNL     1       0.414   9.836  21.513  0.00  0.00    +0.000 A 
ATOM      9  N   UNL     1       0.782  10.391  20.348  0.00  0.00    +0.000 NA
ATOM     10  N   UNL     1       1.389   9.371  19.703  0.00  0.00    +0.000 N 
ENDROOT
BRANCH   4  11
ATOM     11  C   UNL     1       2.891   5.716  18.335  0.00  0.00    +0.000 A 
ATOM     12  C   UNL     1       2.013   4.629  18.245  0.00  0.00    +0.000 A 
ATOM     13  C   UNL     1       2.442   3.429  17.675  0.00  0.00    +0.000 A 
ATOM     14  C   UNL     1       3.746   3.307  17.194  0.00  0.00    +0.000 A 
ATOM     15  C   UNL     1       4.625   4.384  17.284  0.00  0.00    +0.000 A 
ATOM     16  C   UNL     1       4.200   5.588  17.847  0.00  0.00    +0.000 A 
ENDBRANCH   4  11
BRANCH   8  17
ATOM     17  C   UNL     1      -0.331  10.575  22.552  0.00  0.00    +0.000 C 
ATOM     18  O   UNL     1      -0.280  10.272  23.747  0.00  0.00    +0.000 OA
ATOM     19  N   UNL     1      -1.166  11.578  22.063  0.00  0.00    +0.000 N 
ATOM     20  H   UNL     1      -1.367  11.553  21.063  0.00  0.00    +0.000 HD
BRANCH  19  21
ATOM     21  C   UNL     1      -1.905  12.436  22.916  0.00  0.00    +0.000 A 
ATOM     22  C   UNL     1      -3.088  11.958  23.503  0.00  0.00    +0.000 A 
ATOM     23  C   UNL     1      -3.833  12.758  24.374  0.00  0.00    +0.000 A 
ATOM     24  C   UNL     1      -3.420  14.056  24.652  0.00  0.00    +0.000 A 
ATOM     25  C   UNL     1      -2.248  14.547  24.077  0.00  0.00    +0.000 A 
ATOM     26  C   UNL     1      -1.479  13.739  23.219  0.00  0.00    +0.000 A 
BRANCH  26  27
ATOM     27  C   UNL     1      -0.283  14.380  22.620  0.00  0.00    +0.000 C 
ATOM     28  O   UNL     1       0.190  14.033  21.553  0.00  0.00    +0.000 OA
BRANCH  27  29
ATOM     29  O   UNL     1       0.269  15.339  23.394  0.00  0.00    +0.000 OA
ATOM     30  H   UNL     1      -0.304  15.624  24.133  0.00  0.00    +0.000 HD
ENDBRANCH  27  29
ENDBRANCH  26  27
ENDBRANCH  19  21
ENDBRANCH   8  17
TORSDOF 5
ENDMDL
MODEL 5
REMARK VINA RESULT:      -8.1      2.531      4.315
REMARK  Name = 
REMARK  6 active torsions:
REMARK  status: ('A' for Active; 'I' for Inactive)
REMARK    1  A    between atoms: C_1  and  C_2
REMARK    2  A    between atoms: C_4  and  C_5
REMARK    3  A    between atoms: C_14  and  C_15
REMARK    4  A    between atoms: N_17  and  C_18
REMARK    5  A    between atoms: C_23  and  C_24
REMARK    6  A    between atoms: C_24  and  O_26
REMARK                            x       y       z     vdW  Elec       q    Type
REMARK                         _______ _______ _______ _____ _____    ______ ____
ROOT
ATOM      1  C   UNL     1       1.894   5.632  20.777  0.00  0.00    +0.000 C 
ATOM      2  C   UNL     1       2.522   6.306  19.597  0.00  0.00    +0.000 A 
ATOM      3  C   UNL     1       3.449   5.701  18.835  0.00  0.00    +0.000 A 
ATOM      4  C   UNL     1       4.024   6.508  17.708  0.00  0.00    +0.000 A 
ATOM      5  N   UNL     1       3.630   7.708  17.383  0.00  0.00    +0.000 NA
ATOM      6  C   UNL     1       2.671   8.277  18.168  0.00  0.00    +0.000 A 
ATOM      7  N   UNL     1       2.126   9.477  18.075  0.00  0.00    +0.000 NA
ATOM      8  C   UNL     1       1.290   9.539  19.164  0.00  0.00    +0.000 A 
ATOM      9  N   UNL     1       1.249   8.417  19.899  0.00  0.00    +0.000 NA
ATOM     10  N   UNL     1       2.135   7.611  19.275  0.00  0.00    +0.000 N 
ENDROOT
BRANCH   4  11
ATOM     11  C   UNL     1       5.125   5.861  16.935  0.00  0.00    +0.000 A 
ATOM     12  C   UNL     1       6.133   5.179  17.628  0.00  0.00    +0.000 A 
ATOM     13  C   UNL     1       7.140   4.514  16.924  0.00  0.00    +0.000 A 
ATOM     14  C   UNL     1       7.145   4.527  15.530  0.00  0.00    +0.000 A 
ATOM     15  C   UNL     1       6.148   5.206  14.834  0.00  0.00    +0.000 A 
ATOM     16  C   UNL     1       5.136   5.867  15.532  0.00  0.00    +0.000 A 
ENDBRANCH   4  11
BRANCH   8  17
ATOM     17  C   UNL     1       0.498  10.741  19.492  0.00  0.00    +0.000 C 
ATOM     18  O   UNL     1      -0.473  11.100  18.821  0.00  0.00    +0.000 OA
ATOM     19  N   UNL     1       0.992  11.486  20.561  0.00  0.00    +0.000 N 
ATOM     20  H   UNL     1       1.947  11.281  20.853  0.00  0.00    +0.000 HD
BRANCH  19  21
ATOM     21  C   UNL     1       0.325  12.632  21.062  0.00  0.00    +0.000 A 
ATOM     22  C   UNL     1       0.573  13.880  20.465  0.00  0.00    +0.000 A 
ATOM     23  C   UNL     1      -0.083  15.031  20.906  0.00  0.00    +0.000 A 
ATOM     24  C   UNL     1      -0.980  14.959  21.967  0.00  0.00    +0.000 A 
ATOM     25  C   UNL     1      -1.237  13.729  22.571  0.00  0.00    +0.000 A 
ATOM     26  C   UNL     1      -0.600  12.560  22.117  0.00  0.00    +0.000 A 
BRANCH  26  27
ATOM     27  C   UNL     1      -0.904  11.318  22.867  0.00  0.00    +0.000 C 
ATOM     28  O   UNL     1      -2.006  11.072  23.324  0.00  0.00    +0.000 OA
BRANCH  27  29
ATOM     29  O   UNL     1       0.166  10.516  23.053  0.00  0.00    +0.000 OA
ATOM     30  H   UNL     1      -0.022   9.730  23.603  0.00  0.00    +0.000 HD
ENDBRANCH  27  29
ENDBRANCH  26  27
ENDBRANCH  19  21
ENDBRANCH   8  17
TORSDOF 5
ENDMDL
MODEL 6
REMARK VINA RESULT:      -8.1      2.323      3.701
REMARK  Name = 
REMARK  6 active torsions:
REMARK  status: ('A' for Active; 'I' for Inactive)
REMARK    1  A    between atoms: C_1  and  C_2
REMARK    2  A    between atoms: C_4  and  C_5
REMARK    3  A    between atoms: C_14  and  C_15
REMARK    4  A    between atoms: N_17  and  C_18
REMARK    5  A    between atoms: C_23  and  C_24
REMARK    6  A    between atoms: C_24  and  O_26
REMARK                            x       y       z     vdW  Elec       q    Type
REMARK                         _______ _______ _______ _____ _____    ______ ____
ROOT
ATOM      1  C   UNL     1       1.919   5.341  20.853  0.00  0.00    +0.000 C 
ATOM      2  C   UNL     1       2.462   5.996  19.620  0.00  0.00    +0.000 A 
ATOM      3  C   UNL     1       3.238   5.339  18.742  0.00  0.00    +0.000 A 
ATOM      4  C   UNL     1       3.746   6.129  17.572  0.00  0.00    +0.000 A 
ATOM      5  N   UNL     1       3.422   7.367  17.320  0.00  0.00    +0.000 NA
ATOM      6  C   UNL     1       2.614   7.990  18.224  0.00  0.00    +0.000 A 
ATOM      7  N   UNL     1       2.168   9.233  18.221  0.00  0.00    +0.000 NA
ATOM      8  C   UNL     1       1.473   9.332  19.402  0.00  0.00    +0.000 A 
ATOM      9  N   UNL     1       1.421   8.196  20.114  0.00  0.00    +0.000 NA
ATOM     10  N   UNL     1       2.155   7.338  19.373  0.00  0.00    +0.000 N 
ENDROOT
BRANCH   4  11
ATOM     11  C   UNL     1       4.689   5.416  16.660  0.00  0.00    +0.000 A 
ATOM     12  C   UNL     1       4.850   4.031  16.796  0.00  0.00    +0.000 A 
ATOM     13  C   UNL     1       5.679   3.333  15.916  0.00  0.00    +0.000 A 
ATOM     14  C   UNL     1       6.351   4.011  14.899  0.00  0.00    +0.000 A 
ATOM     15  C   UNL     1       6.199   5.389  14.761  0.00  0.00    +0.000 A 
ATOM     16  C   UNL     1       5.367   6.090  15.633  0.00  0.00    +0.000 A 
ENDBRANCH   4  11
BRANCH   8  17
ATOM     17  C   UNL     1       0.832  10.586  19.846  0.00  0.00    +0.000 C 
ATOM     18  O   UNL     1       1.362  11.690  19.701  0.00  0.00    +0.000 OA
ATOM     19  N   UNL     1      -0.374  10.411  20.523  0.00  0.00    +0.000 N 
ATOM     20  H   UNL     1      -0.577   9.467  20.852  0.00  0.00    +0.000 HD
BRANCH  19  21
ATOM     21  C   UNL     1      -1.166  11.502  20.961  0.00  0.00    +0.000 A 
ATOM     22  C   UNL     1      -1.085  11.906  22.304  0.00  0.00    +0.000 A 
ATOM     23  C   UNL     1      -1.825  12.994  22.774  0.00  0.00    +0.000 A 
ATOM     24  C   UNL     1      -2.674  13.682  21.914  0.00  0.00    +0.000 A 
ATOM     25  C   UNL     1      -2.767  13.294  20.578  0.00  0.00    +0.000 A 
ATOM     26  C   UNL     1      -2.007  12.215  20.091  0.00  0.00    +0.000 A 
BRANCH  26  27
ATOM     27  C   UNL     1      -2.225  11.854  18.669  0.00  0.00    +0.000 C 
ATOM     28  O   UNL     1      -3.230  11.290  18.275  0.00  0.00    +0.000 OA
BRANCH  27  29
ATOM     29  O   UNL     1      -1.181  12.149  17.865  0.00  0.00    +0.000 OA
ATOM     30  H   UNL     1      -0.310  11.958  18.266  0.00  0.00    +0.000 HD
ENDBRANCH  27  29
ENDBRANCH  26  27
ENDBRANCH  19  21
ENDBRANCH   8  17
TORSDOF 5
ENDMDL
MODEL 7
REMARK VINA RESULT:      -8.1      2.211      3.938
REMARK  Name = 
REMARK  6 active torsions:
REMARK  status: ('A' for Active; 'I' for Inactive)
REMARK    1  A    between atoms: C_1  and  C_2
REMARK    2  A    between atoms: C_4  and  C_5
REMARK    3  A    between atoms: C_14  and  C_15
REMARK    4  A    between atoms: N_17  and  C_18
REMARK    5  A    between atoms: C_23  and  C_24
REMARK    6  A    between atoms: C_24  and  O_26
REMARK                            x       y       z     vdW  Elec       q    Type
REMARK                         _______ _______ _______ _____ _____    ______ ____
ROOT
ATOM      1  C   UNL     1       1.991   5.092  21.005  0.00  0.00    +0.000 C 
ATOM      2  C   UNL     1       2.562   5.839  19.839  0.00  0.00    +0.000 A 
ATOM      3  C   UNL     1       3.493   5.305  19.032  0.00  0.00    +0.000 A 
ATOM      4  C   UNL     1       4.007   6.181  17.926  0.00  0.00    +0.000 A 
ATOM      5  N   UNL     1       3.556   7.375  17.661  0.00  0.00    +0.000 NA
ATOM      6  C   UNL     1       2.595   7.871  18.491  0.00  0.00    +0.000 A 
ATOM      7  N   UNL     1       2.000   9.050  18.461  0.00  0.00    +0.000 NA
ATOM      8  C   UNL     1       1.189   9.033  19.571  0.00  0.00    +0.000 A 
ATOM      9  N   UNL     1       1.212   7.881  20.259  0.00  0.00    +0.000 NA
ATOM     10  N   UNL     1       2.114   7.139  19.581  0.00  0.00    +0.000 N 
ENDROOT
BRANCH   4  11
ATOM     11  C   UNL     1       5.114   5.612  17.101  0.00  0.00    +0.000 A 
ATOM     12  C   UNL     1       5.036   5.702  15.705  0.00  0.00    +0.000 A 
ATOM     13  C   UNL     1       6.087   5.232  14.914  0.00  0.00    +0.000 A 
ATOM     14  C   UNL     1       7.217   4.672  15.510  0.00  0.00    +0.000 A 
ATOM     15  C   UNL     1       7.298   4.576  16.897  0.00  0.00    +0.000 A 
ATOM     16  C   UNL     1       6.254   5.049  17.693  0.00  0.00    +0.000 A 
ENDBRANCH   4  11
BRANCH   8  17
ATOM     17  C   UNL     1       0.357  10.187  19.967  0.00  0.00    +0.000 C 
ATOM     18  O   UNL     1      -0.429  10.736  19.191  0.00  0.00    +0.000 OA
ATOM     19  N   UNL     1       0.601  10.661  21.254  0.00  0.00    +0.000 N 
ATOM     20  H   UNL     1       1.461  10.342  21.700  0.00  0.00    +0.000 HD
BRANCH  19  21
ATOM     21  C   UNL     1      -0.149  11.716  21.831  0.00  0.00    +0.000 A 
ATOM     22  C   UNL     1      -1.268  11.403  22.622  0.00  0.00    +0.000 A 
ATOM     23  C   UNL     1      -2.020  12.408  23.235  0.00  0.00    +0.000 A 
ATOM     24  C   UNL     1      -1.681  13.743  23.048  0.00  0.00    +0.000 A 
ATOM     25  C   UNL     1      -0.574  14.073  22.266  0.00  0.00    +0.000 A 
ATOM     26  C   UNL     1       0.203  13.065  21.666  0.00  0.00    +0.000 A 
BRANCH  26  27
ATOM     27  C   UNL     1       1.323  13.529  20.810  0.00  0.00    +0.000 C 
ATOM     28  O   UNL     1       1.154  14.168  19.787  0.00  0.00    +0.000 OA
BRANCH  27  29
ATOM     29  O   UNL     1       2.538  13.124  21.234  0.00  0.00    +0.000 OA
ATOM     30  H   UNL     1       2.778  12.224  20.937  0.00  0.00    +0.000 HD
ENDBRANCH  27  29
ENDBRANCH  26  27
ENDBRANCH  19  21
ENDBRANCH   8  17
TORSDOF 5
ENDMDL
MODEL 8
REMARK VINA RESULT:      -8.1      3.455      5.832
REMARK  Name = 
REMARK  6 active torsions:
REMARK  status: ('A' for Active; 'I' for Inactive)
REMARK    1  A    between atoms: C_1  and  C_2
REMARK    2  A    between atoms: C_4  and  C_5
REMARK    3  A    between atoms: C_14  and  C_15
REMARK    4  A    between atoms: N_17  and  C_18
REMARK    5  A    between atoms: C_23  and  C_24
REMARK    6  A    between atoms: C_24  and  O_26
REMARK                            x       y       z     vdW  Elec       q    Type
REMARK                         _______ _______ _______ _____ _____    ______ ____
ROOT
ATOM      1  C   UNL     1       2.082  10.897  17.659  0.00  0.00    +0.000 C 
ATOM      2  C   UNL     1       2.015   9.599  18.404  0.00  0.00    +0.000 A 
ATOM      3  C   UNL     1       2.527   8.461  17.908  0.00  0.00    +0.000 A 
ATOM      4  C   UNL     1       2.353   7.226  18.743  0.00  0.00    +0.000 A 
ATOM      5  N   UNL     1       1.814   7.207  19.930  0.00  0.00    +0.000 NA
ATOM      6  C   UNL     1       1.327   8.388  20.406  0.00  0.00    +0.000 A 
ATOM      7  N   UNL     1       0.716   8.633  21.551  0.00  0.00    +0.000 NA
ATOM      8  C   UNL     1       0.379   9.963  21.462  0.00  0.00    +0.000 A 
ATOM      9  N   UNL     1       0.797  10.569  20.339  0.00  0.00    +0.000 NA
ATOM     10  N   UNL     1       1.395   9.568  19.657  0.00  0.00    +0.000 N 
ENDROOT
BRANCH   4  11
ATOM     11  C   UNL     1       2.836   5.950  18.134  0.00  0.00    +0.000 A 
ATOM     12  C   UNL     1       4.140   5.890  17.626  0.00  0.00    +0.000 A 
ATOM     13  C   UNL     1       4.634   4.692  17.108  0.00  0.00    +0.000 A 
ATOM     14  C   UNL     1       3.833   3.550  17.093  0.00  0.00    +0.000 A 
ATOM     15  C   UNL     1       2.534   3.604  17.594  0.00  0.00    +0.000 A 
ATOM     16  C   UNL     1       2.037   4.797  18.119  0.00  0.00    +0.000 A 
ENDBRANCH   4  11
BRANCH   8  17
ATOM     17  C   UNL     1      -0.376  10.665  22.518  0.00  0.00    +0.000 C 
ATOM     18  O   UNL     1      -0.323  10.333  23.705  0.00  0.00    +0.000 OA
ATOM     19  N   UNL     1      -1.222  11.671  22.054  0.00  0.00    +0.000 N 
ATOM     20  H   UNL     1      -1.421  11.669  21.053  0.00  0.00    +0.000 HD
BRANCH  19  21
ATOM     21  C   UNL     1      -1.972  12.498  22.926  0.00  0.00    +0.000 A 
ATOM     22  C   UNL     1      -3.126  11.976  23.536  0.00  0.00    +0.000 A 
ATOM     23  C   UNL     1      -3.879  12.745  24.426  0.00  0.00    +0.000 A 
ATOM     24  C   UNL     1      -3.506  14.055  24.704  0.00  0.00    +0.000 A 
ATOM     25  C   UNL     1      -2.364  14.589  24.107  0.00  0.00    +0.000 A 
ATOM     26  C   UNL     1      -1.585  13.814  23.229  0.00  0.00    +0.000 A 
BRANCH  26  27
ATOM     27  C   UNL     1      -0.425  14.499  22.609  0.00  0.00    +0.000 C 
ATOM     28  O   UNL     1       0.380  15.151  23.249  0.00  0.00    +0.000 OA
BRANCH  27  29
ATOM     29  O   UNL     1      -0.381  14.388  21.264  0.00  0.00    +0.000 OA
ATOM     30  H   UNL     1      -0.547  13.481  20.939  0.00  0.00    +0.000 HD
ENDBRANCH  27  29
ENDBRANCH  26  27
ENDBRANCH  19  21
ENDBRANCH   8  17
TORSDOF 5
ENDMDL
MODEL 9
REMARK VINA RESULT:      -8.0      2.176      3.632
REMARK  Name = 
REMARK  6 active torsions:
REMARK  status: ('A' for Active; 'I' for Inactive)
REMARK    1  A    between atoms: C_1  and  C_2
REMARK    2  A    between atoms: C_4  and  C_5
REMARK    3  A    between atoms: C_14  and  C_15
REMARK    4  A    between atoms: N_17  and  C_18
REMARK    5  A    between atoms: C_23  and  C_24
REMARK    6  A    between atoms: C_24  and  O_26
REMARK                            x       y       z     vdW  Elec       q    Type
REMARK                         _______ _______ _______ _____ _____    ______ ____
ROOT
ATOM      1  C   UNL     1       2.132   4.531  21.179  0.00  0.00    +0.000 C 
ATOM      2  C   UNL     1       2.544   5.353  19.996  0.00  0.00    +0.000 A 
ATOM      3  C   UNL     1       3.261   4.843  18.982  0.00  0.00    +0.000 A 
ATOM      4  C   UNL     1       3.638   5.790  17.881  0.00  0.00    +0.000 A 
ATOM      5  N   UNL     1       3.253   7.034  17.813  0.00  0.00    +0.000 NA
ATOM      6  C   UNL     1       2.506   7.507  18.851  0.00  0.00    +0.000 A 
ATOM      7  N   UNL     1       2.020   8.720  19.039  0.00  0.00    +0.000 NA
ATOM      8  C   UNL     1       1.427   8.645  20.277  0.00  0.00    +0.000 A 
ATOM      9  N   UNL     1       1.476   7.430  20.844  0.00  0.00    +0.000 NA
ATOM     10  N   UNL     1       2.171   6.701  19.944  0.00  0.00    +0.000 N 
ENDROOT
BRANCH   4  11
ATOM     11  C   UNL     1       4.522   5.234  16.813  0.00  0.00    +0.000 A 
ATOM     12  C   UNL     1       5.146   6.115  15.921  0.00  0.00    +0.000 A 
ATOM     13  C   UNL     1       6.024   5.625  14.952  0.00  0.00    +0.000 A 
ATOM     14  C   UNL     1       6.284   4.257  14.870  0.00  0.00    +0.000 A 
ATOM     15  C   UNL     1       5.664   3.375  15.752  0.00  0.00    +0.000 A 
ATOM     16  C   UNL     1       4.790   3.860  16.726  0.00  0.00    +0.000 A 
ENDBRANCH   4  11
BRANCH   8  17
ATOM     17  C   UNL     1       0.786   9.806  20.924  0.00  0.00    +0.000 C 
ATOM     18  O   UNL     1       1.291  10.396  21.883  0.00  0.00    +0.000 OA
ATOM     19  N   UNL     1      -0.477  10.122  20.426  0.00  0.00    +0.000 N 
ATOM     20  H   UNL     1      -0.930   9.410  19.854  0.00  0.00    +0.000 HD
BRANCH  19  21
ATOM     21  C   UNL     1      -1.213  11.246  20.876  0.00  0.00    +0.000 A 
ATOM     22  C   UNL     1      -1.421  11.416  22.256  0.00  0.00    +0.000 A 
ATOM     23  C   UNL     1      -2.115  12.524  22.747  0.00  0.00    +0.000 A 
ATOM     24  C   UNL     1      -2.634  13.468  21.868  0.00  0.00    +0.000 A 
ATOM     25  C   UNL     1      -2.438  13.314  20.495  0.00  0.00    +0.000 A 
ATOM     26  C   UNL     1      -1.718  12.215  19.993  0.00  0.00    +0.000 A 
BRANCH  26  27
ATOM     27  C   UNL     1      -1.619  12.121  18.516  0.00  0.00    +0.000 C 
ATOM     28  O   UNL     1      -2.564  11.832  17.805  0.00  0.00    +0.000 OA
BRANCH  27  29
ATOM     29  O   UNL     1      -0.372  12.322  18.040  0.00  0.00    +0.000 OA
ATOM     30  H   UNL     1       0.227  12.759  18.677  0.00  0.00    +0.000 HD
ENDBRANCH  27  29
ENDBRANCH  26  27
ENDBRANCH  19  21
ENDBRANCH   8  17
TORSDOF 5
ENDMDL
