MODEL 1
REMARK VINA RESULT:      -7.6      0.000      0.000
REMARK  Name = 
REMARK  15 active torsions:
REMARK  status: ('A' for Active; 'I' for Inactive)
REMARK    1  A    between atoms: C_2  and  C_3
REMARK    2  A    between atoms: C_3  and  O_4
REMARK    3  A    between atoms: O_4  and  C_5
REMARK    4  A    between atoms: C_14  and  N_15
REMARK    5  A    between atoms: C_16  and  C_18
REMARK    6  A    between atoms: C_23  and  C_25
REMARK    7  A    between atoms: C_25  and  N_26
REMARK    8  A    between atoms: C_25  and  C_33
REMARK    9  A    between atoms: C_27  and  C_29
REMARK   10  A    between atoms: C_29  and  C_30
REMARK   11  A    between atoms: C_29  and  N_31
REMARK   12  A    between atoms: N_31  and  C_32
REMARK   13  A    between atoms: C_33  and  C_34
REMARK   14  A    between atoms: C_33  and  C_35
REMARK   15  A    between atoms: C_33  and  C_36
REMARK                            x       y       z     vdW  Elec       q    Type
REMARK                         _______ _______ _______ _____ _____    ______ ____
ROOT
ATOM      1  C   UNL     1       1.991   8.601  19.605  0.00  0.00    +0.000 C 
ATOM      2  C   UNL     1       1.655   7.249  20.252  0.00  0.00    +0.000 C 
ATOM      3  C   UNL     1       1.050   7.589  21.605  0.00  0.00    +0.000 C 
ATOM      4  C   UNL     1       0.306   8.892  21.368  0.00  0.00    +0.000 C 
ATOM      5  N   UNL     1       0.804   9.431  20.115  0.00  0.00    +0.000 N 
ATOM      6  C   UNL     1       0.665  10.806  19.898  0.00  0.00    +0.000 C 
ATOM      7  O   UNL     1       1.626  11.457  19.467  0.00  0.00    +0.000 OA
ENDROOT
BRANCH   1   9
ATOM      8  N   UNL     1       2.079   7.020  17.548  0.00  0.00    +0.000 N 
ATOM      9  C   UNL     1       2.184   8.321  18.085  0.00  0.00    +0.000 C 
ATOM     10  O   UNL     1       2.252   9.247  17.268  0.00  0.00    +0.000 OA
ATOM     11  H   UNL     1       1.994   7.203  16.555  0.00  0.00    +0.000 HD
BRANCH   8  21
ATOM     12  C   UNL     1       4.583   6.350  18.075  0.00  0.00    +0.000 C 
ATOM     13  C   UNL     1       5.383   5.370  18.953  0.00  0.00    +0.000 C 
ATOM     14  C   UNL     1       4.611   4.550  19.969  0.00  0.00    +0.000 C 
ATOM     15  C   UNL     1       3.287   4.046  19.483  0.00  0.00    +0.000 A 
ATOM     16  C   UNL     1       2.787   2.887  20.109  0.00  0.00    +0.000 A 
ATOM     17  C   UNL     1       1.657   2.231  19.625  0.00  0.00    +0.000 A 
ATOM     18  C   UNL     1       1.036   2.729  18.488  0.00  0.00    +0.000 A 
ATOM     19  C   UNL     1       1.498   3.920  17.900  0.00  0.00    +0.000 A 
ATOM     20  C   UNL     1       2.596   4.644  18.409  0.00  0.00    +0.000 A 
ATOM     21  C   UNL     1       3.106   5.925  17.690  0.00  0.00    +0.000 C 
BRANCH  12  22
ATOM     22  O   UNL     1       5.452   6.794  16.976  0.00  0.00    +0.000 OA
BRANCH  22  23
ATOM     23  C   UNL     1       6.882   6.477  17.000  0.00  0.00    +0.000 C 
BRANCH  23  25
ATOM     24  C   UNL     1       8.166   8.808  17.942  0.00  0.00    +0.000 C 
ATOM     25  C   UNL     1       7.573   7.732  17.508  0.00  0.00    +0.000 C 
ENDBRANCH  23  25
ENDBRANCH  22  23
ENDBRANCH  12  22
ENDBRANCH   8  21
ENDBRANCH   1   9
BRANCH   6  26
ATOM     26  C   UNL     1      -0.738  11.531  20.265  0.00  0.00    +0.000 C 
BRANCH  26  27
ATOM     27  N   UNL     1      -0.558  12.900  20.892  0.00  0.00    +0.000 N 
ATOM     28  C   UNL     1      -0.716  13.169  22.251  0.00  0.00    +0.000 C 
ATOM     29  O   UNL     1      -0.938  12.264  23.053  0.00  0.00    +0.000 OA
ATOM     30  H   UNL     1      -0.200  13.641  20.309  0.00  0.00    +0.000 HD
BRANCH  28  31
ATOM     31  C   UNL     1      -0.549  14.657  22.793  0.00  0.00    +0.000 C 
ATOM     32  C   UNL     1       0.721  15.380  22.335  0.00  0.00    +0.000 C 
BRANCH  31  33
ATOM     33  N   UNL     1      -0.768  14.690  24.266  0.00  0.00    +0.000 NA
ATOM     34  C   UNL     1      -1.939  15.469  24.696  0.00  0.00    +0.000 C 
ATOM     35  H   UNL     1      -0.929  13.721  24.551  0.00  0.00    +0.000 HD
ENDBRANCH  31  33
ENDBRANCH  28  31
ENDBRANCH  26  27
BRANCH  26  36
ATOM     36  C   UNL     1      -1.706  11.612  18.970  0.00  0.00    +0.000 C 
ATOM     37  C   UNL     1      -1.899  10.226  18.294  0.00  0.00    +0.000 C 
ATOM     38  C   UNL     1      -3.136  12.087  19.346  0.00  0.00    +0.000 C 
ATOM     39  C   UNL     1      -1.180  12.570  17.880  0.00  0.00    +0.000 C 
ENDBRANCH  26  36
ENDBRANCH   6  26
TORSDOF 10
ENDMDL
MODEL 2
REMARK VINA RESULT:      -7.5      1.113      1.508
REMARK  Name = 
REMARK  15 active torsions:
REMARK  status: ('A' for Active; 'I' for Inactive)
REMARK    1  A    between atoms: C_2  and  C_3
REMARK    2  A    between atoms: C_3  and  O_4
REMARK    3  A    between atoms: O_4  and  C_5
REMARK    4  A    between atoms: C_14  and  N_15
REMARK    5  A    between atoms: C_16  and  C_18
REMARK    6  A    between atoms: C_23  and  C_25
REMARK    7  A    between atoms: C_25  and  N_26
REMARK    8  A    between atoms: C_25  and  C_33
REMARK    9  A    between atoms: C_27  and  C_29
REMARK   10  A    between atoms: C_29  and  C_30
REMARK   11  A    between atoms: C_29  and  N_31
REMARK   12  A    between atoms: N_31  and  C_32
REMARK   13  A    between atoms: C_33  and  C_34
REMARK   14  A    between atoms: C_33  and  C_35
REMARK   15  A    between atoms: C_33  and  C_36
REMARK                            x       y       z     vdW  Elec       q    Type
REMARK                         _______ _______ _______ _____ _____    ______ ____
ROOT
ATOM      1  C   UNL     1       1.953   8.553  19.591  0.00  0.00    +0.000 C 
ATOM      2  C   UNL     1       1.687   7.172  20.208  0.00  0.00    +0.000 C 
ATOM      3  C   UNL     1       1.034   7.450  21.552  0.00  0.00    +0.000 C 
ATOM      4  C   UNL     1       0.217   8.710  21.321  0.00  0.00    +0.000 C 
ATOM      5  N   UNL     1       0.706   9.300  20.088  0.00  0.00    +0.000 N 
ATOM      6  C   UNL     1       0.488  10.667  19.890  0.00  0.00    +0.000 C 
ATOM      7  O   UNL     1       1.416  11.383  19.491  0.00  0.00    +0.000 OA
ENDROOT
BRANCH   1   9
ATOM      8  N   UNL     1       2.115   7.024  17.498  0.00  0.00    +0.000 N 
ATOM      9  C   UNL     1       2.194   8.312  18.071  0.00  0.00    +0.000 C 
ATOM     10  O   UNL     1       2.280   9.259  17.279  0.00  0.00    +0.000 OA
ATOM     11  H   UNL     1       2.059   7.231  16.508  0.00  0.00    +0.000 HD
BRANCH   8  21
ATOM     12  C   UNL     1       4.623   6.365  18.023  0.00  0.00    +0.000 C 
ATOM     13  C   UNL     1       5.428   5.393  18.905  0.00  0.00    +0.000 C 
ATOM     14  C   UNL     1       4.660   4.577  19.929  0.00  0.00    +0.000 C 
ATOM     15  C   UNL     1       3.336   4.067  19.451  0.00  0.00    +0.000 A 
ATOM     16  C   UNL     1       2.841   2.911  20.086  0.00  0.00    +0.000 A 
ATOM     17  C   UNL     1       1.711   2.249  19.610  0.00  0.00    +0.000 A 
ATOM     18  C   UNL     1       1.085   2.737  18.472  0.00  0.00    +0.000 A 
ATOM     19  C   UNL     1       1.544   3.926  17.873  0.00  0.00    +0.000 A 
ATOM     20  C   UNL     1       2.641   4.656  18.375  0.00  0.00    +0.000 A 
ATOM     21  C   UNL     1       3.145   5.934  17.645  0.00  0.00    +0.000 C 
BRANCH  12  22
ATOM     22  O   UNL     1       5.487   6.803  16.919  0.00  0.00    +0.000 OA
BRANCH  22  23
ATOM     23  C   UNL     1       5.120   6.495  15.534  0.00  0.00    +0.000 C 
BRANCH  23  25
ATOM     24  C   UNL     1       6.044   3.868  15.064  0.00  0.00    +0.000 C 
ATOM     25  C   UNL     1       5.618   5.081  15.282  0.00  0.00    +0.000 C 
ENDBRANCH  23  25
ENDBRANCH  22  23
ENDBRANCH  12  22
ENDBRANCH   8  21
ENDBRANCH   1   9
BRANCH   6  26
ATOM     26  C   UNL     1      -0.964  11.299  20.239  0.00  0.00    +0.000 C 
BRANCH  26  27
ATOM     27  N   UNL     1      -0.882  12.578  21.049  0.00  0.00    +0.000 N 
ATOM     28  C   UNL     1      -0.886  12.629  22.442  0.00  0.00    +0.000 C 
ATOM     29  O   UNL     1      -0.876  11.597  23.112  0.00  0.00    +0.000 OA
ATOM     30  H   UNL     1      -0.708  13.439  20.552  0.00  0.00    +0.000 HD
BRANCH  28  31
ATOM     31  C   UNL     1      -0.844  14.035  23.188  0.00  0.00    +0.000 C 
ATOM     32  C   UNL     1      -2.166  14.805  23.204  0.00  0.00    +0.000 C 
BRANCH  31  33
ATOM     33  N   UNL     1       0.318  14.833  22.703  0.00  0.00    +0.000 NA
ATOM     34  C   UNL     1       0.215  16.279  22.951  0.00  0.00    +0.000 C 
ATOM     35  H   UNL     1       1.132  14.494  23.222  0.00  0.00    +0.000 HD
ENDBRANCH  31  33
ENDBRANCH  28  31
ENDBRANCH  26  27
BRANCH  26  36
ATOM     36  C   UNL     1      -1.838  11.522  18.894  0.00  0.00    +0.000 C 
ATOM     37  C   UNL     1      -1.983  10.216  18.065  0.00  0.00    +0.000 C 
ATOM     38  C   UNL     1      -3.290  11.967  19.216  0.00  0.00    +0.000 C 
ATOM     39  C   UNL     1      -1.234  12.584  17.950  0.00  0.00    +0.000 C 
ENDBRANCH  26  36
ENDBRANCH   6  26
TORSDOF 10
ENDMDL
MODEL 3
REMARK VINA RESULT:      -7.4      0.614      1.097
REMARK  Name = 
REMARK  15 active torsions:
REMARK  status: ('A' for Active; 'I' for Inactive)
REMARK    1  A    between atoms: C_2  and  C_3
REMARK    2  A    between atoms: C_3  and  O_4
REMARK    3  A    between atoms: O_4  and  C_5
REMARK    4  A    between atoms: C_14  and  N_15
REMARK    5  A    between atoms: C_16  and  C_18
REMARK    6  A    between atoms: C_23  and  C_25
REMARK    7  A    between atoms: C_25  and  N_26
REMARK    8  A    between atoms: C_25  and  C_33
REMARK    9  A    between atoms: C_27  and  C_29
REMARK   10  A    between atoms: C_29  and  C_30
REMARK   11  A    between atoms: C_29  and  N_31
REMARK   12  A    between atoms: N_31  and  C_32
REMARK   13  A    between atoms: C_33  and  C_34
REMARK   14  A    between atoms: C_33  and  C_35
REMARK   15  A    between atoms: C_33  and  C_36
REMARK                            x       y       z     vdW  Elec       q    Type
REMARK                         _______ _______ _______ _____ _____    ______ ____
ROOT
ATOM      1  C   UNL     1       2.017   8.531  19.622  0.00  0.00    +0.000 C 
ATOM      2  C   UNL     1       1.652   7.177  20.249  0.00  0.00    +0.000 C 
ATOM      3  C   UNL     1       1.045   7.510  21.602  0.00  0.00    +0.000 C 
ATOM      4  C   UNL     1       0.327   8.830  21.379  0.00  0.00    +0.000 C 
ATOM      5  N   UNL     1       0.842   9.376  20.136  0.00  0.00    +0.000 N 
ATOM      6  C   UNL     1       0.730  10.756  19.936  0.00  0.00    +0.000 C 
ATOM      7  O   UNL     1       1.705  11.395  19.520  0.00  0.00    +0.000 OA
ENDROOT
BRANCH   1   9
ATOM      8  N   UNL     1       2.110   6.973  17.547  0.00  0.00    +0.000 N 
ATOM      9  C   UNL     1       2.214   8.268  18.100  0.00  0.00    +0.000 C 
ATOM     10  O   UNL     1       2.285   9.203  17.293  0.00  0.00    +0.000 OA
ATOM     11  H   UNL     1       2.027   7.167  16.556  0.00  0.00    +0.000 HD
BRANCH   8  21
ATOM     12  C   UNL     1       4.615   6.297  18.062  0.00  0.00    +0.000 C 
ATOM     13  C   UNL     1       5.417   5.311  18.932  0.00  0.00    +0.000 C 
ATOM     14  C   UNL     1       4.647   4.487  19.947  0.00  0.00    +0.000 C 
ATOM     15  C   UNL     1       3.320   3.988  19.464  0.00  0.00    +0.000 A 
ATOM     16  C   UNL     1       2.821   2.827  20.086  0.00  0.00    +0.000 A 
ATOM     17  C   UNL     1       1.688   2.175  19.604  0.00  0.00    +0.000 A 
ATOM     18  C   UNL     1       1.063   2.679  18.472  0.00  0.00    +0.000 A 
ATOM     19  C   UNL     1       1.526   3.873  17.887  0.00  0.00    +0.000 A 
ATOM     20  C   UNL     1       2.627   4.593  18.396  0.00  0.00    +0.000 A 
ATOM     21  C   UNL     1       3.135   5.876  17.681  0.00  0.00    +0.000 C 
BRANCH  12  22
ATOM     22  O   UNL     1       5.480   6.744  16.962  0.00  0.00    +0.000 OA
BRANCH  22  23
ATOM     23  C   UNL     1       6.912   6.435  16.984  0.00  0.00    +0.000 C 
BRANCH  23  25
ATOM     24  C   UNL     1       8.184   8.770  17.934  0.00  0.00    +0.000 C 
ATOM     25  C   UNL     1       7.596   7.692  17.496  0.00  0.00    +0.000 C 
ENDBRANCH  23  25
ENDBRANCH  22  23
ENDBRANCH  12  22
ENDBRANCH   8  21
ENDBRANCH   1   9
BRANCH   6  26
ATOM     26  C   UNL     1      -0.662  11.502  20.305  0.00  0.00    +0.000 C 
BRANCH  26  27
ATOM     27  N   UNL     1      -0.462  12.812  21.043  0.00  0.00    +0.000 N 
ATOM     28  C   UNL     1      -0.910  13.061  22.339  0.00  0.00    +0.000 C 
ATOM     29  O   UNL     1      -1.439  12.173  23.006  0.00  0.00    +0.000 OA
ATOM     30  H   UNL     1       0.122  13.511  20.610  0.00  0.00    +0.000 HD
BRANCH  28  31
ATOM     31  C   UNL     1      -0.686  14.492  22.999  0.00  0.00    +0.000 C 
ATOM     32  C   UNL     1      -1.443  14.735  24.307  0.00  0.00    +0.000 C 
BRANCH  31  33
ATOM     33  N   UNL     1      -0.883  15.559  21.977  0.00  0.00    +0.000 NA
ATOM     34  C   UNL     1      -2.214  16.185  21.990  0.00  0.00    +0.000 C 
ATOM     35  H   UNL     1      -0.202  16.291  22.195  0.00  0.00    +0.000 HD
ENDBRANCH  31  33
ENDBRANCH  28  31
ENDBRANCH  26  27
BRANCH  26  36
ATOM     36  C   UNL     1      -1.573  11.717  18.984  0.00  0.00    +0.000 C 
ATOM     37  C   UNL     1      -1.007  12.825  18.054  0.00  0.00    +0.000 C 
ATOM     38  C   UNL     1      -1.632  10.436  18.108  0.00  0.00    +0.000 C 
ATOM     39  C   UNL     1      -3.029  12.111  19.312  0.00  0.00    +0.000 C 
ENDBRANCH  26  36
ENDBRANCH   6  26
TORSDOF 10
ENDMDL
MODEL 4
REMARK VINA RESULT:      -7.4      0.781      1.451
REMARK  Name = 
REMARK  15 active torsions:
REMARK  status: ('A' for Active; 'I' for Inactive)
REMARK    1  A    between atoms: C_2  and  C_3
REMARK    2  A    between atoms: C_3  and  O_4
REMARK    3  A    between atoms: O_4  and  C_5
REMARK    4  A    between atoms: C_14  and  N_15
REMARK    5  A    between atoms: C_16  and  C_18
REMARK    6  A    between atoms: C_23  and  C_25
REMARK    7  A    between atoms: C_25  and  N_26
REMARK    8  A    between atoms: C_25  and  C_33
REMARK    9  A    between atoms: C_27  and  C_29
REMARK   10  A    between atoms: C_29  and  C_30
REMARK   11  A    between atoms: C_29  and  N_31
REMARK   12  A    between atoms: N_31  and  C_32
REMARK   13  A    between atoms: C_33  and  C_34
REMARK   14  A    between atoms: C_33  and  C_35
REMARK   15  A    between atoms: C_33  and  C_36
REMARK                            x       y       z     vdW  Elec       q    Type
REMARK                         _______ _______ _______ _____ _____    ______ ____
ROOT
ATOM      1  C   UNL     1       2.008   8.529  19.542  0.00  0.00    +0.000 C 
ATOM      2  C   UNL     1       1.694   7.188  20.221  0.00  0.00    +0.000 C 
ATOM      3  C   UNL     1       1.112   7.550  21.578  0.00  0.00    +0.000 C 
ATOM      4  C   UNL     1       0.355   8.843  21.331  0.00  0.00    +0.000 C 
ATOM      5  N   UNL     1       0.824   9.361  20.058  0.00  0.00    +0.000 N 
ATOM      6  C   UNL     1       0.672  10.730  19.818  0.00  0.00    +0.000 C 
ATOM      7  O   UNL     1       1.620  11.380  19.356  0.00  0.00    +0.000 OA
ENDROOT
BRANCH   1   9
ATOM      8  N   UNL     1       2.062   6.911  17.512  0.00  0.00    +0.000 N 
ATOM      9  C   UNL     1       2.173   8.221  18.024  0.00  0.00    +0.000 C 
ATOM     10  O   UNL     1       2.224   9.133  17.188  0.00  0.00    +0.000 OA
ATOM     11  H   UNL     1       1.958   7.075  16.518  0.00  0.00    +0.000 HD
BRANCH   8  21
ATOM     12  C   UNL     1       4.580   6.258  17.993  0.00  0.00    +0.000 C 
ATOM     13  C   UNL     1       5.404   5.301  18.874  0.00  0.00    +0.000 C 
ATOM     14  C   UNL     1       4.659   4.505  19.930  0.00  0.00    +0.000 C 
ATOM     15  C   UNL     1       3.325   3.988  19.491  0.00  0.00    +0.000 A 
ATOM     16  C   UNL     1       2.843   2.844  20.158  0.00  0.00    +0.000 A 
ATOM     17  C   UNL     1       1.702   2.175  19.720  0.00  0.00    +0.000 A 
ATOM     18  C   UNL     1       1.051   2.643  18.587  0.00  0.00    +0.000 A 
ATOM     19  C   UNL     1       1.497   3.820  17.957  0.00  0.00    +0.000 A 
ATOM     20  C   UNL     1       2.606   4.558  18.420  0.00  0.00    +0.000 A 
ATOM     21  C   UNL     1       3.094   5.821  17.656  0.00  0.00    +0.000 C 
BRANCH  12  22
ATOM     22  O   UNL     1       5.420   6.675  16.862  0.00  0.00    +0.000 OA
BRANCH  22  23
ATOM     23  C   UNL     1       6.549   5.841  16.442  0.00  0.00    +0.000 C 
BRANCH  23  25
ATOM     24  C   UNL     1       5.594   4.289  14.285  0.00  0.00    +0.000 C 
ATOM     25  C   UNL     1       6.035   5.006  15.281  0.00  0.00    +0.000 C 
ENDBRANCH  23  25
ENDBRANCH  22  23
ENDBRANCH  12  22
ENDBRANCH   8  21
ENDBRANCH   1   9
BRANCH   6  26
ATOM     26  C   UNL     1      -0.729  11.453  20.198  0.00  0.00    +0.000 C 
BRANCH  26  27
ATOM     27  N   UNL     1      -0.545  12.813  20.843  0.00  0.00    +0.000 N 
ATOM     28  C   UNL     1      -0.834  13.097  22.177  0.00  0.00    +0.000 C 
ATOM     29  O   UNL     1      -1.189  12.208  22.949  0.00  0.00    +0.000 OA
ATOM     30  H   UNL     1      -0.087  13.532  20.303  0.00  0.00    +0.000 HD
BRANCH  28  31
ATOM     31  C   UNL     1      -0.647  14.576  22.736  0.00  0.00    +0.000 C 
ATOM     32  C   UNL     1       0.629  15.289  22.281  0.00  0.00    +0.000 C 
BRANCH  31  33
ATOM     33  N   UNL     1      -0.859  14.593  24.211  0.00  0.00    +0.000 NA
ATOM     34  C   UNL     1      -1.040  15.933  24.790  0.00  0.00    +0.000 C 
ATOM     35  H   UNL     1      -1.723  14.072  24.380  0.00  0.00    +0.000 HD
ENDBRANCH  31  33
ENDBRANCH  28  31
ENDBRANCH  26  27
BRANCH  26  36
ATOM     36  C   UNL     1      -1.700  11.553  18.907  0.00  0.00    +0.000 C 
ATOM     37  C   UNL     1      -3.122  12.057  19.279  0.00  0.00    +0.000 C 
ATOM     38  C   UNL     1      -1.167  12.567  17.859  0.00  0.00    +0.000 C 
ATOM     39  C   UNL     1      -1.882  10.202  18.182  0.00  0.00    +0.000 C 
ENDBRANCH  26  36
ENDBRANCH   6  26
TORSDOF 10
ENDMDL
MODEL 5
REMARK VINA RESULT:      -7.2      1.312      3.567
REMARK  Name = 
REMARK  15 active torsions:
REMARK  status: ('A' for Active; 'I' for Inactive)
REMARK    1  A    between atoms: C_2  and  C_3
REMARK    2  A    between atoms: C_3  and  O_4
REMARK    3  A    between atoms: O_4  and  C_5
REMARK    4  A    between atoms: C_14  and  N_15
REMARK    5  A    between atoms: C_16  and  C_18
REMARK    6  A    between atoms: C_23  and  C_25
REMARK    7  A    between atoms: C_25  and  N_26
REMARK    8  A    between atoms: C_25  and  C_33
REMARK    9  A    between atoms: C_27  and  C_29
REMARK   10  A    between atoms: C_29  and  C_30
REMARK   11  A    between atoms: C_29  and  N_31
REMARK   12  A    between atoms: N_31  and  C_32
REMARK   13  A    between atoms: C_33  and  C_34
REMARK   14  A    between atoms: C_33  and  C_35
REMARK   15  A    between atoms: C_33  and  C_36
REMARK                            x       y       z     vdW  Elec       q    Type
REMARK                         _______ _______ _______ _____ _____    ______ ____
ROOT
ATOM      1  C   UNL     1       1.926   8.554  19.731  0.00  0.00    +0.000 C 
ATOM      2  C   UNL     1       1.588   7.220  20.411  0.00  0.00    +0.000 C 
ATOM      3  C   UNL     1       0.887   7.593  21.707  0.00  0.00    +0.000 C 
ATOM      4  C   UNL     1       0.122   8.862  21.369  0.00  0.00    +0.000 C 
ATOM      5  N   UNL     1       0.683   9.366  20.129  0.00  0.00    +0.000 N 
ATOM      6  C   UNL     1       0.519  10.725  19.846  0.00  0.00    +0.000 C 
ATOM      7  O   UNL     1       1.486  11.389  19.450  0.00  0.00    +0.000 OA
ENDROOT
BRANCH   1   9
ATOM      8  N   UNL     1       1.921   6.959  17.682  0.00  0.00    +0.000 N 
ATOM      9  C   UNL     1       2.224   8.220  18.239  0.00  0.00    +0.000 C 
ATOM     10  O   UNL     1       2.566   9.103  17.442  0.00  0.00    +0.000 OA
ATOM     11  H   UNL     1       1.984   7.141  16.687  0.00  0.00    +0.000 HD
BRANCH   8  21
ATOM     12  C   UNL     1       1.926   4.314  17.686  0.00  0.00    +0.000 C 
ATOM     13  C   UNL     1       2.767   3.134  17.165  0.00  0.00    +0.000 C 
ATOM     14  C   UNL     1       3.928   3.456  16.242  0.00  0.00    +0.000 C 
ATOM     15  C   UNL     1       4.702   4.681  16.622  0.00  0.00    +0.000 A 
ATOM     16  C   UNL     1       6.041   4.738  16.188  0.00  0.00    +0.000 A 
ATOM     17  C   UNL     1       6.904   5.740  16.627  0.00  0.00    +0.000 A 
ATOM     18  C   UNL     1       6.425   6.682  17.527  0.00  0.00    +0.000 A 
ATOM     19  C   UNL     1       5.072   6.660  17.912  0.00  0.00    +0.000 A 
ATOM     20  C   UNL     1       4.158   5.700  17.430  0.00  0.00    +0.000 A 
ATOM     21  C   UNL     1       2.685   5.683  17.929  0.00  0.00    +0.000 C 
BRANCH  12  22
ATOM     22  O   UNL     1       1.080   3.823  18.783  0.00  0.00    +0.000 OA
BRANCH  22  23
ATOM     23  C   UNL     1       1.350   2.516  19.386  0.00  0.00    +0.000 C 
BRANCH  23  25
ATOM     24  C   UNL     1       2.201   3.054  22.025  0.00  0.00    +0.000 C 
ATOM     25  C   UNL     1       1.808   2.805  20.807  0.00  0.00    +0.000 C 
ENDBRANCH  23  25
ENDBRANCH  22  23
ENDBRANCH  12  22
ENDBRANCH   8  21
ENDBRANCH   1   9
BRANCH   6  26
ATOM     26  C   UNL     1      -0.926  11.419  20.093  0.00  0.00    +0.000 C 
BRANCH  26  27
ATOM     27  N   UNL     1      -0.830  12.790  20.734  0.00  0.00    +0.000 N 
ATOM     28  C   UNL     1      -0.674  13.009  22.102  0.00  0.00    +0.000 C 
ATOM     29  O   UNL     1      -0.520  12.068  22.879  0.00  0.00    +0.000 OA
ATOM     30  H   UNL     1      -0.770  13.592  20.124  0.00  0.00    +0.000 HD
BRANCH  28  31
ATOM     31  C   UNL     1      -0.633  14.495  22.671  0.00  0.00    +0.000 C 
ATOM     32  C   UNL     1       0.594  15.316  22.265  0.00  0.00    +0.000 C 
BRANCH  31  33
ATOM     33  N   UNL     1      -0.899  14.486  24.138  0.00  0.00    +0.000 NA
ATOM     34  C   UNL     1      -2.228  14.982  24.524  0.00  0.00    +0.000 C 
ATOM     35  H   UNL     1      -0.844  13.507  24.430  0.00  0.00    +0.000 HD
ENDBRANCH  31  33
ENDBRANCH  28  31
ENDBRANCH  26  27
BRANCH  26  36
ATOM     36  C   UNL     1      -1.782  11.483  18.720  0.00  0.00    +0.000 C 
ATOM     37  C   UNL     1      -3.253  11.919  18.964  0.00  0.00    +0.000 C 
ATOM     38  C   UNL     1      -1.204  12.527  17.726  0.00  0.00    +0.000 C 
ATOM     39  C   UNL     1      -1.836  10.130  17.978  0.00  0.00    +0.000 C 
ENDBRANCH  26  36
ENDBRANCH   6  26
TORSDOF 10
ENDMDL
MODEL 6
REMARK VINA RESULT:      -7.1      1.382      3.686
REMARK  Name = 
REMARK  15 active torsions:
REMARK  status: ('A' for Active; 'I' for Inactive)
REMARK    1  A    between atoms: C_2  and  C_3
REMARK    2  A    between atoms: C_3  and  O_4
REMARK    3  A    between atoms: O_4  and  C_5
REMARK    4  A    between atoms: C_14  and  N_15
REMARK    5  A    between atoms: C_16  and  C_18
REMARK    6  A    between atoms: C_23  and  C_25
REMARK    7  A    between atoms: C_25  and  N_26
REMARK    8  A    between atoms: C_25  and  C_33
REMARK    9  A    between atoms: C_27  and  C_29
REMARK   10  A    between atoms: C_29  and  C_30
REMARK   11  A    between atoms: C_29  and  N_31
REMARK   12  A    between atoms: N_31  and  C_32
REMARK   13  A    between atoms: C_33  and  C_34
REMARK   14  A    between atoms: C_33  and  C_35
REMARK   15  A    between atoms: C_33  and  C_36
REMARK                            x       y       z     vdW  Elec       q    Type
REMARK                         _______ _______ _______ _____ _____    ______ ____
ROOT
ATOM      1  C   UNL     1       1.926   8.580  19.814  0.00  0.00    +0.000 C 
ATOM      2  C   UNL     1       1.602   7.211  20.430  0.00  0.00    +0.000 C 
ATOM      3  C   UNL     1       0.841   7.516  21.710  0.00  0.00    +0.000 C 
ATOM      4  C   UNL     1       0.052   8.774  21.390  0.00  0.00    +0.000 C 
ATOM      5  N   UNL     1       0.646   9.341  20.192  0.00  0.00    +0.000 N 
ATOM      6  C   UNL     1       0.453  10.705  19.953  0.00  0.00    +0.000 C 
ATOM      7  O   UNL     1       1.415  11.410  19.621  0.00  0.00    +0.000 OA
ENDROOT
BRANCH   1   9
ATOM      8  N   UNL     1       2.024   7.073  17.702  0.00  0.00    +0.000 N 
ATOM      9  C   UNL     1       2.292   8.311  18.323  0.00  0.00    +0.000 C 
ATOM     10  O   UNL     1       2.659   9.229  17.580  0.00  0.00    +0.000 OA
ATOM     11  H   UNL     1       2.128   7.297  16.719  0.00  0.00    +0.000 HD
BRANCH   8  21
ATOM     12  C   UNL     1       2.016   4.428  17.716  0.00  0.00    +0.000 C 
ATOM     13  C   UNL     1       2.833   3.242  17.171  0.00  0.00    +0.000 C 
ATOM     14  C   UNL     1       3.964   3.554  16.209  0.00  0.00    +0.000 C 
ATOM     15  C   UNL     1       4.756   4.775  16.558  0.00  0.00    +0.000 A 
ATOM     16  C   UNL     1       6.080   4.824  16.079  0.00  0.00    +0.000 A 
ATOM     17  C   UNL     1       6.962   5.823  16.485  0.00  0.00    +0.000 A 
ATOM     18  C   UNL     1       6.519   6.770  17.397  0.00  0.00    +0.000 A 
ATOM     19  C   UNL     1       5.179   6.758  17.828  0.00  0.00    +0.000 A 
ATOM     20  C   UNL     1       4.245   5.801  17.379  0.00  0.00    +0.000 A 
ATOM     21  C   UNL     1       2.790   5.794  17.927  0.00  0.00    +0.000 C 
BRANCH  12  22
ATOM     22  O   UNL     1       1.205   3.945  18.842  0.00  0.00    +0.000 OA
BRANCH  22  23
ATOM     23  C   UNL     1       1.304   2.548  19.270  0.00  0.00    +0.000 C 
BRANCH  23  25
ATOM     24  C   UNL     1       1.850   2.634  22.040  0.00  0.00    +0.000 C 
ATOM     25  C   UNL     1       1.598   2.595  20.761  0.00  0.00    +0.000 C 
ENDBRANCH  23  25
ENDBRANCH  22  23
ENDBRANCH  12  22
ENDBRANCH   8  21
ENDBRANCH   1   9
BRANCH   6  26
ATOM     26  C   UNL     1      -1.019  11.349  20.169  0.00  0.00    +0.000 C 
BRANCH  26  27
ATOM     27  N   UNL     1      -0.998  12.639  20.966  0.00  0.00    +0.000 N 
ATOM     28  C   UNL     1      -0.831  12.706  22.349  0.00  0.00    +0.000 C 
ATOM     29  O   UNL     1      -0.603  11.692  23.007  0.00  0.00    +0.000 OA
ATOM     30  H   UNL     1      -1.001  13.508  20.455  0.00  0.00    +0.000 HD
BRANCH  28  31
ATOM     31  C   UNL     1      -0.873  14.114  23.089  0.00  0.00    +0.000 C 
ATOM     32  C   UNL     1      -2.104  14.354  23.967  0.00  0.00    +0.000 C 
BRANCH  31  33
ATOM     33  N   UNL     1      -0.600  15.209  22.115  0.00  0.00    +0.000 NA
ATOM     34  C   UNL     1       0.722  15.838  22.253  0.00  0.00    +0.000 C 
ATOM     35  H   UNL     1      -0.636  14.779  21.187  0.00  0.00    +0.000 HD
ENDBRANCH  31  33
ENDBRANCH  28  31
ENDBRANCH  26  27
BRANCH  26  36
ATOM     36  C   UNL     1      -1.774  11.559  18.751  0.00  0.00    +0.000 C 
ATOM     37  C   UNL     1      -1.785  10.263  17.895  0.00  0.00    +0.000 C 
ATOM     38  C   UNL     1      -3.268  11.938  18.942  0.00  0.00    +0.000 C 
ATOM     39  C   UNL     1      -1.132  12.662  17.883  0.00  0.00    +0.000 C 
ENDBRANCH  26  36
ENDBRANCH   6  26
TORSDOF 10
ENDMDL
MODEL 7
REMARK VINA RESULT:      -7.0      1.824      3.957
REMARK  Name = 
REMARK  15 active torsions:
REMARK  status: ('A' for Active; 'I' for Inactive)
REMARK    1  A    between atoms: C_2  and  C_3
REMARK    2  A    between atoms: C_3  and  O_4
REMARK    3  A    between atoms: O_4  and  C_5
REMARK    4  A    between atoms: C_14  and  N_15
REMARK    5  A    between atoms: C_16  and  C_18
REMARK    6  A    between atoms: C_23  and  C_25
REMARK    7  A    between atoms: C_25  and  N_26
REMARK    8  A    between atoms: C_25  and  C_33
REMARK    9  A    between atoms: C_27  and  C_29
REMARK   10  A    between atoms: C_29  and  C_30
REMARK   11  A    between atoms: C_29  and  N_31
REMARK   12  A    between atoms: N_31  and  C_32
REMARK   13  A    between atoms: C_33  and  C_34
REMARK   14  A    between atoms: C_33  and  C_35
REMARK   15  A    between atoms: C_33  and  C_36
REMARK                            x       y       z     vdW  Elec       q    Type
REMARK                         _______ _______ _______ _____ _____    ______ ____
ROOT
ATOM      1  C   UNL     1       1.728   9.096  19.516  0.00  0.00    +0.000 C 
ATOM      2  C   UNL     1       1.640   7.818  20.364  0.00  0.00    +0.000 C 
ATOM      3  C   UNL     1       0.863   8.213  21.609  0.00  0.00    +0.000 C 
ATOM      4  C   UNL     1      -0.123   9.260  21.122  0.00  0.00    +0.000 C 
ATOM      5  N   UNL     1       0.349   9.701  19.822  0.00  0.00    +0.000 N 
ATOM      6  C   UNL     1      -0.066  10.958  19.371  0.00  0.00    +0.000 C 
ATOM      7  O   UNL     1       0.763  11.738  18.884  0.00  0.00    +0.000 OA
ENDROOT
BRANCH   1   9
ATOM      8  N   UNL     1       1.874   7.321  17.627  0.00  0.00    +0.000 N 
ATOM      9  C   UNL     1       2.105   8.639  18.076  0.00  0.00    +0.000 C 
ATOM     10  O   UNL     1       2.448   9.458  17.214  0.00  0.00    +0.000 OA
ATOM     11  H   UNL     1       1.974   7.413  16.623  0.00  0.00    +0.000 HD
BRANCH   8  21
ATOM     12  C   UNL     1       1.930   4.708  18.035  0.00  0.00    +0.000 C 
ATOM     13  C   UNL     1       2.764   3.471  17.654  0.00  0.00    +0.000 C 
ATOM     14  C   UNL     1       3.867   3.659  16.630  0.00  0.00    +0.000 C 
ATOM     15  C   UNL     1       4.637   4.936  16.774  0.00  0.00    +0.000 A 
ATOM     16  C   UNL     1       5.949   4.940  16.262  0.00  0.00    +0.000 A 
ATOM     17  C   UNL     1       6.815   6.007  16.493  0.00  0.00    +0.000 A 
ATOM     18  C   UNL     1       6.368   7.070  17.265  0.00  0.00    +0.000 A 
ATOM     19  C   UNL     1       5.038   7.094  17.724  0.00  0.00    +0.000 A 
ATOM     20  C   UNL     1       4.118   6.062  17.445  0.00  0.00    +0.000 A 
ATOM     21  C   UNL     1       2.675   6.106  18.023  0.00  0.00    +0.000 C 
BRANCH  12  22
ATOM     22  O   UNL     1       1.153   4.382  19.239  0.00  0.00    +0.000 OA
BRANCH  22  23
ATOM     23  C   UNL     1       0.820   2.988  19.541  0.00  0.00    +0.000 C 
BRANCH  23  25
ATOM     24  C   UNL     1       1.843   2.502  22.128  0.00  0.00    +0.000 C 
ATOM     25  C   UNL     1       1.370   2.726  20.934  0.00  0.00    +0.000 C 
ENDBRANCH  23  25
ENDBRANCH  22  23
ENDBRANCH  12  22
ENDBRANCH   8  21
ENDBRANCH   1   9
BRANCH   6  26
ATOM     26  C   UNL     1      -1.619  11.391  19.544  0.00  0.00    +0.000 C 
BRANCH  26  27
ATOM     27  N   UNL     1      -1.793  12.827  19.999  0.00  0.00    +0.000 N 
ATOM     28  C   UNL     1      -2.404  13.205  21.194  0.00  0.00    +0.000 C 
ATOM     29  O   UNL     1      -2.776  12.361  22.008  0.00  0.00    +0.000 OA
ATOM     30  H   UNL     1      -1.347  13.551  19.455  0.00  0.00    +0.000 HD
BRANCH  28  31
ATOM     31  C   UNL     1      -2.575  14.748  21.547  0.00  0.00    +0.000 C 
ATOM     32  C   UNL     1      -3.128  15.040  22.945  0.00  0.00    +0.000 C 
BRANCH  31  33
ATOM     33  N   UNL     1      -3.304  15.444  20.449  0.00  0.00    +0.000 NA
ATOM     34  C   UNL     1      -4.700  15.787  20.759  0.00  0.00    +0.000 C 
ATOM     35  H   UNL     1      -2.805  16.322  20.289  0.00  0.00    +0.000 HD
ENDBRANCH  31  33
ENDBRANCH  28  31
ENDBRANCH  26  27
BRANCH  26  36
ATOM     36  C   UNL     1      -2.455  11.110  18.186  0.00  0.00    +0.000 C 
ATOM     37  C   UNL     1      -1.834  11.829  16.956  0.00  0.00    +0.000 C 
ATOM     38  C   UNL     1      -2.467   9.602  17.817  0.00  0.00    +0.000 C 
ATOM     39  C   UNL     1      -3.926  11.569  18.275  0.00  0.00    +0.000 C 
ENDBRANCH  26  36
ENDBRANCH   6  26
TORSDOF 10
ENDMDL
MODEL 8
REMARK VINA RESULT:      -7.0      0.841      1.250
REMARK  Name = 
REMARK  15 active torsions:
REMARK  status: ('A' for Active; 'I' for Inactive)
REMARK    1  A    between atoms: C_2  and  C_3
REMARK    2  A    between atoms: C_3  and  O_4
REMARK    3  A    between atoms: O_4  and  C_5
REMARK    4  A    between atoms: C_14  and  N_15
REMARK    5  A    between atoms: C_16  and  C_18
REMARK    6  A    between atoms: C_23  and  C_25
REMARK    7  A    between atoms: C_25  and  N_26
REMARK    8  A    between atoms: C_25  and  C_33
REMARK    9  A    between atoms: C_27  and  C_29
REMARK   10  A    between atoms: C_29  and  C_30
REMARK   11  A    between atoms: C_29  and  N_31
REMARK   12  A    between atoms: N_31  and  C_32
REMARK   13  A    between atoms: C_33  and  C_34
REMARK   14  A    between atoms: C_33  and  C_35
REMARK   15  A    between atoms: C_33  and  C_36
REMARK                            x       y       z     vdW  Elec       q    Type
REMARK                         _______ _______ _______ _____ _____    ______ ____
ROOT
ATOM      1  C   UNL     1       1.975   8.668  19.484  0.00  0.00    +0.000 C 
ATOM      2  C   UNL     1       1.676   7.345  20.205  0.00  0.00    +0.000 C 
ATOM      3  C   UNL     1       1.055   7.741  21.534  0.00  0.00    +0.000 C 
ATOM      4  C   UNL     1       0.273   9.006  21.222  0.00  0.00    +0.000 C 
ATOM      5  N   UNL     1       0.760   9.489  19.942  0.00  0.00    +0.000 N 
ATOM      6  C   UNL     1       0.581  10.844  19.648  0.00  0.00    +0.000 C 
ATOM      7  O   UNL     1       1.524  11.499  19.184  0.00  0.00    +0.000 OA
ENDROOT
BRANCH   1   9
ATOM      8  N   UNL     1       2.069   6.984  17.510  0.00  0.00    +0.000 N 
ATOM      9  C   UNL     1       2.183   8.309  17.982  0.00  0.00    +0.000 C 
ATOM     10  O   UNL     1       2.272   9.192  17.120  0.00  0.00    +0.000 OA
ATOM     11  H   UNL     1       1.998   7.117  16.508  0.00  0.00    +0.000 HD
BRANCH   8  21
ATOM     12  C   UNL     1       4.549   6.311  18.137  0.00  0.00    +0.000 C 
ATOM     13  C   UNL     1       5.312   5.355  19.071  0.00  0.00    +0.000 C 
ATOM     14  C   UNL     1       4.502   4.576  20.089  0.00  0.00    +0.000 C 
ATOM     15  C   UNL     1       3.189   4.066  19.580  0.00  0.00    +0.000 A 
ATOM     16  C   UNL     1       2.659   2.934  20.228  0.00  0.00    +0.000 A 
ATOM     17  C   UNL     1       1.538   2.271  19.732  0.00  0.00    +0.000 A 
ATOM     18  C   UNL     1       0.957   2.736  18.561  0.00  0.00    +0.000 A 
ATOM     19  C   UNL     1       1.449   3.902  17.947  0.00  0.00    +0.000 A 
ATOM     20  C   UNL     1       2.537   4.634  18.466  0.00  0.00    +0.000 A 
ATOM     21  C   UNL     1       3.080   5.886  17.721  0.00  0.00    +0.000 C 
BRANCH  12  22
ATOM     22  O   UNL     1       5.455   6.710  17.051  0.00  0.00    +0.000 OA
BRANCH  22  23
ATOM     23  C   UNL     1       6.882   6.390  17.134  0.00  0.00    +0.000 C 
BRANCH  23  25
ATOM     24  C   UNL     1       8.159   8.783  17.919  0.00  0.00    +0.000 C 
ATOM     25  C   UNL     1       7.569   7.679  17.556  0.00  0.00    +0.000 C 
ENDBRANCH  23  25
ENDBRANCH  22  23
ENDBRANCH  12  22
ENDBRANCH   8  21
ENDBRANCH   1   9
BRANCH   6  26
ATOM     26  C   UNL     1      -0.844  11.546  19.970  0.00  0.00    +0.000 C 
BRANCH  26  27
ATOM     27  N   UNL     1      -0.715  12.993  20.406  0.00  0.00    +0.000 N 
ATOM     28  C   UNL     1      -0.378  13.398  21.697  0.00  0.00    +0.000 C 
ATOM     29  O   UNL     1      -0.079  12.574  22.560  0.00  0.00    +0.000 OA
ATOM     30  H   UNL     1      -0.773  13.706  19.694  0.00  0.00    +0.000 HD
BRANCH  28  31
ATOM     31  C   UNL     1      -0.317  14.948  22.054  0.00  0.00    +0.000 C 
ATOM     32  C   UNL     1      -1.494  15.783  21.541  0.00  0.00    +0.000 C 
BRANCH  31  33
ATOM     33  N   UNL     1       1.020  15.501  21.697  0.00  0.00    +0.000 NA
ATOM     34  C   UNL     1       1.705  16.205  22.792  0.00  0.00    +0.000 C 
ATOM     35  H   UNL     1       1.601  14.698  21.444  0.00  0.00    +0.000 HD
ENDBRANCH  31  33
ENDBRANCH  28  31
ENDBRANCH  26  27
BRANCH  26  36
ATOM     36  C   UNL     1      -1.856  11.410  18.713  0.00  0.00    +0.000 C 
ATOM     37  C   UNL     1      -3.288  11.906  19.055  0.00  0.00    +0.000 C 
ATOM     38  C   UNL     1      -1.399  12.275  17.507  0.00  0.00    +0.000 C 
ATOM     39  C   UNL     1      -1.996   9.959  18.204  0.00  0.00    +0.000 C 
ENDBRANCH  26  36
ENDBRANCH   6  26
TORSDOF 10
ENDMDL
MODEL 9
REMARK VINA RESULT:      -7.0      1.979      3.957
REMARK  Name = 
REMARK  15 active torsions:
REMARK  status: ('A' for Active; 'I' for Inactive)
REMARK    1  A    between atoms: C_2  and  C_3
REMARK    2  A    between atoms: C_3  and  O_4
REMARK    3  A    between atoms: O_4  and  C_5
REMARK    4  A    between atoms: C_14  and  N_15
REMARK    5  A    between atoms: C_16  and  C_18
REMARK    6  A    between atoms: C_23  and  C_25
REMARK    7  A    between atoms: C_25  and  N_26
REMARK    8  A    between atoms: C_25  and  C_33
REMARK    9  A    between atoms: C_27  and  C_29
REMARK   10  A    between atoms: C_29  and  C_30
REMARK   11  A    between atoms: C_29  and  N_31
REMARK   12  A    between atoms: N_31  and  C_32
REMARK   13  A    between atoms: C_33  and  C_34
REMARK   14  A    between atoms: C_33  and  C_35
REMARK   15  A    between atoms: C_33  and  C_36
REMARK                            x       y       z     vdW  Elec       q    Type
REMARK                         _______ _______ _______ _____ _____    ______ ____
ROOT
ATOM      1  C   UNL     1       1.627   9.263  19.510  0.00  0.00    +0.000 C 
ATOM      2  C   UNL     1       1.569   8.031  20.426  0.00  0.00    +0.000 C 
ATOM      3  C   UNL     1       0.774   8.470  21.644  0.00  0.00    +0.000 C 
ATOM      4  C   UNL     1      -0.239   9.462  21.096  0.00  0.00    +0.000 C 
ATOM      5  N   UNL     1       0.230   9.844  19.776  0.00  0.00    +0.000 N 
ATOM      6  C   UNL     1      -0.218  11.063  19.255  0.00  0.00    +0.000 C 
ATOM      7  O   UNL     1       0.593  11.838  18.731  0.00  0.00    +0.000 OA
ENDROOT
BRANCH   1   9
ATOM      8  N   UNL     1       1.815   7.397  17.715  0.00  0.00    +0.000 N 
ATOM      9  C   UNL     1       2.025   8.739  18.098  0.00  0.00    +0.000 C 
ATOM     10  O   UNL     1       2.368   9.518  17.201  0.00  0.00    +0.000 OA
ATOM     11  H   UNL     1       1.925   7.440  16.708  0.00  0.00    +0.000 HD
BRANCH   8  21
ATOM     12  C   UNL     1       1.862   4.845  18.410  0.00  0.00    +0.000 C 
ATOM     13  C   UNL     1       2.641   3.553  18.104  0.00  0.00    +0.000 C 
ATOM     14  C   UNL     1       3.658   3.597  16.980  0.00  0.00    +0.000 C 
ATOM     15  C   UNL     1       4.458   4.862  16.916  0.00  0.00    +0.000 A 
ATOM     16  C   UNL     1       5.723   4.775  16.303  0.00  0.00    +0.000 A 
ATOM     17  C   UNL     1       6.622   5.838  16.341  0.00  0.00    +0.000 A 
ATOM     18  C   UNL     1       6.258   6.992  17.020  0.00  0.00    +0.000 A 
ATOM     19  C   UNL     1       4.972   7.101  17.580  0.00  0.00    +0.000 A 
ATOM     20  C   UNL     1       4.015   6.068  17.495  0.00  0.00    +0.000 A 
ATOM     21  C   UNL     1       2.626   6.214  18.179  0.00  0.00    +0.000 C 
BRANCH  12  22
ATOM     22  O   UNL     1       1.183   4.676  19.702  0.00  0.00    +0.000 OA
BRANCH  22  23
ATOM     23  C   UNL     1       1.959   4.694  20.944  0.00  0.00    +0.000 C 
BRANCH  23  25
ATOM     24  C   UNL     1       1.678   2.114  22.058  0.00  0.00    +0.000 C 
ATOM     25  C   UNL     1       1.808   3.305  21.543  0.00  0.00    +0.000 C 
ENDBRANCH  23  25
ENDBRANCH  22  23
ENDBRANCH  12  22
ENDBRANCH   8  21
ENDBRANCH   1   9
BRANCH   6  26
ATOM     26  C   UNL     1      -1.783  11.461  19.397  0.00  0.00    +0.000 C 
BRANCH  26  27
ATOM     27  N   UNL     1      -2.000  12.912  19.780  0.00  0.00    +0.000 N 
ATOM     28  C   UNL     1      -2.561  13.333  20.985  0.00  0.00    +0.000 C 
ATOM     29  O   UNL     1      -2.847  12.523  21.865  0.00  0.00    +0.000 OA
ATOM     30  H   UNL     1      -1.619  13.621  19.171  0.00  0.00    +0.000 HD
BRANCH  28  31
ATOM     31  C   UNL     1      -2.785  14.885  21.260  0.00  0.00    +0.000 C 
ATOM     32  C   UNL     1      -4.110  15.243  21.938  0.00  0.00    +0.000 C 
BRANCH  31  33
ATOM     33  N   UNL     1      -2.507  15.666  20.022  0.00  0.00    +0.000 NA
ATOM     34  C   UNL     1      -2.582  17.126  20.187  0.00  0.00    +0.000 C 
ATOM     35  H   UNL     1      -1.546  15.441  19.753  0.00  0.00    +0.000 HD
ENDBRANCH  31  33
ENDBRANCH  28  31
ENDBRANCH  26  27
BRANCH  26  36
ATOM     36  C   UNL     1      -2.600  11.091  18.049  0.00  0.00    +0.000 C 
ATOM     37  C   UNL     1      -4.061  11.619  18.085  0.00  0.00    +0.000 C 
ATOM     38  C   UNL     1      -1.961  11.736  16.790  0.00  0.00    +0.000 C 
ATOM     39  C   UNL     1      -2.682   9.571  17.790  0.00  0.00    +0.000 C 
ENDBRANCH  26  36
ENDBRANCH   6  26
TORSDOF 10
ENDMDL
