MODEL 1
REMARK VINA RESULT:      -8.2      0.000      0.000
REMARK  Name = 
REMARK  6 active torsions:
REMARK  status: ('A' for Active; 'I' for Inactive)
REMARK    1  A    between atoms: C_1  and  C_2
REMARK    2  A    between atoms: C_4  and  C_5
REMARK    3  A    between atoms: C_11  and  C_12
REMARK    4  A    between atoms: C_14  and  C_15
REMARK    5  A    between atoms: C_15  and  C_16
REMARK    6  A    between atoms: C_15  and  C_17
REMARK                            x       y       z     vdW  Elec       q    Type
REMARK                         _______ _______ _______ _____ _____    ______ ____
ROOT
ATOM      1  C   UNL     1       5.517   4.398  18.150  0.00  0.00    +0.000 C 
ATOM      2  O   UNL     1       6.199   4.707  19.132  0.00  0.00    +0.000 OA
ATOM      3  N   UNL     1       4.185   4.014  18.337  0.00  0.00    +0.000 N 
ATOM      4  C   UNL     1       3.231   3.615  17.291  0.00  0.00    +0.000 C 
ATOM      5  C   UNL     1       1.783   3.990  17.643  0.00  0.00    +0.000 C 
ATOM      6  O   UNL     1       1.420   3.642  18.984  0.00  0.00    +0.000 OA
ATOM      7  C   UNL     1       2.323   4.191  19.967  0.00  0.00    +0.000 C 
ATOM      8  C   UNL     1       3.745   3.685  19.699  0.00  0.00    +0.000 C 
ENDROOT
BRANCH   1  12
ATOM      9  C   UNL     1       6.367   3.782  13.273  0.00  0.00    +0.000 C 
ATOM     10  C   UNL     1       6.449   4.220  14.684  0.00  0.00    +0.000 A 
ATOM     11  N   UNL     1       5.757   3.746  15.697  0.00  0.00    +0.000 NA
ATOM     12  C   UNL     1       6.090   4.506  16.800  0.00  0.00    +0.000 A 
ATOM     13  C   UNL     1       7.060   5.422  16.432  0.00  0.00    +0.000 A 
ATOM     14  N   UNL     1       7.278   5.229  15.098  0.00  0.00    +0.000 N 
ATOM     15  H   UNL     1       7.914   5.753  14.511  0.00  0.00    +0.000 HD
ENDBRANCH   1  12
BRANCH   7  16
ATOM     16  C   UNL     1       2.185   5.684  20.003  0.00  0.00    +0.000 A 
ATOM     17  N   UNL     1       1.478   6.402  20.853  0.00  0.00    +0.000 NA
ATOM     18  C   UNL     1       1.651   7.688  20.416  0.00  0.00    +0.000 A 
ATOM     19  N   UNL     1       2.446   7.814  19.347  0.00  0.00    +0.000 NA
ATOM     20  N   UNL     1       2.778   6.535  19.108  0.00  0.00    +0.000 N 
ATOM     21  H   UNL     1       3.384   6.319  18.321  0.00  0.00    +0.000 HD
BRANCH  18  22
ATOM     22  C   UNL     1       0.999   8.847  21.089  0.00  0.00    +0.000 C 
ATOM     23  C   UNL     1       0.753   9.986  20.098  0.00  0.00    +0.000 C 
ATOM     24  C   UNL     1      -0.312   8.421  21.752  0.00  0.00    +0.000 C 
ENDBRANCH  18  22
ENDBRANCH   7  16
TORSDOF 3
ENDMDL
MODEL 2
REMARK VINA RESULT:      -8.1      1.003      1.454
REMARK  Name = 
REMARK  6 active torsions:
REMARK  status: ('A' for Active; 'I' for Inactive)
REMARK    1  A    between atoms: C_1  and  C_2
REMARK    2  A    between atoms: C_4  and  C_5
REMARK    3  A    between atoms: C_11  and  C_12
REMARK    4  A    between atoms: C_14  and  C_15
REMARK    5  A    between atoms: C_15  and  C_16
REMARK    6  A    between atoms: C_15  and  C_17
REMARK                            x       y       z     vdW  Elec       q    Type
REMARK                         _______ _______ _______ _____ _____    ______ ____
ROOT
ATOM      1  C   UNL     1       5.811   4.326  18.032  0.00  0.00    +0.000 C 
ATOM      2  O   UNL     1       6.491   4.775  18.959  0.00  0.00    +0.000 OA
ATOM      3  N   UNL     1       4.583   3.717  18.317  0.00  0.00    +0.000 N 
ATOM      4  C   UNL     1       3.648   3.130  17.347  0.00  0.00    +0.000 C 
ATOM      5  C   UNL     1       2.183   3.253  17.794  0.00  0.00    +0.000 C 
ATOM      6  O   UNL     1       1.978   2.882  19.162  0.00  0.00    +0.000 OA
ATOM      7  C   UNL     1       2.832   3.607  20.072  0.00  0.00    +0.000 C 
ATOM      8  C   UNL     1       4.300   3.352  19.711  0.00  0.00    +0.000 C 
ENDROOT
BRANCH   1  12
ATOM      9  C   UNL     1       6.387   3.779  13.107  0.00  0.00    +0.000 C 
ATOM     10  C   UNL     1       6.507   4.241  14.507  0.00  0.00    +0.000 A 
ATOM     11  N   UNL     1       5.964   3.685  15.569  0.00  0.00    +0.000 NA
ATOM     12  C   UNL     1       6.264   4.498  16.643  0.00  0.00    +0.000 A 
ATOM     13  C   UNL     1       7.065   5.537  16.204  0.00  0.00    +0.000 A 
ATOM     14  N   UNL     1       7.212   5.362  14.858  0.00  0.00    +0.000 N 
ATOM     15  H   UNL     1       7.722   5.963  14.226  0.00  0.00    +0.000 HD
ENDBRANCH   1  12
BRANCH   7  16
ATOM     16  C   UNL     1       2.435   5.052  20.097  0.00  0.00    +0.000 A 
ATOM     17  N   UNL     1       2.721   5.976  19.201  0.00  0.00    +0.000 NA
ATOM     18  C   UNL     1       2.174   7.117  19.723  0.00  0.00    +0.000 A 
ATOM     19  N   UNL     1       1.542   6.951  20.891  0.00  0.00    +0.000 NA
ATOM     20  N   UNL     1       1.713   5.637  21.104  0.00  0.00    +0.000 N 
ATOM     21  H   UNL     1       1.337   5.218  21.950  0.00  0.00    +0.000 HD
BRANCH  18  22
ATOM     22  C   UNL     1       2.281   8.434  19.033  0.00  0.00    +0.000 C 
ATOM     23  C   UNL     1       2.382   8.250  17.518  0.00  0.00    +0.000 C 
ATOM     24  C   UNL     1       1.092   9.329  19.386  0.00  0.00    +0.000 C 
ENDBRANCH  18  22
ENDBRANCH   7  16
TORSDOF 3
ENDMDL
MODEL 3
REMARK VINA RESULT:      -8.0      2.583      7.093
REMARK  Name = 
REMARK  6 active torsions:
REMARK  status: ('A' for Active; 'I' for Inactive)
REMARK    1  A    between atoms: C_1  and  C_2
REMARK    2  A    between atoms: C_4  and  C_5
REMARK    3  A    between atoms: C_11  and  C_12
REMARK    4  A    between atoms: C_14  and  C_15
REMARK    5  A    between atoms: C_15  and  C_16
REMARK    6  A    between atoms: C_15  and  C_17
REMARK                            x       y       z     vdW  Elec       q    Type
REMARK                         _______ _______ _______ _____ _____    ______ ____
ROOT
ATOM      1  C   UNL     1       4.739   4.385  19.231  0.00  0.00    +0.000 C 
ATOM      2  O   UNL     1       5.570   3.533  19.559  0.00  0.00    +0.000 OA
ATOM      3  N   UNL     1       5.152   5.487  18.474  0.00  0.00    +0.000 N 
ATOM      4  C   UNL     1       4.307   6.592  17.997  0.00  0.00    +0.000 C 
ATOM      5  C   UNL     1       4.794   7.169  16.659  0.00  0.00    +0.000 C 
ATOM      6  O   UNL     1       6.206   7.405  16.628  0.00  0.00    +0.000 OA
ATOM      7  C   UNL     1       6.977   6.233  16.967  0.00  0.00    +0.000 C 
ATOM      8  C   UNL     1       6.592   5.754  18.371  0.00  0.00    +0.000 C 
ENDROOT
BRANCH   1  12
ATOM      9  C   UNL     1       0.053   2.680  19.356  0.00  0.00    +0.000 C 
ATOM     10  C   UNL     1       1.291   3.447  19.613  0.00  0.00    +0.000 A 
ATOM     11  N   UNL     1       2.416   3.377  18.935  0.00  0.00    +0.000 NA
ATOM     12  C   UNL     1       3.323   4.196  19.578  0.00  0.00    +0.000 A 
ATOM     13  C   UNL     1       2.686   4.817  20.638  0.00  0.00    +0.000 A 
ATOM     14  N   UNL     1       1.407   4.339  20.648  0.00  0.00    +0.000 N 
ATOM     15  H   UNL     1       0.682   4.574  21.311  0.00  0.00    +0.000 HD
ENDBRANCH   1  12
BRANCH   7  16
ATOM     16  C   UNL     1       6.827   5.200  15.890  0.00  0.00    +0.000 A 
ATOM     17  N   UNL     1       7.157   5.316  14.619  0.00  0.00    +0.000 NA
ATOM     18  C   UNL     1       6.769   4.123  14.071  0.00  0.00    +0.000 A 
ATOM     19  N   UNL     1       6.229   3.258  14.938  0.00  0.00    +0.000 NA
ATOM     20  N   UNL     1       6.283   3.957  16.083  0.00  0.00    +0.000 N 
ATOM     21  H   UNL     1       5.921   3.541  16.936  0.00  0.00    +0.000 HD
BRANCH  18  22
ATOM     22  C   UNL     1       6.939   3.825  12.621  0.00  0.00    +0.000 C 
ATOM     23  C   UNL     1       5.635   3.303  12.013  0.00  0.00    +0.000 C 
ATOM     24  C   UNL     1       7.423   5.064  11.867  0.00  0.00    +0.000 C 
ENDBRANCH  18  22
ENDBRANCH   7  16
TORSDOF 3
ENDMDL
MODEL 4
REMARK VINA RESULT:      -7.9      2.755      3.806
REMARK  Name = 
REMARK  6 active torsions:
REMARK  status: ('A' for Active; 'I' for Inactive)
REMARK    1  A    between atoms: C_1  and  C_2
REMARK    2  A    between atoms: C_4  and  C_5
REMARK    3  A    between atoms: C_11  and  C_12
REMARK    4  A    between atoms: C_14  and  C_15
REMARK    5  A    between atoms: C_15  and  C_16
REMARK    6  A    between atoms: C_15  and  C_17
REMARK                            x       y       z     vdW  Elec       q    Type
REMARK                         _______ _______ _______ _____ _____    ______ ____
ROOT
ATOM      1  C   UNL     1       5.648   5.909  15.426  0.00  0.00    +0.000 C 
ATOM      2  O   UNL     1       4.965   6.907  15.180  0.00  0.00    +0.000 OA
ATOM      3  N   UNL     1       5.952   5.599  16.756  0.00  0.00    +0.000 N 
ATOM      4  C   UNL     1       6.748   4.459  17.233  0.00  0.00    +0.000 C 
ATOM      5  C   UNL     1       6.290   3.958  18.612  0.00  0.00    +0.000 C 
ATOM      6  O   UNL     1       6.086   5.015  19.557  0.00  0.00    +0.000 OA
ATOM      7  C   UNL     1       5.178   6.027  19.075  0.00  0.00    +0.000 C 
ATOM      8  C   UNL     1       5.723   6.631  17.776  0.00  0.00    +0.000 C 
ENDROOT
BRANCH   1  12
ATOM      9  C   UNL     1       5.644   2.505  11.779  0.00  0.00    +0.000 C 
ATOM     10  C   UNL     1       6.053   3.540  12.755  0.00  0.00    +0.000 A 
ATOM     11  N   UNL     1       5.326   4.026  13.737  0.00  0.00    +0.000 NA
ATOM     12  C   UNL     1       6.072   5.026  14.329  0.00  0.00    +0.000 A 
ATOM     13  C   UNL     1       7.308   5.085  13.709  0.00  0.00    +0.000 A 
ATOM     14  N   UNL     1       7.283   4.143  12.721  0.00  0.00    +0.000 N 
ATOM     15  H   UNL     1       8.024   3.942  12.063  0.00  0.00    +0.000 HD
ENDBRANCH   1  12
BRANCH   7  16
ATOM     16  C   UNL     1       3.795   5.457  18.968  0.00  0.00    +0.000 A 
ATOM     17  N   UNL     1       3.193   4.654  19.823  0.00  0.00    +0.000 NA
ATOM     18  C   UNL     1       1.986   4.395  19.232  0.00  0.00    +0.000 A 
ATOM     19  N   UNL     1       1.793   5.010  18.059  0.00  0.00    +0.000 NA
ATOM     20  N   UNL     1       2.946   5.683  17.917  0.00  0.00    +0.000 N 
ATOM     21  H   UNL     1       3.091   6.247  17.085  0.00  0.00    +0.000 HD
BRANCH  18  22
ATOM     22  C   UNL     1       0.975   3.496  19.857  0.00  0.00    +0.000 C 
ATOM     23  C   UNL     1       0.679   2.296  18.955  0.00  0.00    +0.000 C 
ATOM     24  C   UNL     1       1.446   3.026  21.234  0.00  0.00    +0.000 C 
ENDBRANCH  18  22
ENDBRANCH   7  16
TORSDOF 3
ENDMDL
MODEL 5
REMARK VINA RESULT:      -7.6      2.986      4.315
REMARK  Name = 
REMARK  6 active torsions:
REMARK  status: ('A' for Active; 'I' for Inactive)
REMARK    1  A    between atoms: C_1  and  C_2
REMARK    2  A    between atoms: C_4  and  C_5
REMARK    3  A    between atoms: C_11  and  C_12
REMARK    4  A    between atoms: C_14  and  C_15
REMARK    5  A    between atoms: C_15  and  C_16
REMARK    6  A    between atoms: C_15  and  C_17
REMARK                            x       y       z     vdW  Elec       q    Type
REMARK                         _______ _______ _______ _____ _____    ______ ____
ROOT
ATOM      1  C   UNL     1       5.828   5.643  15.269  0.00  0.00    +0.000 C 
ATOM      2  O   UNL     1       4.832   6.371  15.224  0.00  0.00    +0.000 OA
ATOM      3  N   UNL     1       6.544   5.538  16.466  0.00  0.00    +0.000 N 
ATOM      4  C   UNL     1       7.747   4.726  16.703  0.00  0.00    +0.000 C 
ATOM      5  C   UNL     1       7.836   4.216  18.149  0.00  0.00    +0.000 C 
ATOM      6  O   UNL     1       7.569   5.232  19.123  0.00  0.00    +0.000 OA
ATOM      7  C   UNL     1       6.301   5.888  18.911  0.00  0.00    +0.000 C 
ATOM      8  C   UNL     1       6.280   6.528  17.518  0.00  0.00    +0.000 C 
ENDROOT
BRANCH   1  12
ATOM      9  C   UNL     1       5.785   2.300  11.567  0.00  0.00    +0.000 C 
ATOM     10  C   UNL     1       6.173   3.385  12.495  0.00  0.00    +0.000 A 
ATOM     11  N   UNL     1       5.547   3.739  13.597  0.00  0.00    +0.000 NA
ATOM     12  C   UNL     1       6.205   4.847  14.091  0.00  0.00    +0.000 A 
ATOM     13  C   UNL     1       7.295   5.115  13.281  0.00  0.00    +0.000 A 
ATOM     14  N   UNL     1       7.264   4.185  12.282  0.00  0.00    +0.000 N 
ATOM     15  H   UNL     1       7.909   4.114  11.507  0.00  0.00    +0.000 HD
ENDBRANCH   1  12
BRANCH   7  16
ATOM     16  C   UNL     1       5.182   4.925  19.175  0.00  0.00    +0.000 A 
ATOM     17  N   UNL     1       3.905   5.208  19.334  0.00  0.00    +0.000 NA
ATOM     18  C   UNL     1       3.332   3.993  19.598  0.00  0.00    +0.000 A 
ATOM     19  N   UNL     1       4.183   2.960  19.594  0.00  0.00    +0.000 NA
ATOM     20  N   UNL     1       5.345   3.572  19.317  0.00  0.00    +0.000 N 
ATOM     21  H   UNL     1       6.196   3.020  19.261  0.00  0.00    +0.000 HD
BRANCH  18  22
ATOM     22  C   UNL     1       1.873   3.847  19.867  0.00  0.00    +0.000 C 
ATOM     23  C   UNL     1       1.205   2.977  18.800  0.00  0.00    +0.000 C 
ATOM     24  C   UNL     1       1.635   3.263  21.260  0.00  0.00    +0.000 C 
ENDBRANCH  18  22
ENDBRANCH   7  16
TORSDOF 3
ENDMDL
MODEL 6
REMARK VINA RESULT:      -7.5      1.426      1.821
REMARK  Name = 
REMARK  6 active torsions:
REMARK  status: ('A' for Active; 'I' for Inactive)
REMARK    1  A    between atoms: C_1  and  C_2
REMARK    2  A    between atoms: C_4  and  C_5
REMARK    3  A    between atoms: C_11  and  C_12
REMARK    4  A    between atoms: C_14  and  C_15
REMARK    5  A    between atoms: C_15  and  C_16
REMARK    6  A    between atoms: C_15  and  C_17
REMARK                            x       y       z     vdW  Elec       q    Type
REMARK                         _______ _______ _______ _____ _____    ______ ____
ROOT
ATOM      1  C   UNL     1       5.761   5.369  17.303  0.00  0.00    +0.000 C 
ATOM      2  O   UNL     1       6.523   6.157  17.872  0.00  0.00    +0.000 OA
ATOM      3  N   UNL     1       4.566   5.001  17.931  0.00  0.00    +0.000 N 
ATOM      4  C   UNL     1       3.546   4.080  17.408  0.00  0.00    +0.000 C 
ATOM      5  C   UNL     1       2.128   4.448  17.873  0.00  0.00    +0.000 C 
ATOM      6  O   UNL     1       2.051   4.733  19.274  0.00  0.00    +0.000 OA
ATOM      7  C   UNL     1       2.984   5.753  19.689  0.00  0.00    +0.000 C 
ATOM      8  C   UNL     1       4.413   5.306  19.359  0.00  0.00    +0.000 C 
ENDROOT
BRANCH   1  12
ATOM      9  C   UNL     1       7.514   5.078  12.642  0.00  0.00    +0.000 C 
ATOM     10  C   UNL     1       6.846   4.781  13.928  0.00  0.00    +0.000 A 
ATOM     11  N   UNL     1       6.667   5.611  14.932  0.00  0.00    +0.000 NA
ATOM     12  C   UNL     1       6.084   4.886  15.952  0.00  0.00    +0.000 A 
ATOM     13  C   UNL     1       5.857   3.596  15.506  0.00  0.00    +0.000 A 
ATOM     14  N   UNL     1       6.339   3.544  14.230  0.00  0.00    +0.000 N 
ATOM     15  H   UNL     1       6.349   2.735  13.623  0.00  0.00    +0.000 HD
ENDBRANCH   1  12
BRANCH   7  16
ATOM     16  C   UNL     1       2.588   7.073  19.098  0.00  0.00    +0.000 A 
ATOM     17  N   UNL     1       1.823   7.997  19.644  0.00  0.00    +0.000 NA
ATOM     18  C   UNL     1       1.738   8.963  18.677  0.00  0.00    +0.000 A 
ATOM     19  N   UNL     1       2.425   8.699  17.560  0.00  0.00    +0.000 NA
ATOM     20  N   UNL     1       2.962   7.503  17.851  0.00  0.00    +0.000 N 
ATOM     21  H   UNL     1       3.543   7.039  17.160  0.00  0.00    +0.000 HD
BRANCH  18  22
ATOM     22  C   UNL     1       0.937  10.205  18.869  0.00  0.00    +0.000 C 
ATOM     23  C   UNL     1      -0.364  10.145  18.066  0.00  0.00    +0.000 C 
ATOM     24  C   UNL     1       0.641  10.436  20.351  0.00  0.00    +0.000 C 
ENDBRANCH  18  22
ENDBRANCH   7  16
TORSDOF 3
ENDMDL
MODEL 7
REMARK VINA RESULT:      -7.4      1.869      2.625
REMARK  Name = 
REMARK  6 active torsions:
REMARK  status: ('A' for Active; 'I' for Inactive)
REMARK    1  A    between atoms: C_1  and  C_2
REMARK    2  A    between atoms: C_4  and  C_5
REMARK    3  A    between atoms: C_11  and  C_12
REMARK    4  A    between atoms: C_14  and  C_15
REMARK    5  A    between atoms: C_15  and  C_16
REMARK    6  A    between atoms: C_15  and  C_17
REMARK                            x       y       z     vdW  Elec       q    Type
REMARK                         _______ _______ _______ _____ _____    ______ ____
ROOT
ATOM      1  C   UNL     1       6.530   4.935  15.685  0.00  0.00    +0.000 C 
ATOM      2  O   UNL     1       7.289   5.885  15.899  0.00  0.00    +0.000 OA
ATOM      3  N   UNL     1       5.796   4.394  16.746  0.00  0.00    +0.000 N 
ATOM      4  C   UNL     1       4.853   3.269  16.678  0.00  0.00    +0.000 C 
ATOM      5  C   UNL     1       3.710   3.398  17.697  0.00  0.00    +0.000 C 
ATOM      6  O   UNL     1       4.161   3.754  19.008  0.00  0.00    +0.000 OA
ATOM      7  C   UNL     1       4.964   4.954  19.016  0.00  0.00    +0.000 C 
ATOM      8  C   UNL     1       6.188   4.758  18.114  0.00  0.00    +0.000 C 
ENDROOT
BRANCH   1  12
ATOM      9  C   UNL     1       4.514   3.159  11.483  0.00  0.00    +0.000 C 
ATOM     10  C   UNL     1       5.465   3.656  12.500  0.00  0.00    +0.000 A 
ATOM     11  N   UNL     1       5.205   3.906  13.765  0.00  0.00    +0.000 NA
ATOM     12  C   UNL     1       6.357   4.434  14.314  0.00  0.00    +0.000 A 
ATOM     13  C   UNL     1       7.348   4.435  13.348  0.00  0.00    +0.000 A 
ATOM     14  N   UNL     1       6.775   3.940  12.212  0.00  0.00    +0.000 N 
ATOM     15  H   UNL     1       7.221   3.830  11.312  0.00  0.00    +0.000 HD
ENDBRANCH   1  12
BRANCH   7  16
ATOM     16  C   UNL     1       4.111   6.137  18.667  0.00  0.00    +0.000 A 
ATOM     17  N   UNL     1       3.056   6.582  19.319  0.00  0.00    +0.000 NA
ATOM     18  C   UNL     1       2.624   7.636  18.559  0.00  0.00    +0.000 A 
ATOM     19  N   UNL     1       3.365   7.884  17.473  0.00  0.00    +0.000 NA
ATOM     20  N   UNL     1       4.304   6.929  17.565  0.00  0.00    +0.000 N 
ATOM     21  H   UNL     1       5.018   6.865  16.847  0.00  0.00    +0.000 HD
BRANCH  18  22
ATOM     22  C   UNL     1       1.420   8.434  18.926  0.00  0.00    +0.000 C 
ATOM     23  C   UNL     1       1.312   8.595  20.443  0.00  0.00    +0.000 C 
ATOM     24  C   UNL     1       1.448   9.802  18.243  0.00  0.00    +0.000 C 
ENDBRANCH  18  22
ENDBRANCH   7  16
TORSDOF 3
ENDMDL
MODEL 8
REMARK VINA RESULT:      -7.4      2.822      6.949
REMARK  Name = 
REMARK  6 active torsions:
REMARK  status: ('A' for Active; 'I' for Inactive)
REMARK    1  A    between atoms: C_1  and  C_2
REMARK    2  A    between atoms: C_4  and  C_5
REMARK    3  A    between atoms: C_11  and  C_12
REMARK    4  A    between atoms: C_14  and  C_15
REMARK    5  A    between atoms: C_15  and  C_16
REMARK    6  A    between atoms: C_15  and  C_17
REMARK                            x       y       z     vdW  Elec       q    Type
REMARK                         _______ _______ _______ _____ _____    ______ ____
ROOT
ATOM      1  C   UNL     1       4.661   3.880  19.388  0.00  0.00    +0.000 C 
ATOM      2  O   UNL     1       5.568   3.069  19.601  0.00  0.00    +0.000 OA
ATOM      3  N   UNL     1       4.969   5.109  18.796  0.00  0.00    +0.000 N 
ATOM      4  C   UNL     1       4.026   6.189  18.472  0.00  0.00    +0.000 C 
ATOM      5  C   UNL     1       4.453   6.990  17.232  0.00  0.00    +0.000 C 
ATOM      6  O   UNL     1       5.838   7.355  17.245  0.00  0.00    +0.000 OA
ATOM      7  C   UNL     1       6.712   6.220  17.423  0.00  0.00    +0.000 C 
ATOM      8  C   UNL     1       6.379   5.517  18.743  0.00  0.00    +0.000 C 
ENDROOT
BRANCH   1  12
ATOM      9  C   UNL     1      -0.006   2.159  19.009  0.00  0.00    +0.000 C 
ATOM     10  C   UNL     1       1.245   2.771  19.509  0.00  0.00    +0.000 A 
ATOM     11  N   UNL     1       2.326   3.038  18.808  0.00  0.00    +0.000 NA
ATOM     12  C   UNL     1       3.269   3.516  19.694  0.00  0.00    +0.000 A 
ATOM     13  C   UNL     1       2.699   3.591  20.953  0.00  0.00    +0.000 A 
ATOM     14  N   UNL     1       1.424   3.121  20.822  0.00  0.00    +0.000 N 
ATOM     15  H   UNL     1       0.741   3.020  21.560  0.00  0.00    +0.000 HD
ENDBRANCH   1  12
BRANCH   7  16
ATOM     16  C   UNL     1       6.651   5.339  16.211  0.00  0.00    +0.000 A 
ATOM     17  N   UNL     1       6.718   5.711  14.948  0.00  0.00    +0.000 NA
ATOM     18  C   UNL     1       6.562   4.540  14.255  0.00  0.00    +0.000 A 
ATOM     19  N   UNL     1       6.419   3.452  15.020  0.00  0.00    +0.000 NA
ATOM     20  N   UNL     1       6.487   3.979  16.253  0.00  0.00    +0.000 N 
ATOM     21  H   UNL     1       6.394   3.369  17.060  0.00  0.00    +0.000 HD
BRANCH  18  22
ATOM     22  C   UNL     1       6.552   4.498  12.765  0.00  0.00    +0.000 C 
ATOM     23  C   UNL     1       7.825   5.124  12.193  0.00  0.00    +0.000 C 
ATOM     24  C   UNL     1       6.390   3.062  12.265  0.00  0.00    +0.000 C 
ENDBRANCH  18  22
ENDBRANCH   7  16
TORSDOF 3
ENDMDL
MODEL 9
REMARK VINA RESULT:      -7.3      1.921      7.107
REMARK  Name = 
REMARK  6 active torsions:
REMARK  status: ('A' for Active; 'I' for Inactive)
REMARK    1  A    between atoms: C_1  and  C_2
REMARK    2  A    between atoms: C_4  and  C_5
REMARK    3  A    between atoms: C_11  and  C_12
REMARK    4  A    between atoms: C_14  and  C_15
REMARK    5  A    between atoms: C_15  and  C_16
REMARK    6  A    between atoms: C_15  and  C_17
REMARK                            x       y       z     vdW  Elec       q    Type
REMARK                         _______ _______ _______ _____ _____    ______ ____
ROOT
ATOM      1  C   UNL     1       3.638   5.434  18.018  0.00  0.00    +0.000 C 
ATOM      2  O   UNL     1       2.974   4.538  17.488  0.00  0.00    +0.000 OA
ATOM      3  N   UNL     1       5.009   5.242  18.218  0.00  0.00    +0.000 N 
ATOM      4  C   UNL     1       5.949   6.192  18.830  0.00  0.00    +0.000 C 
ATOM      5  C   UNL     1       7.366   6.073  18.248  0.00  0.00    +0.000 C 
ATOM      6  O   UNL     1       7.824   4.719  18.150  0.00  0.00    +0.000 OA
ATOM      7  C   UNL     1       6.916   3.876  17.409  0.00  0.00    +0.000 C 
ATOM      8  C   UNL     1       5.542   3.879  18.088  0.00  0.00    +0.000 C 
ENDROOT
BRANCH   1  12
ATOM      9  C   UNL     1       1.784  10.058  17.761  0.00  0.00    +0.000 C 
ATOM     10  C   UNL     1       2.203   8.721  18.237  0.00  0.00    +0.000 A 
ATOM     11  N   UNL     1       2.927   7.843  17.579  0.00  0.00    +0.000 NA
ATOM     12  C   UNL     1       2.995   6.711  18.365  0.00  0.00    +0.000 A 
ATOM     13  C   UNL     1       2.336   6.957  19.557  0.00  0.00    +0.000 A 
ATOM     14  N   UNL     1       1.844   8.227  19.464  0.00  0.00    +0.000 N 
ATOM     15  H   UNL     1       1.291   8.711  20.159  0.00  0.00    +0.000 HD
ENDBRANCH   1  12
BRANCH   7  16
ATOM     16  C   UNL     1       6.904   4.288  15.967  0.00  0.00    +0.000 A 
ATOM     17  N   UNL     1       6.305   3.676  14.966  0.00  0.00    +0.000 NA
ATOM     18  C   UNL     1       6.649   4.426  13.873  0.00  0.00    +0.000 A 
ATOM     19  N   UNL     1       7.418   5.488  14.142  0.00  0.00    +0.000 NA
ATOM     20  N   UNL     1       7.560   5.385  15.473  0.00  0.00    +0.000 N 
ATOM     21  H   UNL     1       8.123   6.072  15.966  0.00  0.00    +0.000 HD
BRANCH  18  22
ATOM     22  C   UNL     1       6.195   4.075  12.497  0.00  0.00    +0.000 C 
ATOM     23  C   UNL     1       7.129   3.043  11.861  0.00  0.00    +0.000 C 
ATOM     24  C   UNL     1       4.757   3.555  12.517  0.00  0.00    +0.000 C 
ENDBRANCH  18  22
ENDBRANCH   7  16
TORSDOF 3
ENDMDL
