MODEL 1
REMARK VINA RESULT:      -8.7      0.000      0.000
REMARK  Name = 
REMARK  6 active torsions:
REMARK  status: ('A' for Active; 'I' for Inactive)
REMARK    1  A    between atoms: C_1  and  C_2
REMARK    2  A    between atoms: C_2  and  C_3
REMARK    3  A    between atoms: C_2  and  N_18
REMARK    4  A    between atoms: C_3  and  N_4
REMARK    5  A    between atoms: C_7  and  C_8
REMARK    6  A    between atoms: C_11  and  C_12
REMARK                            x       y       z     vdW  Elec       q    Type
REMARK                         _______ _______ _______ _____ _____    ______ ____
ROOT
ATOM      1  C   UNL     1       6.317   6.872  16.321  0.00  0.00    +0.000 C 
ENDROOT
BRANCH   1   2
ATOM      2  N   UNL     1       7.249   7.349  17.339  0.00  0.00    +0.000 N 
ATOM      3  C   UNL     1       7.794   6.622  18.358  0.00  0.00    +0.000 A 
ATOM      4  C   UNL     1       8.564   7.500  19.080  0.00  0.00    +0.000 A 
ATOM      5  C   UNL     1       8.427   8.749  18.424  0.00  0.00    +0.000 A 
ATOM      6  N   UNL     1       7.611   8.644  17.364  0.00  0.00    +0.000 NA
BRANCH   5   7
ATOM      7  C   UNL     1       9.054  10.014  18.789  0.00  0.00    +0.000 A 
ATOM      8  C   UNL     1       9.196  10.370  20.137  0.00  0.00    +0.000 A 
ATOM      9  C   UNL     1       9.841  11.559  20.486  0.00  0.00    +0.000 A 
ATOM     10  C   UNL     1      10.339  12.408  19.485  0.00  0.00    +0.000 A 
ATOM     11  C   UNL     1      10.180  12.062  18.139  0.00  0.00    +0.000 A 
ATOM     12 CL   UNL     1      10.769  13.059  16.858  0.00  0.00    +0.000 Cl
ATOM     13  C   UNL     1       9.538  10.871  17.794  0.00  0.00    +0.000 A 
BRANCH  10  14
ATOM     14  C   UNL     1      11.005  13.608  19.874  0.00  0.00    +0.000 C 
ATOM     15  N   UNL     1      11.532  14.605  20.176  0.00  0.00    +0.000 NA
ENDBRANCH  10  14
ENDBRANCH   5   7
ENDBRANCH   1   2
BRANCH   1  17
ATOM     16  C   UNL     1       7.052   4.957  14.835  0.00  0.00    +0.000 C 
ATOM     17  C   UNL     1       6.374   5.340  16.160  0.00  0.00    +0.000 C 
BRANCH  17  18
ATOM     18  N   UNL     1       5.054   4.697  16.169  0.00  0.00    +0.000 N 
ATOM     19  C   UNL     1       4.350   4.515  17.348  0.00  0.00    +0.000 A 
ATOM     20  C   UNL     1       3.130   3.836  17.313  0.00  0.00    +0.000 A 
ATOM     21  C   UNL     1       2.425   3.578  18.499  0.00  0.00    +0.000 A 
ATOM     22  C   UNL     1       1.202   2.884  18.511  0.00  0.00    +0.000 A 
ATOM     23  C   UNL     1       0.533   2.637  19.713  0.00  0.00    +0.000 A 
ATOM     24  C   UNL     1       1.070   3.088  20.918  0.00  0.00    +0.000 A 
ATOM     25  C   UNL     1       2.282   3.778  20.923  0.00  0.00    +0.000 A 
ATOM     26  C   UNL     1       2.968   4.018  19.717  0.00  0.00    +0.000 A 
ATOM     27  C   UNL     1       4.193   4.680  19.654  0.00  0.00    +0.000 A 
ATOM     28  N   UNL     1       4.883   4.924  18.511  0.00  0.00    +0.000 NA
ATOM     29  H   UNL     1       4.548   4.582  15.301  0.00  0.00    +0.000 HD
ENDBRANCH  17  18
ENDBRANCH   1  17
TORSDOF 5
ENDMDL
MODEL 2
REMARK VINA RESULT:      -8.4      1.316      1.803
REMARK  Name = 
REMARK  6 active torsions:
REMARK  status: ('A' for Active; 'I' for Inactive)
REMARK    1  A    between atoms: C_1  and  C_2
REMARK    2  A    between atoms: C_2  and  C_3
REMARK    3  A    between atoms: C_2  and  N_18
REMARK    4  A    between atoms: C_3  and  N_4
REMARK    5  A    between atoms: C_7  and  C_8
REMARK    6  A    between atoms: C_11  and  C_12
REMARK                            x       y       z     vdW  Elec       q    Type
REMARK                         _______ _______ _______ _____ _____    ______ ____
ROOT
ATOM      1  C   UNL     1       6.452   6.154  16.536  0.00  0.00    +0.000 C 
ENDROOT
BRANCH   1   2
ATOM      2  N   UNL     1       7.294   6.948  17.425  0.00  0.00    +0.000 N 
ATOM      3  C   UNL     1       7.895   6.530  18.579  0.00  0.00    +0.000 A 
ATOM      4  C   UNL     1       8.537   7.629  19.092  0.00  0.00    +0.000 A 
ATOM      5  C   UNL     1       8.270   8.681  18.180  0.00  0.00    +0.000 A 
ATOM      6  N   UNL     1       7.501   8.252  17.169  0.00  0.00    +0.000 NA
BRANCH   5   7
ATOM      7  C   UNL     1       8.734  10.061  18.261  0.00  0.00    +0.000 A 
ATOM      8  C   UNL     1       8.098  11.066  17.519  0.00  0.00    +0.000 A 
ATOM      9  C   UNL     1       8.511  12.396  17.635  0.00  0.00    +0.000 A 
ATOM     10  C   UNL     1       9.576  12.728  18.488  0.00  0.00    +0.000 A 
ATOM     11  C   UNL     1      10.223  11.723  19.213  0.00  0.00    +0.000 A 
ATOM     12 CL   UNL     1      11.538  12.061  20.280  0.00  0.00    +0.000 Cl
ATOM     13  C   UNL     1       9.805  10.395  19.097  0.00  0.00    +0.000 A 
BRANCH  10  14
ATOM     14  C   UNL     1       9.965  14.095  18.595  0.00  0.00    +0.000 C 
ATOM     15  N   UNL     1      10.296  15.210  18.708  0.00  0.00    +0.000 NA
ENDBRANCH  10  14
ENDBRANCH   5   7
ENDBRANCH   1   2
BRANCH   1  17
ATOM     16  C   UNL     1       6.205   3.919  15.369  0.00  0.00    +0.000 C 
ATOM     17  C   UNL     1       6.840   4.662  16.556  0.00  0.00    +0.000 C 
BRANCH  17  18
ATOM     18  N   UNL     1       6.419   3.961  17.776  0.00  0.00    +0.000 N 
ATOM     19  C   UNL     1       5.087   3.903  18.150  0.00  0.00    +0.000 A 
ATOM     20  C   UNL     1       4.745   3.285  19.355  0.00  0.00    +0.000 A 
ATOM     21  C   UNL     1       3.411   3.267  19.793  0.00  0.00    +0.000 A 
ATOM     22  C   UNL     1       3.026   2.671  21.006  0.00  0.00    +0.000 A 
ATOM     23  C   UNL     1       1.689   2.681  21.414  0.00  0.00    +0.000 A 
ATOM     24  C   UNL     1       0.718   3.276  20.612  0.00  0.00    +0.000 A 
ATOM     25  C   UNL     1       1.084   3.871  19.404  0.00  0.00    +0.000 A 
ATOM     26  C   UNL     1       2.430   3.877  18.994  0.00  0.00    +0.000 A 
ATOM     27  C   UNL     1       2.867   4.475  17.813  0.00  0.00    +0.000 A 
ATOM     28  N   UNL     1       4.155   4.503  17.389  0.00  0.00    +0.000 NA
ATOM     29  H   UNL     1       7.062   3.330  18.237  0.00  0.00    +0.000 HD
ENDBRANCH  17  18
ENDBRANCH   1  17
TORSDOF 5
ENDMDL
MODEL 3
REMARK VINA RESULT:      -8.4      2.612      3.046
REMARK  Name = 
REMARK  6 active torsions:
REMARK  status: ('A' for Active; 'I' for Inactive)
REMARK    1  A    between atoms: C_1  and  C_2
REMARK    2  A    between atoms: C_2  and  C_3
REMARK    3  A    between atoms: C_2  and  N_18
REMARK    4  A    between atoms: C_3  and  N_4
REMARK    5  A    between atoms: C_7  and  C_8
REMARK    6  A    between atoms: C_11  and  C_12
REMARK                            x       y       z     vdW  Elec       q    Type
REMARK                         _______ _______ _______ _____ _____    ______ ____
ROOT
ATOM      1  C   UNL     1       7.086   5.040  16.285  0.00  0.00    +0.000 C 
ENDROOT
BRANCH   1   2
ATOM      2  N   UNL     1       7.538   5.976  17.310  0.00  0.00    +0.000 N 
ATOM      3  C   UNL     1       7.743   5.709  18.634  0.00  0.00    +0.000 A 
ATOM      4  C   UNL     1       8.114   6.900  19.208  0.00  0.00    +0.000 A 
ATOM      5  C   UNL     1       8.107   7.845  18.153  0.00  0.00    +0.000 A 
ATOM      6  N   UNL     1       7.744   7.268  16.997  0.00  0.00    +0.000 NA
BRANCH   5   7
ATOM      7  C   UNL     1       8.439   9.263  18.232  0.00  0.00    +0.000 A 
ATOM      8  C   UNL     1       7.844  10.179  17.353  0.00  0.00    +0.000 A 
ATOM      9  C   UNL     1       8.125  11.544  17.462  0.00  0.00    +0.000 A 
ATOM     10  C   UNL     1       9.015  12.000  18.448  0.00  0.00    +0.000 A 
ATOM     11  C   UNL     1       9.622  11.084  19.312  0.00  0.00    +0.000 A 
ATOM     12 CL   UNL     1      10.725  11.578  20.546  0.00  0.00    +0.000 Cl
ATOM     13  C   UNL     1       9.337   9.722  19.202  0.00  0.00    +0.000 A 
BRANCH  10  14
ATOM     14  C   UNL     1       9.270  13.400  18.544  0.00  0.00    +0.000 C 
ATOM     15  N   UNL     1       9.501  14.541  18.638  0.00  0.00    +0.000 NA
ENDBRANCH  10  14
ENDBRANCH   5   7
ENDBRANCH   1   2
BRANCH   1  17
ATOM     16  C   UNL     1       5.079   4.143  15.028  0.00  0.00    +0.000 C 
ATOM     17  C   UNL     1       5.554   4.870  16.296  0.00  0.00    +0.000 C 
BRANCH  17  18
ATOM     18  N   UNL     1       4.822   6.141  16.363  0.00  0.00    +0.000 N 
ATOM     19  C   UNL     1       4.055   6.472  17.468  0.00  0.00    +0.000 A 
ATOM     20  C   UNL     1       3.322   7.661  17.455  0.00  0.00    +0.000 A 
ATOM     21  C   UNL     1       2.484   7.993  18.532  0.00  0.00    +0.000 A 
ATOM     22  C   UNL     1       1.716   9.170  18.552  0.00  0.00    +0.000 A 
ATOM     23  C   UNL     1       0.886   9.463  19.639  0.00  0.00    +0.000 A 
ATOM     24  C   UNL     1       0.819   8.590  20.722  0.00  0.00    +0.000 A 
ATOM     25  C   UNL     1       1.576   7.418  20.718  0.00  0.00    +0.000 A 
ATOM     26  C   UNL     1       2.403   7.110  19.621  0.00  0.00    +0.000 A 
ATOM     27  C   UNL     1       3.165   5.945  19.541  0.00  0.00    +0.000 A 
ATOM     28  N   UNL     1       3.969   5.616  18.500  0.00  0.00    +0.000 NA
ATOM     29  H   UNL     1       5.042   6.880  15.709  0.00  0.00    +0.000 HD
ENDBRANCH  17  18
ENDBRANCH   1  17
TORSDOF 5
ENDMDL
MODEL 4
REMARK VINA RESULT:      -8.2      2.478      2.796
REMARK  Name = 
REMARK  6 active torsions:
REMARK  status: ('A' for Active; 'I' for Inactive)
REMARK    1  A    between atoms: C_1  and  C_2
REMARK    2  A    between atoms: C_2  and  C_3
REMARK    3  A    between atoms: C_2  and  N_18
REMARK    4  A    between atoms: C_3  and  N_4
REMARK    5  A    between atoms: C_7  and  C_8
REMARK    6  A    between atoms: C_11  and  C_12
REMARK                            x       y       z     vdW  Elec       q    Type
REMARK                         _______ _______ _______ _____ _____    ______ ____
ROOT
ATOM      1  C   UNL     1       7.050   5.376  15.914  0.00  0.00    +0.000 C 
ENDROOT
BRANCH   1   2
ATOM      2  N   UNL     1       7.514   6.163  17.052  0.00  0.00    +0.000 N 
ATOM      3  C   UNL     1       7.691   5.728  18.335  0.00  0.00    +0.000 A 
ATOM      4  C   UNL     1       8.089   6.826  19.056  0.00  0.00    +0.000 A 
ATOM      5  C   UNL     1       8.127   7.895  18.126  0.00  0.00    +0.000 A 
ATOM      6  N   UNL     1       7.764   7.476  16.904  0.00  0.00    +0.000 NA
BRANCH   5   7
ATOM      7  C   UNL     1       8.500   9.281  18.384  0.00  0.00    +0.000 A 
ATOM      8  C   UNL     1       9.447   9.586  19.370  0.00  0.00    +0.000 A 
ATOM      9  C   UNL     1       9.840  10.910  19.583  0.00  0.00    +0.000 A 
ATOM     10  C   UNL     1       9.276  11.942  18.815  0.00  0.00    +0.000 A 
ATOM     11  C   UNL     1       8.317  11.639  17.844  0.00  0.00    +0.000 A 
ATOM     12 CL   UNL     1       7.585  12.858  16.864  0.00  0.00    +0.000 Cl
ATOM     13  C   UNL     1       7.929  10.314  17.632  0.00  0.00    +0.000 A 
BRANCH  10  14
ATOM     14  C   UNL     1       9.709  13.281  19.046  0.00  0.00    +0.000 C 
ATOM     15  N   UNL     1      10.040  14.382  19.250  0.00  0.00    +0.000 NA
ENDBRANCH  10  14
ENDBRANCH   5   7
ENDBRANCH   1   2
BRANCH   1  17
ATOM     16  C   UNL     1       5.033   4.523  14.640  0.00  0.00    +0.000 C 
ATOM     17  C   UNL     1       5.525   5.150  15.954  0.00  0.00    +0.000 C 
BRANCH  17  18
ATOM     18  N   UNL     1       4.753   6.382  16.158  0.00  0.00    +0.000 N 
ATOM     19  C   UNL     1       4.032   6.596  17.321  0.00  0.00    +0.000 A 
ATOM     20  C   UNL     1       3.258   7.752  17.438  0.00  0.00    +0.000 A 
ATOM     21  C   UNL     1       2.465   7.966  18.576  0.00  0.00    +0.000 A 
ATOM     22  C   UNL     1       1.658   9.107  18.728  0.00  0.00    +0.000 A 
ATOM     23  C   UNL     1       0.874   9.281  19.872  0.00  0.00    +0.000 A 
ATOM     24  C   UNL     1       0.892   8.324  20.884  0.00  0.00    +0.000 A 
ATOM     25  C   UNL     1       1.687   7.186  20.749  0.00  0.00    +0.000 A 
ATOM     26  C   UNL     1       2.469   6.998  19.594  0.00  0.00    +0.000 A 
ATOM     27  C   UNL     1       3.266   5.873  19.385  0.00  0.00    +0.000 A 
ATOM     28  N   UNL     1       4.028   5.658  18.283  0.00  0.00    +0.000 NA
ATOM     29  H   UNL     1       4.914   7.178  15.556  0.00  0.00    +0.000 HD
ENDBRANCH  17  18
ENDBRANCH   1  17
TORSDOF 5
ENDMDL
MODEL 5
REMARK VINA RESULT:      -8.1      1.237      1.542
REMARK  Name = 
REMARK  6 active torsions:
REMARK  status: ('A' for Active; 'I' for Inactive)
REMARK    1  A    between atoms: C_1  and  C_2
REMARK    2  A    between atoms: C_2  and  C_3
REMARK    3  A    between atoms: C_2  and  N_18
REMARK    4  A    between atoms: C_3  and  N_4
REMARK    5  A    between atoms: C_7  and  C_8
REMARK    6  A    between atoms: C_11  and  C_12
REMARK                            x       y       z     vdW  Elec       q    Type
REMARK                         _______ _______ _______ _____ _____    ______ ____
ROOT
ATOM      1  C   UNL     1       6.609   6.365  15.900  0.00  0.00    +0.000 C 
ENDROOT
BRANCH   1   2
ATOM      2  N   UNL     1       7.342   6.930  17.028  0.00  0.00    +0.000 N 
ATOM      3  C   UNL     1       7.687   6.293  18.186  0.00  0.00    +0.000 A 
ATOM      4  C   UNL     1       8.318   7.233  18.962  0.00  0.00    +0.000 A 
ATOM      5  C   UNL     1       8.312   8.423  18.193  0.00  0.00    +0.000 A 
ATOM      6  N   UNL     1       7.704   8.225  17.014  0.00  0.00    +0.000 NA
BRANCH   5   7
ATOM      7  C   UNL     1       8.871   9.718  18.562  0.00  0.00    +0.000 A 
ATOM      8  C   UNL     1       9.341  10.593  17.573  0.00  0.00    +0.000 A 
ATOM      9  C   UNL     1       9.831  11.854  17.923  0.00  0.00    +0.000 A 
ATOM     10  C   UNL     1       9.865  12.244  19.272  0.00  0.00    +0.000 A 
ATOM     11  C   UNL     1       9.414  11.363  20.260  0.00  0.00    +0.000 A 
ATOM     12 CL   UNL     1       9.427  11.778  21.937  0.00  0.00    +0.000 Cl
ATOM     13  C   UNL     1       8.922  10.105  19.906  0.00  0.00    +0.000 A 
BRANCH  10  14
ATOM     14  C   UNL     1      10.357  13.543  19.597  0.00  0.00    +0.000 C 
ATOM     15  N   UNL     1      10.734  14.613  19.872  0.00  0.00    +0.000 NA
ENDBRANCH  10  14
ENDBRANCH   5   7
ENDBRANCH   1   2
BRANCH   1  17
ATOM     16  C   UNL     1       6.453   4.012  14.975  0.00  0.00    +0.000 C 
ATOM     17  C   UNL     1       6.150   4.919  16.177  0.00  0.00    +0.000 C 
BRANCH  17  18
ATOM     18  N   UNL     1       4.712   4.802  16.453  0.00  0.00    +0.000 N 
ATOM     19  C   UNL     1       4.249   4.354  17.679  0.00  0.00    +0.000 A 
ATOM     20  C   UNL     1       2.875   4.193  17.869  0.00  0.00    +0.000 A 
ATOM     21  C   UNL     1       2.378   3.678  19.077  0.00  0.00    +0.000 A 
ATOM     22  C   UNL     1       1.005   3.484  19.304  0.00  0.00    +0.000 A 
ATOM     23  C   UNL     1       0.548   2.961  20.517  0.00  0.00    +0.000 A 
ATOM     24  C   UNL     1       1.455   2.633  21.523  0.00  0.00    +0.000 A 
ATOM     25  C   UNL     1       2.821   2.820  21.314  0.00  0.00    +0.000 A 
ATOM     26  C   UNL     1       3.289   3.334  20.089  0.00  0.00    +0.000 A 
ATOM     27  C   UNL     1       4.641   3.522  19.806  0.00  0.00    +0.000 A 
ATOM     28  N   UNL     1       5.126   4.011  18.638  0.00  0.00    +0.000 NA
ATOM     29  H   UNL     1       4.047   5.251  15.839  0.00  0.00    +0.000 HD
ENDBRANCH  17  18
ENDBRANCH   1  17
TORSDOF 5
ENDMDL
MODEL 6
REMARK VINA RESULT:      -7.9      8.241     10.483
REMARK  Name = 
REMARK  6 active torsions:
REMARK  status: ('A' for Active; 'I' for Inactive)
REMARK    1  A    between atoms: C_1  and  C_2
REMARK    2  A    between atoms: C_2  and  C_3
REMARK    3  A    between atoms: C_2  and  N_18
REMARK    4  A    between atoms: C_3  and  N_4
REMARK    5  A    between atoms: C_7  and  C_8
REMARK    6  A    between atoms: C_11  and  C_12
REMARK                            x       y       z     vdW  Elec       q    Type
REMARK                         _______ _______ _______ _____ _____    ______ ____
ROOT
ATOM      1  C   UNL     1       0.410  10.499  20.754  0.00  0.00    +0.000 C 
ENDROOT
BRANCH   1   2
ATOM      2  N   UNL     1       1.096   9.544  19.890  0.00  0.00    +0.000 N 
ATOM      3  C   UNL     1       1.354   9.681  18.555  0.00  0.00    +0.000 A 
ATOM      4  C   UNL     1       1.971   8.518  18.167  0.00  0.00    +0.000 A 
ATOM      5  C   UNL     1       2.046   7.722  19.337  0.00  0.00    +0.000 A 
ATOM      6  N   UNL     1       1.499   8.359  20.383  0.00  0.00    +0.000 NA
BRANCH   5   7
ATOM      7  C   UNL     1       2.624   6.389  19.465  0.00  0.00    +0.000 A 
ATOM      8  C   UNL     1       3.748   6.030  18.709  0.00  0.00    +0.000 A 
ATOM      9  C   UNL     1       4.331   4.770  18.869  0.00  0.00    +0.000 A 
ATOM     10  C   UNL     1       3.783   3.854  19.782  0.00  0.00    +0.000 A 
ATOM     11  C   UNL     1       2.650   4.206  20.522  0.00  0.00    +0.000 A 
ATOM     12 CL   UNL     1       1.926   3.129  21.662  0.00  0.00    +0.000 Cl
ATOM     13  C   UNL     1       2.072   5.467  20.362  0.00  0.00    +0.000 A 
BRANCH  10  14
ATOM     14  C   UNL     1       4.409   2.582  19.934  0.00  0.00    +0.000 C 
ATOM     15  N   UNL     1       4.940   1.552  20.075  0.00  0.00    +0.000 NA
ENDBRANCH  10  14
ENDBRANCH   5   7
ENDBRANCH   1   2
BRANCH   1  17
ATOM     16  C   UNL     1       1.065  12.865  20.132  0.00  0.00    +0.000 C 
ATOM     17  C   UNL     1      -0.006  11.772  19.990  0.00  0.00    +0.000 C 
BRANCH  17  18
ATOM     18  N   UNL     1      -1.273  12.349  20.455  0.00  0.00    +0.000 N 
ATOM     19  C   UNL     1      -2.456  12.135  19.766  0.00  0.00    +0.000 A 
ATOM     20  C   UNL     1      -3.623  12.763  20.209  0.00  0.00    +0.000 A 
ATOM     21  C   UNL     1      -4.823  12.619  19.495  0.00  0.00    +0.000 A 
ATOM     22  C   UNL     1      -6.016  13.246  19.895  0.00  0.00    +0.000 A 
ATOM     23  C   UNL     1      -7.191  13.086  19.154  0.00  0.00    +0.000 A 
ATOM     24  C   UNL     1      -7.192  12.292  18.009  0.00  0.00    +0.000 A 
ATOM     25  C   UNL     1      -6.017  11.663  17.599  0.00  0.00    +0.000 A 
ATOM     26  C   UNL     1      -4.828  11.830  18.333  0.00  0.00    +0.000 A 
ATOM     27  C   UNL     1      -3.615  11.250  17.965  0.00  0.00    +0.000 A 
ATOM     28  N   UNL     1      -2.450  11.392  18.646  0.00  0.00    +0.000 NA
ATOM     29  H   UNL     1      -1.340  12.720  21.393  0.00  0.00    +0.000 HD
ENDBRANCH  17  18
ENDBRANCH   1  17
TORSDOF 5
ENDMDL
MODEL 7
REMARK VINA RESULT:      -7.9      1.216      1.258
REMARK  Name = 
REMARK  6 active torsions:
REMARK  status: ('A' for Active; 'I' for Inactive)
REMARK    1  A    between atoms: C_1  and  C_2
REMARK    2  A    between atoms: C_2  and  C_3
REMARK    3  A    between atoms: C_2  and  N_18
REMARK    4  A    between atoms: C_3  and  N_4
REMARK    5  A    between atoms: C_7  and  C_8
REMARK    6  A    between atoms: C_11  and  C_12
REMARK                            x       y       z     vdW  Elec       q    Type
REMARK                         _______ _______ _______ _____ _____    ______ ____
ROOT
ATOM      1  C   UNL     1       6.088   6.063  16.051  0.00  0.00    +0.000 C 
ENDROOT
BRANCH   1   2
ATOM      2  N   UNL     1       6.971   6.690  17.031  0.00  0.00    +0.000 N 
ATOM      3  C   UNL     1       7.585   6.084  18.089  0.00  0.00    +0.000 A 
ATOM      4  C   UNL     1       8.267   7.075  18.750  0.00  0.00    +0.000 A 
ATOM      5  C   UNL     1       8.008   8.262  18.021  0.00  0.00    +0.000 A 
ATOM      6  N   UNL     1       7.205   8.013  16.975  0.00  0.00    +0.000 NA
BRANCH   5   7
ATOM      7  C   UNL     1       8.509   9.602  18.303  0.00  0.00    +0.000 A 
ATOM      8  C   UNL     1       9.568   9.786  19.202  0.00  0.00    +0.000 A 
ATOM      9  C   UNL     1      10.080  11.065  19.435  0.00  0.00    +0.000 A 
ATOM     10  C   UNL     1       9.525  12.174  18.775  0.00  0.00    +0.000 A 
ATOM     11  C   UNL     1       8.456  11.992  17.893  0.00  0.00    +0.000 A 
ATOM     12 CL   UNL     1       7.727  13.311  17.048  0.00  0.00    +0.000 Cl
ATOM     13  C   UNL     1       7.949  10.712  17.660  0.00  0.00    +0.000 A 
BRANCH  10  14
ATOM     14  C   UNL     1      10.079  13.464  19.022  0.00  0.00    +0.000 C 
ATOM     15  N   UNL     1      10.510  14.527  19.241  0.00  0.00    +0.000 NA
ENDBRANCH  10  14
ENDBRANCH   5   7
ENDBRANCH   1   2
BRANCH   1  17
ATOM     16  C   UNL     1       6.536   4.413  14.182  0.00  0.00    +0.000 C 
ATOM     17  C   UNL     1       6.539   4.631  15.704  0.00  0.00    +0.000 C 
BRANCH  17  18
ATOM     18  N   UNL     1       5.686   3.588  16.289  0.00  0.00    +0.000 N 
ATOM     19  C   UNL     1       4.630   3.908  17.127  0.00  0.00    +0.000 A 
ATOM     20  C   UNL     1       3.892   2.878  17.714  0.00  0.00    +0.000 A 
ATOM     21  C   UNL     1       2.859   3.169  18.619  0.00  0.00    +0.000 A 
ATOM     22  C   UNL     1       2.102   2.163  19.244  0.00  0.00    +0.000 A 
ATOM     23  C   UNL     1       1.087   2.491  20.147  0.00  0.00    +0.000 A 
ATOM     24  C   UNL     1       0.807   3.826  20.430  0.00  0.00    +0.000 A 
ATOM     25  C   UNL     1       1.548   4.836  19.817  0.00  0.00    +0.000 A 
ATOM     26  C   UNL     1       2.581   4.513  18.917  0.00  0.00    +0.000 A 
ATOM     27  C   UNL     1       3.376   5.471  18.289  0.00  0.00    +0.000 A 
ATOM     28  N   UNL     1       4.381   5.195  17.421  0.00  0.00    +0.000 NA
ATOM     29  H   UNL     1       5.718   2.649  15.916  0.00  0.00    +0.000 HD
ENDBRANCH  17  18
ENDBRANCH   1  17
TORSDOF 5
ENDMDL
MODEL 8
REMARK VINA RESULT:      -7.9      5.443      7.732
REMARK  Name = 
REMARK  6 active torsions:
REMARK  status: ('A' for Active; 'I' for Inactive)
REMARK    1  A    between atoms: C_1  and  C_2
REMARK    2  A    between atoms: C_2  and  C_3
REMARK    3  A    between atoms: C_2  and  N_18
REMARK    4  A    between atoms: C_3  and  N_4
REMARK    5  A    between atoms: C_7  and  C_8
REMARK    6  A    between atoms: C_11  and  C_12
REMARK                            x       y       z     vdW  Elec       q    Type
REMARK                         _______ _______ _______ _____ _____    ______ ____
ROOT
ATOM      1  C   UNL     1       3.126   3.681  20.818  0.00  0.00    +0.000 C 
ENDROOT
BRANCH   1   2
ATOM      2  N   UNL     1       3.535   3.280  19.475  0.00  0.00    +0.000 N 
ATOM      3  C   UNL     1       3.243   2.104  18.845  0.00  0.00    +0.000 A 
ATOM      4  C   UNL     1       3.878   2.158  17.629  0.00  0.00    +0.000 A 
ATOM      5  C   UNL     1       4.539   3.412  17.604  0.00  0.00    +0.000 A 
ATOM      6  N   UNL     1       4.327   4.085  18.745  0.00  0.00    +0.000 NA
BRANCH   5   7
ATOM      7  C   UNL     1       5.350   3.964  16.526  0.00  0.00    +0.000 A 
ATOM      8  C   UNL     1       6.360   4.894  16.806  0.00  0.00    +0.000 A 
ATOM      9  C   UNL     1       7.170   5.385  15.778  0.00  0.00    +0.000 A 
ATOM     10  C   UNL     1       6.965   4.955  14.457  0.00  0.00    +0.000 A 
ATOM     11  C   UNL     1       5.945   4.042  14.175  0.00  0.00    +0.000 A 
ATOM     12 CL   UNL     1       5.638   3.472  12.574  0.00  0.00    +0.000 Cl
ATOM     13  C   UNL     1       5.139   3.551  15.205  0.00  0.00    +0.000 A 
BRANCH  10  14
ATOM     14  C   UNL     1       7.817   5.464  13.433  0.00  0.00    +0.000 C 
ATOM     15  N   UNL     1       8.500   5.904  12.595  0.00  0.00    +0.000 NA
ENDBRANCH  10  14
ENDBRANCH   5   7
ENDBRANCH   1   2
BRANCH   1  17
ATOM     16  C   UNL     1       0.655   4.060  20.408  0.00  0.00    +0.000 C 
ATOM     17  C   UNL     1       1.989   4.722  20.787  0.00  0.00    +0.000 C 
BRANCH  17  18
ATOM     18  N   UNL     1       2.216   5.811  19.829  0.00  0.00    +0.000 N 
ATOM     19  C   UNL     1       1.793   7.103  20.096  0.00  0.00    +0.000 A 
ATOM     20  C   UNL     1       1.969   8.090  19.123  0.00  0.00    +0.000 A 
ATOM     21  C   UNL     1       1.493   9.393  19.337  0.00  0.00    +0.000 A 
ATOM     22  C   UNL     1       1.634  10.412  18.379  0.00  0.00    +0.000 A 
ATOM     23  C   UNL     1       1.138  11.696  18.623  0.00  0.00    +0.000 A 
ATOM     24  C   UNL     1       0.504  11.983  19.830  0.00  0.00    +0.000 A 
ATOM     25  C   UNL     1       0.356  10.983  20.792  0.00  0.00    +0.000 A 
ATOM     26  C   UNL     1       0.841   9.684  20.546  0.00  0.00    +0.000 A 
ATOM     27  C   UNL     1       0.705   8.634  21.453  0.00  0.00    +0.000 A 
ATOM     28  N   UNL     1       1.156   7.371  21.248  0.00  0.00    +0.000 NA
ATOM     29  H   UNL     1       2.872   5.682  19.071  0.00  0.00    +0.000 HD
ENDBRANCH  17  18
ENDBRANCH   1  17
TORSDOF 5
ENDMDL
MODEL 9
REMARK VINA RESULT:      -7.8      1.292      1.727
REMARK  Name = 
REMARK  6 active torsions:
REMARK  status: ('A' for Active; 'I' for Inactive)
REMARK    1  A    between atoms: C_1  and  C_2
REMARK    2  A    between atoms: C_2  and  C_3
REMARK    3  A    between atoms: C_2  and  N_18
REMARK    4  A    between atoms: C_3  and  N_4
REMARK    5  A    between atoms: C_7  and  C_8
REMARK    6  A    between atoms: C_11  and  C_12
REMARK                            x       y       z     vdW  Elec       q    Type
REMARK                         _______ _______ _______ _____ _____    ______ ____
ROOT
ATOM      1  C   UNL     1       6.832   5.542  15.807  0.00  0.00    +0.000 C 
ENDROOT
BRANCH   1   2
ATOM      2  N   UNL     1       7.398   6.266  16.942  0.00  0.00    +0.000 N 
ATOM      3  C   UNL     1       7.703   5.756  18.172  0.00  0.00    +0.000 A 
ATOM      4  C   UNL     1       8.159   6.814  18.918  0.00  0.00    +0.000 A 
ATOM      5  C   UNL     1       8.096   7.938  18.057  0.00  0.00    +0.000 A 
ATOM      6  N   UNL     1       7.620   7.589  16.852  0.00  0.00    +0.000 NA
BRANCH   5   7
ATOM      7  C   UNL     1       8.479   9.311  18.363  0.00  0.00    +0.000 A 
ATOM      8  C   UNL     1       9.397   9.577  19.388  0.00  0.00    +0.000 A 
ATOM      9  C   UNL     1       9.801  10.889  19.649  0.00  0.00    +0.000 A 
ATOM     10  C   UNL     1       9.277  11.948  18.890  0.00  0.00    +0.000 A 
ATOM     11  C   UNL     1       8.347  11.685  17.881  0.00  0.00    +0.000 A 
ATOM     12 CL   UNL     1       7.663  12.939  16.910  0.00  0.00    +0.000 Cl
ATOM     13  C   UNL     1       7.948  10.372  17.621  0.00  0.00    +0.000 A 
BRANCH  10  14
ATOM     14  C   UNL     1       9.720  13.275  19.170  0.00  0.00    +0.000 C 
ATOM     15  N   UNL     1      10.109  14.352  19.395  0.00  0.00    +0.000 NA
ENDBRANCH  10  14
ENDBRANCH   5   7
ENDBRANCH   1   2
BRANCH   1  17
ATOM     16  C   UNL     1       5.020   6.961  14.749  0.00  0.00    +0.000 C 
ATOM     17  C   UNL     1       5.313   5.771  15.677  0.00  0.00    +0.000 C 
BRANCH  17  18
ATOM     18  N   UNL     1       4.649   6.051  16.956  0.00  0.00    +0.000 N 
ATOM     19  C   UNL     1       4.039   5.043  17.685  0.00  0.00    +0.000 A 
ATOM     20  C   UNL     1       3.360   5.370  18.861  0.00  0.00    +0.000 A 
ATOM     21  C   UNL     1       2.676   4.382  19.587  0.00  0.00    +0.000 A 
ATOM     22  C   UNL     1       1.967   4.671  20.766  0.00  0.00    +0.000 A 
ATOM     23  C   UNL     1       1.290   3.662  21.457  0.00  0.00    +0.000 A 
ATOM     24  C   UNL     1       1.320   2.351  20.987  0.00  0.00    +0.000 A 
ATOM     25  C   UNL     1       2.019   2.048  19.819  0.00  0.00    +0.000 A 
ATOM     26  C   UNL     1       2.692   3.062  19.110  0.00  0.00    +0.000 A 
ATOM     27  C   UNL     1       3.389   2.832  17.925  0.00  0.00    +0.000 A 
ATOM     28  N   UNL     1       4.044   3.784  17.215  0.00  0.00    +0.000 NA
ATOM     29  H   UNL     1       4.818   6.930  17.426  0.00  0.00    +0.000 HD
ENDBRANCH  17  18
ENDBRANCH   1  17
TORSDOF 5
ENDMDL
