MODEL 1
REMARK VINA RESULT:      -8.2      0.000      0.000
REMARK  Name = 
REMARK  14 active torsions:
REMARK  status: ('A' for Active; 'I' for Inactive)
REMARK    1  A    between atoms: C_1  and  C_2
REMARK    2  A    between atoms: C_2  and  C_3
REMARK    3  A    between atoms: C_3  and  C_4
REMARK    4  A    between atoms: C_6  and  C_7
REMARK    5  A    between atoms: C_7  and  C_9
REMARK    6  A    between atoms: C_18  and  O_19
REMARK    7  A    between atoms: O_19  and  C_20
REMARK    8  A    between atoms: C_20  and  C_21
REMARK    9  A    between atoms: C_21  and  C_22
REMARK   10  A    between atoms: C_22  and  O_23
REMARK   11  A    between atoms: O_23  and  C_24
REMARK   12  A    between atoms: N_30  and  C_31
REMARK   13  A    between atoms: C_31  and  C_32
REMARK   14  A    between atoms: C_32  and  O_34
REMARK                            x       y       z     vdW  Elec       q    Type
REMARK                         _______ _______ _______ _____ _____    ______ ____
ROOT
ATOM      1  O   UNL     1       0.739  10.335  18.843  0.00  0.00    +0.000 OA
ENDROOT
BRANCH   1   7
ATOM      2  C   UNL     1       1.377   8.186  19.999  0.00  0.00    +0.000 A 
ATOM      3  C   UNL     1       2.218   7.056  19.864  0.00  0.00    +0.000 A 
ATOM      4  C   UNL     1       3.094   6.899  18.785  0.00  0.00    +0.000 A 
ATOM      5  C   UNL     1       3.072   7.827  17.752  0.00  0.00    +0.000 A 
ATOM      6  C   UNL     1       2.234   8.937  17.856  0.00  0.00    +0.000 A 
ATOM      7  C   UNL     1       1.395   9.145  18.973  0.00  0.00    +0.000 A 
BRANCH   4   8
ATOM      8  C   UNL     1       4.026   5.743  18.808  0.00  0.00    +0.000 C 
ATOM      9  O   UNL     1       4.032   5.005  19.792  0.00  0.00    +0.000 OA
BRANCH   8  10
ATOM     10  C   UNL     1       4.973   5.470  17.694  0.00  0.00    +0.000 A 
ATOM     11  C   UNL     1       4.548   4.617  16.665  0.00  0.00    +0.000 A 
ATOM     12  C   UNL     1       5.398   4.329  15.596  0.00  0.00    +0.000 A 
ATOM     13  C   UNL     1       6.671   4.886  15.564  0.00  0.00    +0.000 A 
ATOM     14  F   UNL     1       7.482   4.618  14.534  0.00  0.00    +0.000 F 
ATOM     15  C   UNL     1       7.119   5.710  16.591  0.00  0.00    +0.000 A 
ATOM     16  C   UNL     1       6.274   5.992  17.668  0.00  0.00    +0.000 A 
ENDBRANCH   8  10
ENDBRANCH   4   8
BRANCH   2  17
ATOM     17  C   UNL     1       0.621   8.237  21.305  0.00  0.00    +0.000 C 
BRANCH  17  19
ATOM     18  C   UNL     1      -0.180   9.610  23.219  0.00  0.00    +0.000 C 
ATOM     19  C   UNL     1       0.978   9.380  22.255  0.00  0.00    +0.000 C 
ENDBRANCH  17  19
ENDBRANCH   2  17
ENDBRANCH   1   7
BRANCH   1  20
ATOM     20  C   UNL     1      -0.663  10.465  19.000  0.00  0.00    +0.000 C 
BRANCH  20  21
ATOM     21  C   UNL     1      -1.395  10.325  17.671  0.00  0.00    +0.000 C 
BRANCH  21  22
ATOM     22  C   UNL     1      -2.464  11.385  17.529  0.00  0.00    +0.000 C 
BRANCH  22  23
ATOM     23  O   UNL     1      -2.560  12.101  18.763  0.00  0.00    +0.000 OA
BRANCH  23  24
ATOM     24  C   UNL     1      -3.801  12.076  19.347  0.00  0.00    +0.000 A 
ATOM     25  C   UNL     1      -4.824  11.519  18.582  0.00  0.00    +0.000 A 
ATOM     26  C   UNL     1      -6.136  11.450  19.077  0.00  0.00    +0.000 A 
ATOM     27  C   UNL     1      -6.421  11.957  20.362  0.00  0.00    +0.000 A 
ATOM     28  C   UNL     1      -7.585  12.046  21.170  0.00  0.00    +0.000 A 
ATOM     29  C   UNL     1      -7.230  12.637  22.368  0.00  0.00    +0.000 A 
ATOM     30  N   UNL     1      -5.901  12.941  22.312  0.00  0.00    +0.000 N 
ATOM     31  C   UNL     1      -5.382  12.514  21.103  0.00  0.00    +0.000 A 
ATOM     32  C   UNL     1      -4.071  12.573  20.623  0.00  0.00    +0.000 A 
BRANCH  30  33
ATOM     33  C   UNL     1      -5.061  13.599  23.309  0.00  0.00    +0.000 C 
BRANCH  33  34
ATOM     34  C   UNL     1      -4.092  12.738  24.060  0.00  0.00    +0.000 C 
ATOM     35  O   UNL     1      -2.880  12.897  24.012  0.00  0.00    +0.000 OA
BRANCH  34  36
ATOM     36  O   UNL     1      -4.660  11.827  24.882  0.00  0.00    +0.000 OA
ATOM     37  H   UNL     1      -4.436  10.897  24.674  0.00  0.00    +0.000 HD
ENDBRANCH  34  36
ENDBRANCH  33  34
ENDBRANCH  30  33
ENDBRANCH  23  24
ENDBRANCH  22  23
ENDBRANCH  21  22
ENDBRANCH  20  21
ENDBRANCH   1  20
TORSDOF 13
ENDMDL
MODEL 2
REMARK VINA RESULT:      -8.1      4.754     11.418
REMARK  Name = 
REMARK  14 active torsions:
REMARK  status: ('A' for Active; 'I' for Inactive)
REMARK    1  A    between atoms: C_1  and  C_2
REMARK    2  A    between atoms: C_2  and  C_3
REMARK    3  A    between atoms: C_3  and  C_4
REMARK    4  A    between atoms: C_6  and  C_7
REMARK    5  A    between atoms: C_7  and  C_9
REMARK    6  A    between atoms: C_18  and  O_19
REMARK    7  A    between atoms: O_19  and  C_20
REMARK    8  A    between atoms: C_20  and  C_21
REMARK    9  A    between atoms: C_21  and  C_22
REMARK   10  A    between atoms: C_22  and  O_23
REMARK   11  A    between atoms: O_23  and  C_24
REMARK   12  A    between atoms: N_30  and  C_31
REMARK   13  A    between atoms: C_31  and  C_32
REMARK   14  A    between atoms: C_32  and  O_34
REMARK                            x       y       z     vdW  Elec       q    Type
REMARK                         _______ _______ _______ _____ _____    ______ ____
ROOT
ATOM      1  O   UNL     1       1.948   7.564  20.839  0.00  0.00    +0.000 OA
ENDROOT
BRANCH   1   7
ATOM      2  C   UNL     1       1.067   9.471  19.443  0.00  0.00    +0.000 A 
ATOM      3  C   UNL     1       0.181  10.573  19.496  0.00  0.00    +0.000 A 
ATOM      4  C   UNL     1      -0.541  10.899  20.648  0.00  0.00    +0.000 A 
ATOM      5  C   UNL     1      -0.474  10.059  21.751  0.00  0.00    +0.000 A 
ATOM      6  C   UNL     1       0.377   8.954  21.712  0.00  0.00    +0.000 A 
ATOM      7  C   UNL     1       1.166   8.652  20.580  0.00  0.00    +0.000 A 
BRANCH   4   8
ATOM      8  C   UNL     1      -1.340  12.151  20.638  0.00  0.00    +0.000 C 
ATOM      9  O   UNL     1      -1.612  12.673  19.559  0.00  0.00    +0.000 OA
BRANCH   8  10
ATOM     10  C   UNL     1      -1.792  12.810  21.894  0.00  0.00    +0.000 A 
ATOM     11  C   UNL     1      -3.125  12.624  22.289  0.00  0.00    +0.000 A 
ATOM     12  C   UNL     1      -3.599  13.220  23.459  0.00  0.00    +0.000 A 
ATOM     13  C   UNL     1      -2.742  14.004  24.223  0.00  0.00    +0.000 A 
ATOM     14  F   UNL     1      -3.194  14.566  25.351  0.00  0.00    +0.000 F 
ATOM     15  C   UNL     1      -1.426  14.222  23.830  0.00  0.00    +0.000 A 
ATOM     16  C   UNL     1      -0.951  13.636  22.654  0.00  0.00    +0.000 A 
ENDBRANCH   8  10
ENDBRANCH   4   8
BRANCH   2  17
ATOM     17  C   UNL     1       1.860   9.381  18.161  0.00  0.00    +0.000 C 
BRANCH  17  19
ATOM     18  C   UNL     1       3.498   7.589  17.613  0.00  0.00    +0.000 C 
ATOM     19  C   UNL     1       2.026   7.986  17.561  0.00  0.00    +0.000 C 
ENDBRANCH  17  19
ENDBRANCH   2  17
ENDBRANCH   1   7
BRANCH   1  20
ATOM     20  C   UNL     1       1.418   6.274  21.083  0.00  0.00    +0.000 C 
BRANCH  20  21
ATOM     21  C   UNL     1       1.914   5.257  20.061  0.00  0.00    +0.000 C 
BRANCH  21  22
ATOM     22  C   UNL     1       1.842   3.853  20.618  0.00  0.00    +0.000 C 
BRANCH  22  23
ATOM     23  O   UNL     1       3.067   3.181  20.313  0.00  0.00    +0.000 OA
BRANCH  23  24
ATOM     24  C   UNL     1       3.621   3.517  19.104  0.00  0.00    +0.000 A 
ATOM     25  C   UNL     1       2.761   3.487  18.008  0.00  0.00    +0.000 A 
ATOM     26  C   UNL     1       3.223   3.805  16.721  0.00  0.00    +0.000 A 
ATOM     27  C   UNL     1       4.578   4.154  16.537  0.00  0.00    +0.000 A 
ATOM     28  C   UNL     1       5.374   4.535  15.425  0.00  0.00    +0.000 A 
ATOM     29  C   UNL     1       6.656   4.779  15.879  0.00  0.00    +0.000 A 
ATOM     30  N   UNL     1       6.683   4.532  17.221  0.00  0.00    +0.000 N 
ATOM     31  C   UNL     1       5.418   4.170  17.648  0.00  0.00    +0.000 A 
ATOM     32  C   UNL     1       4.961   3.869  18.933  0.00  0.00    +0.000 A 
BRANCH  30  33
ATOM     33  C   UNL     1       7.804   4.615  18.153  0.00  0.00    +0.000 C 
BRANCH  33  34
ATOM     34  C   UNL     1       7.890   5.841  19.009  0.00  0.00    +0.000 C 
ATOM     35  O   UNL     1       7.932   6.975  18.551  0.00  0.00    +0.000 OA
BRANCH  34  36
ATOM     36  O   UNL     1       7.818   5.611  20.339  0.00  0.00    +0.000 OA
ATOM     37  H   UNL     1       8.595   5.150  20.715  0.00  0.00    +0.000 HD
ENDBRANCH  34  36
ENDBRANCH  33  34
ENDBRANCH  30  33
ENDBRANCH  23  24
ENDBRANCH  22  23
ENDBRANCH  21  22
ENDBRANCH  20  21
ENDBRANCH   1  20
TORSDOF 13
ENDMDL
MODEL 3
REMARK VINA RESULT:      -8.1      6.740     10.659
REMARK  Name = 
REMARK  14 active torsions:
REMARK  status: ('A' for Active; 'I' for Inactive)
REMARK    1  A    between atoms: C_1  and  C_2
REMARK    2  A    between atoms: C_2  and  C_3
REMARK    3  A    between atoms: C_3  and  C_4
REMARK    4  A    between atoms: C_6  and  C_7
REMARK    5  A    between atoms: C_7  and  C_9
REMARK    6  A    between atoms: C_18  and  O_19
REMARK    7  A    between atoms: O_19  and  C_20
REMARK    8  A    between atoms: C_20  and  C_21
REMARK    9  A    between atoms: C_21  and  C_22
REMARK   10  A    between atoms: C_22  and  O_23
REMARK   11  A    between atoms: O_23  and  C_24
REMARK   12  A    between atoms: N_30  and  C_31
REMARK   13  A    between atoms: C_31  and  C_32
REMARK   14  A    between atoms: C_32  and  O_34
REMARK                            x       y       z     vdW  Elec       q    Type
REMARK                         _______ _______ _______ _____ _____    ______ ____
ROOT
ATOM      1  O   UNL     1       6.724   7.386  16.577  0.00  0.00    +0.000 OA
ENDROOT
BRANCH   1   7
ATOM      2  C   UNL     1       4.364   6.776  17.225  0.00  0.00    +0.000 A 
ATOM      3  C   UNL     1       3.513   5.660  17.407  0.00  0.00    +0.000 A 
ATOM      4  C   UNL     1       3.953   4.344  17.234  0.00  0.00    +0.000 A 
ATOM      5  C   UNL     1       5.240   4.117  16.764  0.00  0.00    +0.000 A 
ATOM      6  C   UNL     1       6.089   5.204  16.557  0.00  0.00    +0.000 A 
ATOM      7  C   UNL     1       5.680   6.535  16.797  0.00  0.00    +0.000 A 
BRANCH   4   8
ATOM      8  C   UNL     1       3.017   3.245  17.579  0.00  0.00    +0.000 C 
ATOM      9  O   UNL     1       2.621   2.500  16.685  0.00  0.00    +0.000 OA
BRANCH   8  10
ATOM     10  C   UNL     1       2.519   3.038  18.966  0.00  0.00    +0.000 A 
ATOM     11  C   UNL     1       1.155   3.251  19.212  0.00  0.00    +0.000 A 
ATOM     12  C   UNL     1       0.637   3.069  20.496  0.00  0.00    +0.000 A 
ATOM     13  C   UNL     1       1.485   2.684  21.527  0.00  0.00    +0.000 A 
ATOM     14  F   UNL     1       0.987   2.500  22.756  0.00  0.00    +0.000 F 
ATOM     15  C   UNL     1       2.845   2.497  21.306  0.00  0.00    +0.000 A 
ATOM     16  C   UNL     1       3.369   2.688  20.025  0.00  0.00    +0.000 A 
ENDBRANCH   8  10
ENDBRANCH   4   8
BRANCH   2  17
ATOM     17  C   UNL     1       3.738   8.095  17.607  0.00  0.00    +0.000 C 
BRANCH  17  19
ATOM     18  C   UNL     1       1.556   9.271  17.828  0.00  0.00    +0.000 C 
ATOM     19  C   UNL     1       2.347   8.033  18.236  0.00  0.00    +0.000 C 
ENDBRANCH  17  19
ENDBRANCH   2  17
ENDBRANCH   1   7
BRANCH   1  20
ATOM     20  C   UNL     1       7.662   7.732  17.580  0.00  0.00    +0.000 C 
BRANCH  20  21
ATOM     21  C   UNL     1       7.849   9.241  17.680  0.00  0.00    +0.000 C 
BRANCH  21  22
ATOM     22  C   UNL     1       8.872   9.589  18.738  0.00  0.00    +0.000 C 
BRANCH  22  23
ATOM     23  O   UNL     1       9.889  10.397  18.138  0.00  0.00    +0.000 OA
BRANCH  23  24
ATOM     24  C   UNL     1      10.152  11.571  18.795  0.00  0.00    +0.000 A 
ATOM     25  C   UNL     1      11.476  11.771  19.182  0.00  0.00    +0.000 A 
ATOM     26  C   UNL     1      11.857  12.934  19.870  0.00  0.00    +0.000 A 
ATOM     27  C   UNL     1      10.884  13.909  20.177  0.00  0.00    +0.000 A 
ATOM     28  C   UNL     1      10.898  15.171  20.826  0.00  0.00    +0.000 A 
ATOM     29  C   UNL     1       9.614  15.679  20.805  0.00  0.00    +0.000 A 
ATOM     30  N   UNL     1       8.807  14.761  20.196  0.00  0.00    +0.000 N 
ATOM     31  C   UNL     1       9.567  13.682  19.785  0.00  0.00    +0.000 A 
ATOM     32  C   UNL     1       9.184  12.533  19.087  0.00  0.00    +0.000 A 
BRANCH  30  33
ATOM     33  C   UNL     1       7.368  14.812  19.956  0.00  0.00    +0.000 C 
BRANCH  33  34
ATOM     34  C   UNL     1       6.918  15.277  18.605  0.00  0.00    +0.000 C 
ATOM     35  O   UNL     1       6.022  14.732  17.974  0.00  0.00    +0.000 OA
BRANCH  34  36
ATOM     36  O   UNL     1       7.507  16.414  18.170  0.00  0.00    +0.000 OA
ATOM     37  H   UNL     1       6.898  17.050  17.743  0.00  0.00    +0.000 HD
ENDBRANCH  34  36
ENDBRANCH  33  34
ENDBRANCH  30  33
ENDBRANCH  23  24
ENDBRANCH  22  23
ENDBRANCH  21  22
ENDBRANCH  20  21
ENDBRANCH   1  20
TORSDOF 13
ENDMDL
MODEL 4
REMARK VINA RESULT:      -8.0      7.048     11.114
REMARK  Name = 
REMARK  14 active torsions:
REMARK  status: ('A' for Active; 'I' for Inactive)
REMARK    1  A    between atoms: C_1  and  C_2
REMARK    2  A    between atoms: C_2  and  C_3
REMARK    3  A    between atoms: C_3  and  C_4
REMARK    4  A    between atoms: C_6  and  C_7
REMARK    5  A    between atoms: C_7  and  C_9
REMARK    6  A    between atoms: C_18  and  O_19
REMARK    7  A    between atoms: O_19  and  C_20
REMARK    8  A    between atoms: C_20  and  C_21
REMARK    9  A    between atoms: C_21  and  C_22
REMARK   10  A    between atoms: C_22  and  O_23
REMARK   11  A    between atoms: O_23  and  C_24
REMARK   12  A    between atoms: N_30  and  C_31
REMARK   13  A    between atoms: C_31  and  C_32
REMARK   14  A    between atoms: C_32  and  O_34
REMARK                            x       y       z     vdW  Elec       q    Type
REMARK                         _______ _______ _______ _____ _____    ______ ____
ROOT
ATOM      1  O   UNL     1       6.721   7.938  16.889  0.00  0.00    +0.000 OA
ENDROOT
BRANCH   1   7
ATOM      2  C   UNL     1       4.472   6.842  17.208  0.00  0.00    +0.000 A 
ATOM      3  C   UNL     1       3.869   5.580  17.416  0.00  0.00    +0.000 A 
ATOM      4  C   UNL     1       4.614   4.403  17.533  0.00  0.00    +0.000 A 
ATOM      5  C   UNL     1       5.988   4.448  17.336  0.00  0.00    +0.000 A 
ATOM      6  C   UNL     1       6.601   5.680  17.108  0.00  0.00    +0.000 A 
ATOM      7  C   UNL     1       5.868   6.887  17.058  0.00  0.00    +0.000 A 
BRANCH   4   8
ATOM      8  C   UNL     1       3.892   3.153  17.882  0.00  0.00    +0.000 C 
ATOM      9  O   UNL     1       3.978   2.187  17.126  0.00  0.00    +0.000 OA
BRANCH   8  10
ATOM     10  C   UNL     1       3.044   3.044  19.100  0.00  0.00    +0.000 A 
ATOM     11  C   UNL     1       3.649   2.598  20.284  0.00  0.00    +0.000 A 
ATOM     12  C   UNL     1       2.898   2.479  21.454  0.00  0.00    +0.000 A 
ATOM     13  C   UNL     1       1.545   2.798  21.434  0.00  0.00    +0.000 A 
ATOM     14  F   UNL     1       0.827   2.694  22.559  0.00  0.00    +0.000 F 
ATOM     15  C   UNL     1       0.923   3.213  20.262  0.00  0.00    +0.000 A 
ATOM     16  C   UNL     1       1.670   3.323  19.086  0.00  0.00    +0.000 A 
ENDBRANCH   8  10
ENDBRANCH   4   8
BRANCH   2  17
ATOM     17  C   UNL     1       3.506   8.002  17.260  0.00  0.00    +0.000 C 
BRANCH  17  19
ATOM     18  C   UNL     1       1.312   9.003  17.872  0.00  0.00    +0.000 C 
ATOM     19  C   UNL     1       2.147   7.727  17.902  0.00  0.00    +0.000 C 
ENDBRANCH  17  19
ENDBRANCH   2  17
ENDBRANCH   1   7
BRANCH   1  20
ATOM     20  C   UNL     1       8.073   7.911  17.312  0.00  0.00    +0.000 C 
BRANCH  20  21
ATOM     21  C   UNL     1       8.334   8.914  18.429  0.00  0.00    +0.000 C 
BRANCH  21  22
ATOM     22  C   UNL     1       8.718  10.264  17.865  0.00  0.00    +0.000 C 
BRANCH  22  23
ATOM     23  O   UNL     1       9.970  10.654  18.436  0.00  0.00    +0.000 OA
BRANCH  23  24
ATOM     24  C   UNL     1       9.929  11.808  19.176  0.00  0.00    +0.000 A 
ATOM     25  C   UNL     1      10.048  11.653  20.556  0.00  0.00    +0.000 A 
ATOM     26  C   UNL     1      10.010  12.766  21.411  0.00  0.00    +0.000 A 
ATOM     27  C   UNL     1       9.842  14.056  20.864  0.00  0.00    +0.000 A 
ATOM     28  C   UNL     1       9.771  15.370  21.397  0.00  0.00    +0.000 A 
ATOM     29  C   UNL     1       9.619  16.252  20.344  0.00  0.00    +0.000 A 
ATOM     30  N   UNL     1       9.562  15.525  19.190  0.00  0.00    +0.000 N 
ATOM     31  C   UNL     1       9.719  14.183  19.483  0.00  0.00    +0.000 A 
ATOM     32  C   UNL     1       9.771  13.081  18.625  0.00  0.00    +0.000 A 
BRANCH  30  33
ATOM     33  C   UNL     1       9.380  15.986  17.817  0.00  0.00    +0.000 C 
BRANCH  33  34
ATOM     34  C   UNL     1      10.613  16.365  17.055  0.00  0.00    +0.000 C 
ATOM     35  O   UNL     1      11.375  17.251  17.414  0.00  0.00    +0.000 OA
BRANCH  34  36
ATOM     36  O   UNL     1      10.881  15.583  15.984  0.00  0.00    +0.000 OA
ATOM     37  H   UNL     1      11.483  14.834  16.169  0.00  0.00    +0.000 HD
ENDBRANCH  34  36
ENDBRANCH  33  34
ENDBRANCH  30  33
ENDBRANCH  23  24
ENDBRANCH  22  23
ENDBRANCH  21  22
ENDBRANCH  20  21
ENDBRANCH   1  20
TORSDOF 13
ENDMDL
MODEL 5
REMARK VINA RESULT:      -8.0      8.211     10.469
REMARK  Name = 
REMARK  14 active torsions:
REMARK  status: ('A' for Active; 'I' for Inactive)
REMARK    1  A    between atoms: C_1  and  C_2
REMARK    2  A    between atoms: C_2  and  C_3
REMARK    3  A    between atoms: C_3  and  C_4
REMARK    4  A    between atoms: C_6  and  C_7
REMARK    5  A    between atoms: C_7  and  C_9
REMARK    6  A    between atoms: C_18  and  O_19
REMARK    7  A    between atoms: O_19  and  C_20
REMARK    8  A    between atoms: C_20  and  C_21
REMARK    9  A    between atoms: C_21  and  C_22
REMARK   10  A    between atoms: C_22  and  O_23
REMARK   11  A    between atoms: O_23  and  C_24
REMARK   12  A    between atoms: N_30  and  C_31
REMARK   13  A    between atoms: C_31  and  C_32
REMARK   14  A    between atoms: C_32  and  O_34
REMARK                            x       y       z     vdW  Elec       q    Type
REMARK                         _______ _______ _______ _____ _____    ______ ____
ROOT
ATOM      1  O   UNL     1       7.535   6.947  16.748  0.00  0.00    +0.000 OA
ENDROOT
BRANCH   1   7
ATOM      2  C   UNL     1       6.266   4.905  15.984  0.00  0.00    +0.000 A 
ATOM      3  C   UNL     1       5.136   4.115  16.298  0.00  0.00    +0.000 A 
ATOM      4  C   UNL     1       4.280   4.421  17.361  0.00  0.00    +0.000 A 
ATOM      5  C   UNL     1       4.599   5.474  18.208  0.00  0.00    +0.000 A 
ATOM      6  C   UNL     1       5.722   6.252  17.929  0.00  0.00    +0.000 A 
ATOM      7  C   UNL     1       6.557   5.998  16.817  0.00  0.00    +0.000 A 
BRANCH   4   8
ATOM      8  C   UNL     1       3.050   3.604  17.521  0.00  0.00    +0.000 C 
ATOM      9  O   UNL     1       2.484   3.179  16.516  0.00  0.00    +0.000 OA
BRANCH   8  10
ATOM     10  C   UNL     1       2.464   3.311  18.857  0.00  0.00    +0.000 A 
ATOM     11  C   UNL     1       3.303   2.756  19.834  0.00  0.00    +0.000 A 
ATOM     12  C   UNL     1       2.803   2.464  21.104  0.00  0.00    +0.000 A 
ATOM     13  C   UNL     1       1.467   2.719  21.389  0.00  0.00    +0.000 A 
ATOM     14  F   UNL     1       0.990   2.448  22.611  0.00  0.00    +0.000 F 
ATOM     15  C   UNL     1       0.614   3.243  20.423  0.00  0.00    +0.000 A 
ATOM     16  C   UNL     1       1.109   3.527  19.148  0.00  0.00    +0.000 A 
ENDBRANCH   8  10
ENDBRANCH   4   8
BRANCH   2  17
ATOM     17  C   UNL     1       6.971   4.494  14.714  0.00  0.00    +0.000 C 
BRANCH  17  19
ATOM     18  C   UNL     1       6.179   3.342  12.654  0.00  0.00    +0.000 C 
ATOM     19  C   UNL     1       6.186   4.665  13.414  0.00  0.00    +0.000 C 
ENDBRANCH  17  19
ENDBRANCH   2  17
ENDBRANCH   1   7
BRANCH   1  20
ATOM     20  C   UNL     1       8.038   7.622  17.887  0.00  0.00    +0.000 C 
BRANCH  20  21
ATOM     21  C   UNL     1       8.039   9.133  17.693  0.00  0.00    +0.000 C 
BRANCH  21  22
ATOM     22  C   UNL     1       8.975   9.803  18.673  0.00  0.00    +0.000 C 
BRANCH  22  23
ATOM     23  O   UNL     1       9.551  10.949  18.040  0.00  0.00    +0.000 OA
BRANCH  23  24
ATOM     24  C   UNL     1       8.974  12.145  18.383  0.00  0.00    +0.000 A 
ATOM     25  C   UNL     1       8.170  12.736  17.410  0.00  0.00    +0.000 A 
ATOM     26  C   UNL     1       7.537  13.966  17.650  0.00  0.00    +0.000 A 
ATOM     27  C   UNL     1       7.723  14.612  18.891  0.00  0.00    +0.000 A 
ATOM     28  C   UNL     1       7.250  15.816  19.476  0.00  0.00    +0.000 A 
ATOM     29  C   UNL     1       7.771  15.906  20.753  0.00  0.00    +0.000 A 
ATOM     30  N   UNL     1       8.569  14.818  20.961  0.00  0.00    +0.000 N 
ATOM     31  C   UNL     1       8.536  14.004  19.843  0.00  0.00    +0.000 A 
ATOM     32  C   UNL     1       9.158  12.773  19.617  0.00  0.00    +0.000 A 
BRANCH  30  33
ATOM     33  C   UNL     1       9.364  14.466  22.134  0.00  0.00    +0.000 C 
BRANCH  33  34
ATOM     34  C   UNL     1       8.658  13.756  23.248  0.00  0.00    +0.000 C 
ATOM     35  O   UNL     1       7.929  14.327  24.049  0.00  0.00    +0.000 OA
BRANCH  34  36
ATOM     36  O   UNL     1       8.804  12.412  23.248  0.00  0.00    +0.000 OA
ATOM     37  H   UNL     1       9.578  12.088  22.745  0.00  0.00    +0.000 HD
ENDBRANCH  34  36
ENDBRANCH  33  34
ENDBRANCH  30  33
ENDBRANCH  23  24
ENDBRANCH  22  23
ENDBRANCH  21  22
ENDBRANCH  20  21
ENDBRANCH   1  20
TORSDOF 13
ENDMDL
MODEL 6
REMARK VINA RESULT:      -8.0      6.909     10.450
REMARK  Name = 
REMARK  14 active torsions:
REMARK  status: ('A' for Active; 'I' for Inactive)
REMARK    1  A    between atoms: C_1  and  C_2
REMARK    2  A    between atoms: C_2  and  C_3
REMARK    3  A    between atoms: C_3  and  C_4
REMARK    4  A    between atoms: C_6  and  C_7
REMARK    5  A    between atoms: C_7  and  C_9
REMARK    6  A    between atoms: C_18  and  O_19
REMARK    7  A    between atoms: O_19  and  C_20
REMARK    8  A    between atoms: C_20  and  C_21
REMARK    9  A    between atoms: C_21  and  C_22
REMARK   10  A    between atoms: C_22  and  O_23
REMARK   11  A    between atoms: O_23  and  C_24
REMARK   12  A    between atoms: N_30  and  C_31
REMARK   13  A    between atoms: C_31  and  C_32
REMARK   14  A    between atoms: C_32  and  O_34
REMARK                            x       y       z     vdW  Elec       q    Type
REMARK                         _______ _______ _______ _____ _____    ______ ____
ROOT
ATOM      1  O   UNL     1       7.050   7.313  16.798  0.00  0.00    +0.000 OA
ENDROOT
BRANCH   1   7
ATOM      2  C   UNL     1       4.708   6.495  17.251  0.00  0.00    +0.000 A 
ATOM      3  C   UNL     1       3.963   5.309  17.454  0.00  0.00    +0.000 A 
ATOM      4  C   UNL     1       4.556   4.043  17.462  0.00  0.00    +0.000 A 
ATOM      5  C   UNL     1       5.906   3.924  17.158  0.00  0.00    +0.000 A 
ATOM      6  C   UNL     1       6.654   5.080  16.932  0.00  0.00    +0.000 A 
ATOM      7  C   UNL     1       6.083   6.370  16.991  0.00  0.00    +0.000 A 
BRANCH   4   8
ATOM      8  C   UNL     1       3.706   2.878  17.816  0.00  0.00    +0.000 C 
ATOM      9  O   UNL     1       3.652   1.925  17.040  0.00  0.00    +0.000 OA
BRANCH   8  10
ATOM     10  C   UNL     1       2.894   2.841  19.062  0.00  0.00    +0.000 A 
ATOM     11  C   UNL     1       3.534   2.463  20.252  0.00  0.00    +0.000 A 
ATOM     12  C   UNL     1       2.817   2.414  21.449  0.00  0.00    +0.000 A 
ATOM     13  C   UNL     1       1.465   2.733  21.450  0.00  0.00    +0.000 A 
ATOM     14  F   UNL     1       0.780   2.696  22.600  0.00  0.00    +0.000 F 
ATOM     15  C   UNL     1       0.808   3.082  20.274  0.00  0.00    +0.000 A 
ATOM     16  C   UNL     1       1.520   3.123  19.073  0.00  0.00    +0.000 A 
ENDBRANCH   8  10
ENDBRANCH   4   8
BRANCH   2  17
ATOM     17  C   UNL     1       3.907   7.762  17.429  0.00  0.00    +0.000 C 
BRANCH  17  19
ATOM     18  C   UNL     1       1.734   8.861  17.938  0.00  0.00    +0.000 C 
ATOM     19  C   UNL     1       2.602   7.638  18.214  0.00  0.00    +0.000 C 
ENDBRANCH  17  19
ENDBRANCH   2  17
ENDBRANCH   1   7
BRANCH   1  20
ATOM     20  C   UNL     1       7.831   7.846  17.853  0.00  0.00    +0.000 C 
BRANCH  20  21
ATOM     21  C   UNL     1       7.918   9.365  17.779  0.00  0.00    +0.000 C 
BRANCH  21  22
ATOM     22  C   UNL     1       9.053   9.883  18.634  0.00  0.00    +0.000 C 
BRANCH  22  23
ATOM     23  O   UNL     1       9.488  11.137  18.100  0.00  0.00    +0.000 OA
BRANCH  23  24
ATOM     24  C   UNL     1       9.546  12.160  19.011  0.00  0.00    +0.000 A 
ATOM     25  C   UNL     1      10.443  11.989  20.064  0.00  0.00    +0.000 A 
ATOM     26  C   UNL     1      10.579  12.970  21.060  0.00  0.00    +0.000 A 
ATOM     27  C   UNL     1       9.791  14.139  20.994  0.00  0.00    +0.000 A 
ATOM     28  C   UNL     1       9.668  15.311  21.785  0.00  0.00    +0.000 A 
ATOM     29  C   UNL     1       8.726  16.131  21.194  0.00  0.00    +0.000 A 
ATOM     30  N   UNL     1       8.245  15.491  20.088  0.00  0.00    +0.000 N 
ATOM     31  C   UNL     1       8.898  14.282  19.935  0.00  0.00    +0.000 A 
ATOM     32  C   UNL     1       8.769  13.317  18.933  0.00  0.00    +0.000 A 
BRANCH  30  33
ATOM     33  C   UNL     1       7.218  15.924  19.145  0.00  0.00    +0.000 C 
BRANCH  33  34
ATOM     34  C   UNL     1       7.075  17.398  18.919  0.00  0.00    +0.000 C 
ATOM     35  O   UNL     1       7.849  18.047  18.228  0.00  0.00    +0.000 OA
BRANCH  34  36
ATOM     36  O   UNL     1       5.963  17.949  19.456  0.00  0.00    +0.000 OA
ATOM     37  H   UNL     1       5.243  17.313  19.640  0.00  0.00    +0.000 HD
ENDBRANCH  34  36
ENDBRANCH  33  34
ENDBRANCH  30  33
ENDBRANCH  23  24
ENDBRANCH  22  23
ENDBRANCH  21  22
ENDBRANCH  20  21
ENDBRANCH   1  20
TORSDOF 13
ENDMDL
MODEL 7
REMARK VINA RESULT:      -7.9      5.152     10.642
REMARK  Name = 
REMARK  14 active torsions:
REMARK  status: ('A' for Active; 'I' for Inactive)
REMARK    1  A    between atoms: C_1  and  C_2
REMARK    2  A    between atoms: C_2  and  C_3
REMARK    3  A    between atoms: C_3  and  C_4
REMARK    4  A    between atoms: C_6  and  C_7
REMARK    5  A    between atoms: C_7  and  C_9
REMARK    6  A    between atoms: C_18  and  O_19
REMARK    7  A    between atoms: O_19  and  C_20
REMARK    8  A    between atoms: C_20  and  C_21
REMARK    9  A    between atoms: C_21  and  C_22
REMARK   10  A    between atoms: C_22  and  O_23
REMARK   11  A    between atoms: O_23  and  C_24
REMARK   12  A    between atoms: N_30  and  C_31
REMARK   13  A    between atoms: C_31  and  C_32
REMARK   14  A    between atoms: C_32  and  O_34
REMARK                            x       y       z     vdW  Elec       q    Type
REMARK                         _______ _______ _______ _____ _____    ______ ____
ROOT
ATOM      1  O   UNL     1       1.840   6.313  20.610  0.00  0.00    +0.000 OA
ENDROOT
BRANCH   1   7
ATOM      2  C   UNL     1       1.707   8.402  19.202  0.00  0.00    +0.000 A 
ATOM      3  C   UNL     1       1.334   9.765  19.266  0.00  0.00    +0.000 A 
ATOM      4  C   UNL     1       0.867  10.361  20.442  0.00  0.00    +0.000 A 
ATOM      5  C   UNL     1       0.660   9.571  21.566  0.00  0.00    +0.000 A 
ATOM      6  C   UNL     1       1.001   8.220  21.517  0.00  0.00    +0.000 A 
ATOM      7  C   UNL     1       1.540   7.620  20.357  0.00  0.00    +0.000 A 
BRANCH   4   8
ATOM      8  C   UNL     1       0.630  11.827  20.434  0.00  0.00    +0.000 C 
ATOM      9  O   UNL     1      -0.434  12.258  20.873  0.00  0.00    +0.000 OA
BRANCH   8  10
ATOM     10  C   UNL     1       1.625  12.785  19.881  0.00  0.00    +0.000 A 
ATOM     11  C   UNL     1       2.464  13.455  20.784  0.00  0.00    +0.000 A 
ATOM     12  C   UNL     1       3.415  14.363  20.317  0.00  0.00    +0.000 A 
ATOM     13  C   UNL     1       3.518  14.605  18.953  0.00  0.00    +0.000 A 
ATOM     14  F   UNL     1       4.437  15.468  18.504  0.00  0.00    +0.000 F 
ATOM     15  C   UNL     1       2.675  13.971  18.046  0.00  0.00    +0.000 A 
ATOM     16  C   UNL     1       1.715  13.069  18.511  0.00  0.00    +0.000 A 
ENDBRANCH   8  10
ENDBRANCH   4   8
BRANCH   2  17
ATOM     17  C   UNL     1       2.325   7.994  17.887  0.00  0.00    +0.000 C 
BRANCH  17  19
ATOM     18  C   UNL     1       4.491   7.404  16.815  0.00  0.00    +0.000 C 
ATOM     19  C   UNL     1       3.543   7.075  17.963  0.00  0.00    +0.000 C 
ENDBRANCH  17  19
ENDBRANCH   2  17
ENDBRANCH   1   7
BRANCH   1  20
ATOM     20  C   UNL     1       1.006   5.239  20.215  0.00  0.00    +0.000 C 
BRANCH  20  21
ATOM     21  C   UNL     1       1.354   3.953  20.956  0.00  0.00    +0.000 C 
BRANCH  21  22
ATOM     22  C   UNL     1       2.851   3.809  21.114  0.00  0.00    +0.000 C 
BRANCH  22  23
ATOM     23  O   UNL     1       3.296   2.742  20.272  0.00  0.00    +0.000 OA
BRANCH  23  24
ATOM     24  C   UNL     1       3.803   3.139  19.062  0.00  0.00    +0.000 A 
ATOM     25  C   UNL     1       2.934   3.051  17.977  0.00  0.00    +0.000 A 
ATOM     26  C   UNL     1       3.351   3.422  16.688  0.00  0.00    +0.000 A 
ATOM     27  C   UNL     1       4.669   3.885  16.492  0.00  0.00    +0.000 A 
ATOM     28  C   UNL     1       5.415   4.345  15.375  0.00  0.00    +0.000 A 
ATOM     29  C   UNL     1       6.678   4.690  15.816  0.00  0.00    +0.000 A 
ATOM     30  N   UNL     1       6.744   4.430  17.155  0.00  0.00    +0.000 N 
ATOM     31  C   UNL     1       5.520   3.958  17.592  0.00  0.00    +0.000 A 
ATOM     32  C   UNL     1       5.107   3.604  18.879  0.00  0.00    +0.000 A 
BRANCH  30  33
ATOM     33  C   UNL     1       7.866   4.595  18.074  0.00  0.00    +0.000 C 
BRANCH  33  34
ATOM     34  C   UNL     1       7.900   5.849  18.892  0.00  0.00    +0.000 C 
ATOM     35  O   UNL     1       7.873   6.969  18.401  0.00  0.00    +0.000 OA
BRANCH  34  36
ATOM     36  O   UNL     1       7.860   5.656  20.230  0.00  0.00    +0.000 OA
ATOM     37  H   UNL     1       7.654   4.738  20.502  0.00  0.00    +0.000 HD
ENDBRANCH  34  36
ENDBRANCH  33  34
ENDBRANCH  30  33
ENDBRANCH  23  24
ENDBRANCH  22  23
ENDBRANCH  21  22
ENDBRANCH  20  21
ENDBRANCH   1  20
TORSDOF 13
ENDMDL
MODEL 8
REMARK VINA RESULT:      -7.7      5.136     10.558
REMARK  Name = 
REMARK  14 active torsions:
REMARK  status: ('A' for Active; 'I' for Inactive)
REMARK    1  A    between atoms: C_1  and  C_2
REMARK    2  A    between atoms: C_2  and  C_3
REMARK    3  A    between atoms: C_3  and  C_4
REMARK    4  A    between atoms: C_6  and  C_7
REMARK    5  A    between atoms: C_7  and  C_9
REMARK    6  A    between atoms: C_18  and  O_19
REMARK    7  A    between atoms: O_19  and  C_20
REMARK    8  A    between atoms: C_20  and  C_21
REMARK    9  A    between atoms: C_21  and  C_22
REMARK   10  A    between atoms: C_22  and  O_23
REMARK   11  A    between atoms: O_23  and  C_24
REMARK   12  A    between atoms: N_30  and  C_31
REMARK   13  A    between atoms: C_31  and  C_32
REMARK   14  A    between atoms: C_32  and  O_34
REMARK                            x       y       z     vdW  Elec       q    Type
REMARK                         _______ _______ _______ _____ _____    ______ ____
ROOT
ATOM      1  O   UNL     1       2.176   5.471  19.875  0.00  0.00    +0.000 OA
ENDROOT
BRANCH   1   7
ATOM      2  C   UNL     1       1.435   7.816  20.436  0.00  0.00    +0.000 A 
ATOM      3  C   UNL     1       1.429   9.135  19.923  0.00  0.00    +0.000 A 
ATOM      4  C   UNL     1       1.956   9.452  18.667  0.00  0.00    +0.000 A 
ATOM      5  C   UNL     1       2.603   8.466  17.934  0.00  0.00    +0.000 A 
ATOM      6  C   UNL     1       2.640   7.164  18.433  0.00  0.00    +0.000 A 
ATOM      7  C   UNL     1       2.050   6.814  19.667  0.00  0.00    +0.000 A 
BRANCH   4   8
ATOM      8  C   UNL     1       1.779  10.840  18.168  0.00  0.00    +0.000 C 
ATOM      9  O   UNL     1       2.541  11.260  17.299  0.00  0.00    +0.000 OA
BRANCH   8  10
ATOM     10  C   UNL     1       0.732  11.747  18.710  0.00  0.00    +0.000 A 
ATOM     11  C   UNL     1       1.132  13.004  19.184  0.00  0.00    +0.000 A 
ATOM     12  C   UNL     1       0.189  13.893  19.702  0.00  0.00    +0.000 A 
ATOM     13  C   UNL     1      -1.149  13.517  19.752  0.00  0.00    +0.000 A 
ATOM     14  F   UNL     1      -2.056  14.374  20.239  0.00  0.00    +0.000 F 
ATOM     15  C   UNL     1      -1.559  12.263  19.313  0.00  0.00    +0.000 A 
ATOM     16  C   UNL     1      -0.616  11.367  18.804  0.00  0.00    +0.000 A 
ENDBRANCH   8  10
ENDBRANCH   4   8
BRANCH   2  17
ATOM     17  C   UNL     1       0.686   7.660  21.738  0.00  0.00    +0.000 C 
BRANCH  17  19
ATOM     18  C   UNL     1      -0.095   9.515  23.201  0.00  0.00    +0.000 C 
ATOM     19  C   UNL     1      -0.448   8.651  21.994  0.00  0.00    +0.000 C 
ENDBRANCH  17  19
ENDBRANCH   2  17
ENDBRANCH   1   7
BRANCH   1  20
ATOM     20  C   UNL     1       1.118   4.663  20.359  0.00  0.00    +0.000 C 
BRANCH  20  21
ATOM     21  C   UNL     1       1.637   3.482  21.171  0.00  0.00    +0.000 C 
BRANCH  21  22
ATOM     22  C   UNL     1       3.065   3.155  20.796  0.00  0.00    +0.000 C 
BRANCH  22  23
ATOM     23  O   UNL     1       3.056   2.436  19.559  0.00  0.00    +0.000 OA
BRANCH  23  24
ATOM     24  C   UNL     1       3.664   3.084  18.514  0.00  0.00    +0.000 A 
ATOM     25  C   UNL     1       2.890   3.256  17.369  0.00  0.00    +0.000 A 
ATOM     26  C   UNL     1       3.414   3.898  16.235  0.00  0.00    +0.000 A 
ATOM     27  C   UNL     1       4.744   4.368  16.257  0.00  0.00    +0.000 A 
ATOM     28  C   UNL     1       5.582   5.052  15.338  0.00  0.00    +0.000 A 
ATOM     29  C   UNL     1       6.803   5.267  15.947  0.00  0.00    +0.000 A 
ATOM     30  N   UNL     1       6.756   4.713  17.194  0.00  0.00    +0.000 N 
ATOM     31  C   UNL     1       5.499   4.178  17.412  0.00  0.00    +0.000 A 
ATOM     32  C   UNL     1       4.979   3.553  18.549  0.00  0.00    +0.000 A 
BRANCH  30  33
ATOM     33  C   UNL     1       7.796   4.648  18.216  0.00  0.00    +0.000 C 
BRANCH  33  34
ATOM     34  C   UNL     1       7.960   5.845  19.101  0.00  0.00    +0.000 C 
ATOM     35  O   UNL     1       8.129   6.978  18.669  0.00  0.00    +0.000 OA
BRANCH  34  36
ATOM     36  O   UNL     1       7.807   5.601  20.422  0.00  0.00    +0.000 OA
ATOM     37  H   UNL     1       6.912   5.793  20.769  0.00  0.00    +0.000 HD
ENDBRANCH  34  36
ENDBRANCH  33  34
ENDBRANCH  30  33
ENDBRANCH  23  24
ENDBRANCH  22  23
ENDBRANCH  21  22
ENDBRANCH  20  21
ENDBRANCH   1  20
TORSDOF 13
ENDMDL
MODEL 9
REMARK VINA RESULT:      -7.7      1.836      2.749
REMARK  Name = 
REMARK  14 active torsions:
REMARK  status: ('A' for Active; 'I' for Inactive)
REMARK    1  A    between atoms: C_1  and  C_2
REMARK    2  A    between atoms: C_2  and  C_3
REMARK    3  A    between atoms: C_3  and  C_4
REMARK    4  A    between atoms: C_6  and  C_7
REMARK    5  A    between atoms: C_7  and  C_9
REMARK    6  A    between atoms: C_18  and  O_19
REMARK    7  A    between atoms: O_19  and  C_20
REMARK    8  A    between atoms: C_20  and  C_21
REMARK    9  A    between atoms: C_21  and  C_22
REMARK   10  A    between atoms: C_22  and  O_23
REMARK   11  A    between atoms: O_23  and  C_24
REMARK   12  A    between atoms: N_30  and  C_31
REMARK   13  A    between atoms: C_31  and  C_32
REMARK   14  A    between atoms: C_32  and  O_34
REMARK                            x       y       z     vdW  Elec       q    Type
REMARK                         _______ _______ _______ _____ _____    ______ ____
ROOT
ATOM      1  O   UNL     1       1.478   8.389  19.351  0.00  0.00    +0.000 OA
ENDROOT
BRANCH   1   7
ATOM      2  C   UNL     1       2.436   6.063  19.526  0.00  0.00    +0.000 A 
ATOM      3  C   UNL     1       3.443   5.230  18.983  0.00  0.00    +0.000 A 
ATOM      4  C   UNL     1       4.339   5.676  18.007  0.00  0.00    +0.000 A 
ATOM      5  C   UNL     1       4.178   6.946  17.468  0.00  0.00    +0.000 A 
ATOM      6  C   UNL     1       3.177   7.775  17.974  0.00  0.00    +0.000 A 
ATOM      7  C   UNL     1       2.310   7.363  19.009  0.00  0.00    +0.000 A 
BRANCH   4   8
ATOM      8  C   UNL     1       5.439   4.764  17.603  0.00  0.00    +0.000 C 
ATOM      9  O   UNL     1       6.032   4.128  18.472  0.00  0.00    +0.000 OA
BRANCH   8  10
ATOM     10  C   UNL     1       5.867   4.621  16.185  0.00  0.00    +0.000 A 
ATOM     11  C   UNL     1       7.125   5.125  15.825  0.00  0.00    +0.000 A 
ATOM     12  C   UNL     1       7.574   5.015  14.508  0.00  0.00    +0.000 A 
ATOM     13  C   UNL     1       6.761   4.412  13.556  0.00  0.00    +0.000 A 
ATOM     14  F   UNL     1       7.195   4.298  12.295  0.00  0.00    +0.000 F 
ATOM     15  C   UNL     1       5.498   3.934  13.890  0.00  0.00    +0.000 A 
ATOM     16  C   UNL     1       5.042   4.051  15.205  0.00  0.00    +0.000 A 
ENDBRANCH   8  10
ENDBRANCH   4   8
BRANCH   2  17
ATOM     17  C   UNL     1       1.673   5.440  20.670  0.00  0.00    +0.000 C 
BRANCH  17  19
ATOM     18  C   UNL     1       1.241   3.014  21.010  0.00  0.00    +0.000 C 
ATOM     19  C   UNL     1       2.241   4.141  21.240  0.00  0.00    +0.000 C 
ENDBRANCH  17  19
ENDBRANCH   2  17
ENDBRANCH   1   7
BRANCH   1  20
ATOM     20  C   UNL     1       1.136   9.435  18.459  0.00  0.00    +0.000 C 
BRANCH  20  21
ATOM     21  C   UNL     1      -0.131  10.160  18.898  0.00  0.00    +0.000 C 
BRANCH  21  22
ATOM     22  C   UNL     1      -1.180  10.122  17.810  0.00  0.00    +0.000 C 
BRANCH  22  23
ATOM     23  O   UNL     1      -1.671  11.450  17.606  0.00  0.00    +0.000 OA
BRANCH  23  24
ATOM     24  C   UNL     1      -2.599  11.867  18.525  0.00  0.00    +0.000 A 
ATOM     25  C   UNL     1      -3.916  11.484  18.279  0.00  0.00    +0.000 A 
ATOM     26  C   UNL     1      -4.950  11.863  19.151  0.00  0.00    +0.000 A 
ATOM     27  C   UNL     1      -4.649  12.646  20.285  0.00  0.00    +0.000 A 
ATOM     28  C   UNL     1      -5.404  13.189  21.358  0.00  0.00    +0.000 A 
ATOM     29  C   UNL     1      -4.535  13.861  22.196  0.00  0.00    +0.000 A 
ATOM     30  N   UNL     1      -3.282  13.778  21.661  0.00  0.00    +0.000 N 
ATOM     31  C   UNL     1      -3.326  13.020  20.505  0.00  0.00    +0.000 A 
ATOM     32  C   UNL     1      -2.290  12.634  19.650  0.00  0.00    +0.000 A 
BRANCH  30  33
ATOM     33  C   UNL     1      -2.029  14.346  22.149  0.00  0.00    +0.000 C 
BRANCH  33  34
ATOM     34  C   UNL     1      -1.398  13.686  23.337  0.00  0.00    +0.000 C 
ATOM     35  O   UNL     1      -0.827  14.309  24.222  0.00  0.00    +0.000 OA
BRANCH  34  36
ATOM     36  O   UNL     1      -1.591  12.350  23.414  0.00  0.00    +0.000 OA
ATOM     37  H   UNL     1      -2.463  12.086  23.773  0.00  0.00    +0.000 HD
ENDBRANCH  34  36
ENDBRANCH  33  34
ENDBRANCH  30  33
ENDBRANCH  23  24
ENDBRANCH  22  23
ENDBRANCH  21  22
ENDBRANCH  20  21
ENDBRANCH   1  20
TORSDOF 13
ENDMDL
