MODEL 1
REMARK VINA RESULT:      -7.7      0.000      0.000
REMARK  Name = 
REMARK  3 active torsions:
REMARK  status: ('A' for Active; 'I' for Inactive)
REMARK    1  A    between atoms: C_1  and  C_2
REMARK    2  A    between atoms: C_5  and  C_6
REMARK    3  A    between atoms: C_13  and  C_14
REMARK                            x       y       z     vdW  Elec       q    Type
REMARK                         _______ _______ _______ _____ _____    ______ ____
ROOT
ATOM      1  C   UNL     1       3.529   6.314  18.240  0.00  0.00    +0.000 C 
ATOM      2  C   UNL     1       2.439   5.373  18.742  0.00  0.00    +0.000 C 
ATOM      3  C   UNL     1       2.149   5.910  20.107  0.00  0.00    +0.000 C 
ATOM      4  O   UNL     1       2.073   5.215  21.107  0.00  0.00    +0.000 OA
ATOM      5  C   UNL     1       1.846   7.345  20.116  0.00  0.00    +0.000 A 
ATOM      6  C   UNL     1       1.129   7.877  21.185  0.00  0.00    +0.000 A 
ATOM      7  C   UNL     1       0.498   9.100  21.018  0.00  0.00    +0.000 A 
ATOM      8  C   UNL     1       0.599   9.780  19.793  0.00  0.00    +0.000 A 
ATOM      9  C   UNL     1      -0.355  10.910  19.527  0.00  0.00    +0.000 C 
ATOM     10  C   UNL     1       1.457   9.294  18.781  0.00  0.00    +0.000 A 
ATOM     11  C   UNL     1       2.103   8.069  18.944  0.00  0.00    +0.000 A 
ATOM     12  O   UNL     1       2.884   7.577  17.903  0.00  0.00    +0.000 OA
ENDROOT
BRANCH   1  17
ATOM     13  C   UNL     1       6.617   3.988  13.836  0.00  0.00    +0.000 C 
ATOM     14  C   UNL     1       5.825   4.542  14.984  0.00  0.00    +0.000 A 
ATOM     15  C   UNL     1       5.236   3.713  15.951  0.00  0.00    +0.000 A 
ATOM     16  C   UNL     1       4.496   4.253  17.018  0.00  0.00    +0.000 A 
ATOM     17  C   UNL     1       4.332   5.635  17.135  0.00  0.00    +0.000 A 
ATOM     18  C   UNL     1       4.902   6.451  16.134  0.00  0.00    +0.000 A 
ATOM     19  C   UNL     1       5.651   5.920  15.087  0.00  0.00    +0.000 A 
ENDBRANCH   1  17
TORSDOF 1
ENDMDL
MODEL 2
REMARK VINA RESULT:      -7.6      0.249      1.128
REMARK  Name = 
REMARK  3 active torsions:
REMARK  status: ('A' for Active; 'I' for Inactive)
REMARK    1  A    between atoms: C_1  and  C_2
REMARK    2  A    between atoms: C_5  and  C_6
REMARK    3  A    between atoms: C_13  and  C_14
REMARK                            x       y       z     vdW  Elec       q    Type
REMARK                         _______ _______ _______ _____ _____    ______ ____
ROOT
ATOM      1  C   UNL     1       3.411   6.515  18.282  0.00  0.00    +0.000 C 
ATOM      2  C   UNL     1       2.348   5.540  18.775  0.00  0.00    +0.000 C 
ATOM      3  C   UNL     1       2.086   6.021  20.167  0.00  0.00    +0.000 C 
ATOM      4  O   UNL     1       2.046   5.288  21.141  0.00  0.00    +0.000 OA
ATOM      5  C   UNL     1       1.763   7.449  20.237  0.00  0.00    +0.000 A 
ATOM      6  C   UNL     1       1.066   7.930  21.343  0.00  0.00    +0.000 A 
ATOM      7  C   UNL     1       0.414   9.149  21.239  0.00  0.00    +0.000 A 
ATOM      8  C   UNL     1       0.473   9.875  20.038  0.00  0.00    +0.000 A 
ATOM      9  C   UNL     1      -0.503  11.000  19.839  0.00  0.00    +0.000 C 
ATOM     10  C   UNL     1       1.311   9.441  18.987  0.00  0.00    +0.000 A 
ATOM     11  C   UNL     1       1.979   8.221  19.087  0.00  0.00    +0.000 A 
ATOM     12  O   UNL     1       2.740   7.779  18.008  0.00  0.00    +0.000 OA
ENDROOT
BRANCH   1  17
ATOM     13  C   UNL     1       6.389   3.823  14.013  0.00  0.00    +0.000 C 
ATOM     14  C   UNL     1       5.634   4.553  15.084  0.00  0.00    +0.000 A 
ATOM     15  C   UNL     1       5.624   5.954  15.166  0.00  0.00    +0.000 A 
ATOM     16  C   UNL     1       4.911   6.618  16.180  0.00  0.00    +0.000 A 
ATOM     17  C   UNL     1       4.194   5.890  17.132  0.00  0.00    +0.000 A 
ATOM     18  C   UNL     1       4.243   4.480  17.054  0.00  0.00    +0.000 A 
ATOM     19  C   UNL     1       4.933   3.821  16.040  0.00  0.00    +0.000 A 
ENDBRANCH   1  17
TORSDOF 1
ENDMDL
MODEL 3
REMARK VINA RESULT:      -7.4      1.163      6.719
REMARK  Name = 
REMARK  3 active torsions:
REMARK  status: ('A' for Active; 'I' for Inactive)
REMARK    1  A    between atoms: C_1  and  C_2
REMARK    2  A    between atoms: C_5  and  C_6
REMARK    3  A    between atoms: C_13  and  C_14
REMARK                            x       y       z     vdW  Elec       q    Type
REMARK                         _______ _______ _______ _____ _____    ______ ____
ROOT
ATOM      1  C   UNL     1       2.883   6.671  18.204  0.00  0.00    +0.000 C 
ATOM      2  C   UNL     1       3.638   5.855  19.248  0.00  0.00    +0.000 C 
ATOM      3  C   UNL     1       3.788   4.527  18.577  0.00  0.00    +0.000 C 
ATOM      4  O   UNL     1       3.533   3.463  19.116  0.00  0.00    +0.000 OA
ATOM      5  C   UNL     1       4.385   4.615  17.241  0.00  0.00    +0.000 A 
ATOM      6  C   UNL     1       4.997   3.487  16.699  0.00  0.00    +0.000 A 
ATOM      7  C   UNL     1       5.895   3.654  15.657  0.00  0.00    +0.000 A 
ATOM      8  C   UNL     1       6.164   4.941  15.162  0.00  0.00    +0.000 A 
ATOM      9  C   UNL     1       7.370   5.129  14.286  0.00  0.00    +0.000 C 
ATOM     10  C   UNL     1       5.416   6.048  15.623  0.00  0.00    +0.000 A 
ATOM     11  C   UNL     1       4.503   5.887  16.665  0.00  0.00    +0.000 A 
ATOM     12  O   UNL     1       3.833   7.006  17.152  0.00  0.00    +0.000 OA
ENDROOT
BRANCH   1  17
ATOM     13  C   UNL     1       0.067  10.951  21.048  0.00  0.00    +0.000 C 
ATOM     14  C   UNL     1       0.792   9.884  20.284  0.00  0.00    +0.000 A 
ATOM     15  C   UNL     1       1.082  10.013  18.917  0.00  0.00    +0.000 A 
ATOM     16  C   UNL     1       1.762   8.999  18.219  0.00  0.00    +0.000 A 
ATOM     17  C   UNL     1       2.163   7.836  18.877  0.00  0.00    +0.000 A 
ATOM     18  C   UNL     1       1.833   7.707  20.244  0.00  0.00    +0.000 A 
ATOM     19  C   UNL     1       1.177   8.718  20.942  0.00  0.00    +0.000 A 
ENDBRANCH   1  17
TORSDOF 1
ENDMDL
MODEL 4
REMARK VINA RESULT:      -7.4      1.102      6.611
REMARK  Name = 
REMARK  3 active torsions:
REMARK  status: ('A' for Active; 'I' for Inactive)
REMARK    1  A    between atoms: C_1  and  C_2
REMARK    2  A    between atoms: C_5  and  C_6
REMARK    3  A    between atoms: C_13  and  C_14
REMARK                            x       y       z     vdW  Elec       q    Type
REMARK                         _______ _______ _______ _____ _____    ______ ____
ROOT
ATOM      1  C   UNL     1       2.732   6.659  18.427  0.00  0.00    +0.000 C 
ATOM      2  C   UNL     1       3.489   5.816  19.447  0.00  0.00    +0.000 C 
ATOM      3  C   UNL     1       3.628   4.503  18.745  0.00  0.00    +0.000 C 
ATOM      4  O   UNL     1       3.371   3.428  19.261  0.00  0.00    +0.000 OA
ATOM      5  C   UNL     1       4.216   4.618  17.407  0.00  0.00    +0.000 A 
ATOM      6  C   UNL     1       4.819   3.500  16.836  0.00  0.00    +0.000 A 
ATOM      7  C   UNL     1       5.711   3.686  15.791  0.00  0.00    +0.000 A 
ATOM      8  C   UNL     1       5.983   4.983  15.325  0.00  0.00    +0.000 A 
ATOM      9  C   UNL     1       7.184   5.184  14.445  0.00  0.00    +0.000 C 
ATOM     10  C   UNL     1       5.244   6.083  15.816  0.00  0.00    +0.000 A 
ATOM     11  C   UNL     1       4.337   5.903  16.860  0.00  0.00    +0.000 A 
ATOM     12  O   UNL     1       3.677   7.013  17.377  0.00  0.00    +0.000 OA
ENDROOT
BRANCH   1  17
ATOM     13  C   UNL     1       0.076  11.273  20.877  0.00  0.00    +0.000 C 
ATOM     14  C   UNL     1       0.747  10.067  20.288  0.00  0.00    +0.000 A 
ATOM     15  C   UNL     1       1.032   8.925  21.053  0.00  0.00    +0.000 A 
ATOM     16  C   UNL     1       1.663   7.807  20.481  0.00  0.00    +0.000 A 
ATOM     17  C   UNL     1       2.023   7.812  19.132  0.00  0.00    +0.000 A 
ATOM     18  C   UNL     1       1.760   8.982  18.387  0.00  0.00    +0.000 A 
ATOM     19  C   UNL     1       1.118  10.084  18.946  0.00  0.00    +0.000 A 
ENDBRANCH   1  17
TORSDOF 1
ENDMDL
MODEL 5
REMARK VINA RESULT:      -7.3      2.656      4.879
REMARK  Name = 
REMARK  3 active torsions:
REMARK  status: ('A' for Active; 'I' for Inactive)
REMARK    1  A    between atoms: C_1  and  C_2
REMARK    2  A    between atoms: C_5  and  C_6
REMARK    3  A    between atoms: C_13  and  C_14
REMARK                            x       y       z     vdW  Elec       q    Type
REMARK                         _______ _______ _______ _____ _____    ______ ____
ROOT
ATOM      1  C   UNL     1       0.872   9.498  20.500  0.00  0.00    +0.000 C 
ATOM      2  C   UNL     1       0.169   8.744  21.624  0.00  0.00    +0.000 C 
ATOM      3  C   UNL     1      -0.043   9.812  22.649  0.00  0.00    +0.000 C 
ATOM      4  O   UNL     1       0.227   9.680  23.831  0.00  0.00    +0.000 OA
ATOM      5  C   UNL     1      -0.719  11.000  22.119  0.00  0.00    +0.000 A 
ATOM      6  C   UNL     1      -1.382  11.849  23.003  0.00  0.00    +0.000 A 
ATOM      7  C   UNL     1      -2.339  12.716  22.499  0.00  0.00    +0.000 A 
ATOM      8  C   UNL     1      -2.617  12.730  21.122  0.00  0.00    +0.000 A 
ATOM      9  C   UNL     1      -3.871  13.414  20.657  0.00  0.00    +0.000 C 
ATOM     10  C   UNL     1      -1.824  11.972  20.231  0.00  0.00    +0.000 A 
ATOM     11  C   UNL     1      -0.852  11.105  20.728  0.00  0.00    +0.000 A 
ATOM     12  O   UNL     1      -0.136  10.314  19.835  0.00  0.00    +0.000 OA
ENDROOT
BRANCH   1  17
ATOM     13  C   UNL     1       3.912   5.554  17.410  0.00  0.00    +0.000 C 
ATOM     14  C   UNL     1       3.129   6.589  18.162  0.00  0.00    +0.000 A 
ATOM     15  C   UNL     1       2.811   7.836  17.602  0.00  0.00    +0.000 A 
ATOM     16  C   UNL     1       2.078   8.793  18.326  0.00  0.00    +0.000 A 
ATOM     17  C   UNL     1       1.650   8.518  19.626  0.00  0.00    +0.000 A 
ATOM     18  C   UNL     1       2.009   7.273  20.187  0.00  0.00    +0.000 A 
ATOM     19  C   UNL     1       2.718   6.316  19.465  0.00  0.00    +0.000 A 
ENDBRANCH   1  17
TORSDOF 1
ENDMDL
MODEL 6
REMARK VINA RESULT:      -7.2      3.386      7.297
REMARK  Name = 
REMARK  3 active torsions:
REMARK  status: ('A' for Active; 'I' for Inactive)
REMARK    1  A    between atoms: C_1  and  C_2
REMARK    2  A    between atoms: C_5  and  C_6
REMARK    3  A    between atoms: C_13  and  C_14
REMARK                            x       y       z     vdW  Elec       q    Type
REMARK                         _______ _______ _______ _____ _____    ______ ____
ROOT
ATOM      1  C   UNL     1       4.982   4.422  17.715  0.00  0.00    +0.000 C 
ATOM      2  C   UNL     1       4.843   5.891  17.333  0.00  0.00    +0.000 C 
ATOM      3  C   UNL     1       6.152   6.181  16.671  0.00  0.00    +0.000 C 
ATOM      4  O   UNL     1       6.840   7.156  16.927  0.00  0.00    +0.000 OA
ATOM      5  C   UNL     1       6.479   5.242  15.594  0.00  0.00    +0.000 A 
ATOM      6  C   UNL     1       7.389   5.630  14.613  0.00  0.00    +0.000 A 
ATOM      7  C   UNL     1       7.399   4.946  13.408  0.00  0.00    +0.000 A 
ATOM      8  C   UNL     1       6.508   3.880  13.200  0.00  0.00    +0.000 A 
ATOM      9  C   UNL     1       6.303   3.389  11.795  0.00  0.00    +0.000 C 
ATOM     10  C   UNL     1       5.706   3.408  14.263  0.00  0.00    +0.000 A 
ATOM     11  C   UNL     1       5.698   4.084  15.482  0.00  0.00    +0.000 A 
ATOM     12  O   UNL     1       4.843   3.645  16.489  0.00  0.00    +0.000 OA
ENDROOT
BRANCH   1  17
ATOM     13  C   UNL     1       1.285   2.836  21.975  0.00  0.00    +0.000 C 
ATOM     14  C   UNL     1       2.230   3.286  20.901  0.00  0.00    +0.000 A 
ATOM     15  C   UNL     1       2.503   4.642  20.668  0.00  0.00    +0.000 A 
ATOM     16  C   UNL     1       3.391   5.042  19.654  0.00  0.00    +0.000 A 
ATOM     17  C   UNL     1       4.023   4.088  18.853  0.00  0.00    +0.000 A 
ATOM     18  C   UNL     1       3.711   2.730  19.079  0.00  0.00    +0.000 A 
ATOM     19  C   UNL     1       2.846   2.331  20.095  0.00  0.00    +0.000 A 
ENDBRANCH   1  17
TORSDOF 1
ENDMDL
MODEL 7
REMARK VINA RESULT:      -7.2      1.173      6.611
REMARK  Name = 
REMARK  3 active torsions:
REMARK  status: ('A' for Active; 'I' for Inactive)
REMARK    1  A    between atoms: C_1  and  C_2
REMARK    2  A    between atoms: C_5  and  C_6
REMARK    3  A    between atoms: C_13  and  C_14
REMARK                            x       y       z     vdW  Elec       q    Type
REMARK                         _______ _______ _______ _____ _____    ______ ____
ROOT
ATOM      1  C   UNL     1       2.199   7.629  18.448  0.00  0.00    +0.000 C 
ATOM      2  C   UNL     1       2.473   6.644  19.579  0.00  0.00    +0.000 C 
ATOM      3  C   UNL     1       2.447   5.325  18.875  0.00  0.00    +0.000 C 
ATOM      4  O   UNL     1       1.825   4.355  19.276  0.00  0.00    +0.000 OA
ATOM      5  C   UNL     1       3.337   5.269  17.711  0.00  0.00    +0.000 A 
ATOM      6  C   UNL     1       3.765   4.027  17.248  0.00  0.00    +0.000 A 
ATOM      7  C   UNL     1       4.891   3.970  16.442  0.00  0.00    +0.000 A 
ATOM      8  C   UNL     1       5.570   5.152  16.101  0.00  0.00    +0.000 A 
ATOM      9  C   UNL     1       6.953   5.037  15.527  0.00  0.00    +0.000 C 
ATOM     10  C   UNL     1       5.028   6.408  16.455  0.00  0.00    +0.000 A 
ATOM     11  C   UNL     1       3.889   6.475  17.258  0.00  0.00    +0.000 A 
ATOM     12  O   UNL     1       3.417   7.722  17.655  0.00  0.00    +0.000 OA
ENDROOT
BRANCH   1  17
ATOM     13  C   UNL     1       0.236  12.795  20.399  0.00  0.00    +0.000 C 
ATOM     14  C   UNL     1       0.718  11.452  19.936  0.00  0.00    +0.000 A 
ATOM     15  C   UNL     1       0.604  10.303  20.734  0.00  0.00    +0.000 A 
ATOM     16  C   UNL     1       1.065   9.054  20.281  0.00  0.00    +0.000 A 
ATOM     17  C   UNL     1       1.648   8.933  19.019  0.00  0.00    +0.000 A 
ATOM     18  C   UNL     1       1.786  10.105  18.243  0.00  0.00    +0.000 A 
ATOM     19  C   UNL     1       1.313  11.339  18.682  0.00  0.00    +0.000 A 
ENDBRANCH   1  17
TORSDOF 1
ENDMDL
MODEL 8
REMARK VINA RESULT:      -7.0      2.079      7.315
REMARK  Name = 
REMARK  3 active torsions:
REMARK  status: ('A' for Active; 'I' for Inactive)
REMARK    1  A    between atoms: C_1  and  C_2
REMARK    2  A    between atoms: C_5  and  C_6
REMARK    3  A    between atoms: C_13  and  C_14
REMARK                            x       y       z     vdW  Elec       q    Type
REMARK                         _______ _______ _______ _____ _____    ______ ____
ROOT
ATOM      1  C   UNL     1       1.856   7.851  20.164  0.00  0.00    +0.000 C 
ATOM      2  C   UNL     1       1.820   8.022  18.649  0.00  0.00    +0.000 C 
ATOM      3  C   UNL     1       3.035   7.269  18.208  0.00  0.00    +0.000 C 
ATOM      4  O   UNL     1       3.856   7.710  17.420  0.00  0.00    +0.000 OA
ATOM      5  C   UNL     1       3.088   5.898  18.723  0.00  0.00    +0.000 A 
ATOM      6  C   UNL     1       3.873   4.957  18.058  0.00  0.00    +0.000 A 
ATOM      7  C   UNL     1       3.622   3.611  18.274  0.00  0.00    +0.000 A 
ATOM      8  C   UNL     1       2.599   3.221  19.154  0.00  0.00    +0.000 A 
ATOM      9  C   UNL     1       2.128   1.795  19.108  0.00  0.00    +0.000 C 
ATOM     10  C   UNL     1       1.924   4.190  19.930  0.00  0.00    +0.000 A 
ATOM     11  C   UNL     1       2.178   5.546  19.728  0.00  0.00    +0.000 A 
ATOM     12  O   UNL     1       1.446   6.483  20.451  0.00  0.00    +0.000 OA
ENDROOT
BRANCH   1  17
ATOM     13  C   UNL     1      -1.269  11.931  22.979  0.00  0.00    +0.000 C 
ATOM     14  C   UNL     1      -0.466  10.916  22.222  0.00  0.00    +0.000 A 
ATOM     15  C   UNL     1      -0.168  11.066  20.859  0.00  0.00    +0.000 A 
ATOM     16  C   UNL     1       0.585  10.101  20.168  0.00  0.00    +0.000 A 
ATOM     17  C   UNL     1       1.054   8.964  20.830  0.00  0.00    +0.000 A 
ATOM     18  C   UNL     1       0.716   8.812  22.192  0.00  0.00    +0.000 A 
ATOM     19  C   UNL     1      -0.014   9.776  22.884  0.00  0.00    +0.000 A 
ENDBRANCH   1  17
TORSDOF 1
ENDMDL
MODEL 9
REMARK VINA RESULT:      -7.0      1.918      3.138
REMARK  Name = 
REMARK  3 active torsions:
REMARK  status: ('A' for Active; 'I' for Inactive)
REMARK    1  A    between atoms: C_1  and  C_2
REMARK    2  A    between atoms: C_5  and  C_6
REMARK    3  A    between atoms: C_13  and  C_14
REMARK                            x       y       z     vdW  Elec       q    Type
REMARK                         _______ _______ _______ _____ _____    ______ ____
ROOT
ATOM      1  C   UNL     1       4.717   4.425  17.046  0.00  0.00    +0.000 C 
ATOM      2  C   UNL     1       3.547   3.455  16.919  0.00  0.00    +0.000 C 
ATOM      3  C   UNL     1       3.265   3.097  18.343  0.00  0.00    +0.000 C 
ATOM      4  O   UNL     1       3.113   1.952  18.737  0.00  0.00    +0.000 OA
ATOM      5  C   UNL     1       3.072   4.265  19.208  0.00  0.00    +0.000 A 
ATOM      6  C   UNL     1       2.370   4.111  20.402  0.00  0.00    +0.000 A 
ATOM      7  C   UNL     1       1.837   5.237  21.010  0.00  0.00    +0.000 A 
ATOM      8  C   UNL     1       2.018   6.501  20.424  0.00  0.00    +0.000 A 
ATOM      9  C   UNL     1       1.159   7.636  20.904  0.00  0.00    +0.000 C 
ATOM     10  C   UNL     1       2.862   6.648  19.300  0.00  0.00    +0.000 A 
ATOM     11  C   UNL     1       3.411   5.521  18.689  0.00  0.00    +0.000 A 
ATOM     12  O   UNL     1       4.177   5.685  17.539  0.00  0.00    +0.000 OA
ENDROOT
BRANCH   1  17
ATOM     13  C   UNL     1       7.493   4.396  11.885  0.00  0.00    +0.000 C 
ATOM     14  C   UNL     1       6.814   4.434  13.222  0.00  0.00    +0.000 A 
ATOM     15  C   UNL     1       7.396   5.057  14.336  0.00  0.00    +0.000 A 
ATOM     16  C   UNL     1       6.743   5.079  15.581  0.00  0.00    +0.000 A 
ATOM     17  C   UNL     1       5.493   4.475  15.733  0.00  0.00    +0.000 A 
ATOM     18  C   UNL     1       4.938   3.823  14.611  0.00  0.00    +0.000 A 
ATOM     19  C   UNL     1       5.574   3.817  13.372  0.00  0.00    +0.000 A 
ENDBRANCH   1  17
TORSDOF 1
ENDMDL
