MODEL 1
REMARK VINA RESULT:      -8.5      0.000      0.000
REMARK  Name = 
REMARK  4 active torsions:
REMARK  status: ('A' for Active; 'I' for Inactive)
REMARK    1  A    between atoms: N_4  and  C_5
REMARK    2  A    between atoms: C_9  and  C_10
REMARK    3  A    between atoms: C_10  and  C_11
REMARK    4  A    between atoms: C_11  and  C_12
REMARK                            x       y       z     vdW  Elec       q    Type
REMARK                         _______ _______ _______ _____ _____    ______ ____
ROOT
ATOM      1  C   UNL     1      10.457  12.345  18.480  0.00  0.00    +0.000 A 
ATOM      2  C   UNL     1      10.592  12.367  19.884  0.00  0.00    +0.000 A 
ATOM      3  C   UNL     1       9.967  11.398  20.670  0.00  0.00    +0.000 A 
ATOM      4  C   UNL     1       9.208  10.393  20.074  0.00  0.00    +0.000 A 
ATOM      5  C   UNL     1       9.054  10.360  18.680  0.00  0.00    +0.000 A 
ATOM      6  C   UNL     1       9.672  11.342  17.895  0.00  0.00    +0.000 A 
ENDROOT
BRANCH   1  10
ATOM      7  N   UNL     1       9.356  14.924  17.644  0.00  0.00    +0.000 NA
ATOM      8  C   UNL     1      10.484  14.525  17.174  0.00  0.00    +0.000 C 
ATOM      9  N   UNL     1      11.193  15.346  16.260  0.00  0.00    +0.000 N 
ATOM     10  N   UNL     1      11.077  13.305  17.623  0.00  0.00    +0.000 N 
ATOM     11  H   UNL     1       8.936  15.821  17.360  0.00  0.00    +0.000 HD
ATOM     12  H   UNL     1      10.810  16.253  15.960  0.00  0.00    +0.000 HD
ATOM     13  H   UNL     1      12.106  15.047  15.888  0.00  0.00    +0.000 HD
ATOM     14  H   UNL     1      12.074  13.166  17.390  0.00  0.00    +0.000 HD
ENDBRANCH   1  10
BRANCH   5  15
ATOM     15  C   UNL     1       8.249   9.270  18.028  0.00  0.00    +0.000 C 
BRANCH  15  16
ATOM     16  C   UNL     1       8.655   7.881  18.550  0.00  0.00    +0.000 C 
BRANCH  16  17
ATOM     17  C   UNL     1       7.554   6.855  18.415  0.00  0.00    +0.000 A 
ATOM     18  C   UNL     1       6.613   6.898  17.376  0.00  0.00    +0.000 A 
ATOM     19  N   UNL     1       5.637   5.964  17.308  0.00  0.00    +0.000 NA
ATOM     20  C   UNL     1       5.545   4.959  18.214  0.00  0.00    +0.000 A 
ATOM     21  N   UNL     1       4.473   4.019  18.131  0.00  0.00    +0.000 N 
ATOM     22  C   UNL     1       3.435   4.133  17.121  0.00  0.00    +0.000 C 
ATOM     23  C   UNL     1       2.105   4.314  17.857  0.00  0.00    +0.000 C 
ATOM     24  O   UNL     1       1.883   3.235  18.755  0.00  0.00    +0.000 OA
ATOM     25  C   UNL     1       2.895   3.214  19.753  0.00  0.00    +0.000 C 
ATOM     26  C   UNL     1       4.273   2.980  19.121  0.00  0.00    +0.000 C 
ATOM     27  N   UNL     1       6.461   4.884  19.219  0.00  0.00    +0.000 NA
ATOM     28  C   UNL     1       7.453   5.805  19.338  0.00  0.00    +0.000 A 
ENDBRANCH  16  17
ENDBRANCH  15  16
ENDBRANCH   5  15
TORSDOF 4
ENDMDL
MODEL 2
REMARK VINA RESULT:      -8.3      0.886      1.131
REMARK  Name = 
REMARK  4 active torsions:
REMARK  status: ('A' for Active; 'I' for Inactive)
REMARK    1  A    between atoms: N_4  and  C_5
REMARK    2  A    between atoms: C_9  and  C_10
REMARK    3  A    between atoms: C_10  and  C_11
REMARK    4  A    between atoms: C_11  and  C_12
REMARK                            x       y       z     vdW  Elec       q    Type
REMARK                         _______ _______ _______ _____ _____    ______ ____
ROOT
ATOM      1  C   UNL     1       9.595  12.197  18.390  0.00  0.00    +0.000 A 
ATOM      2  C   UNL     1       9.579  12.626  19.734  0.00  0.00    +0.000 A 
ATOM      3  C   UNL     1       9.319  11.720  20.763  0.00  0.00    +0.000 A 
ATOM      4  C   UNL     1       9.078  10.378  20.474  0.00  0.00    +0.000 A 
ATOM      5  C   UNL     1       9.080   9.934  19.143  0.00  0.00    +0.000 A 
ATOM      6  C   UNL     1       9.329  10.849  18.112  0.00  0.00    +0.000 A 
ENDROOT
BRANCH   1  10
ATOM      7  N   UNL     1      12.179  12.657  17.095  0.00  0.00    +0.000 NA
ATOM      8  C   UNL     1      11.148  13.333  16.730  0.00  0.00    +0.000 C 
ATOM      9  N   UNL     1      11.270  14.292  15.691  0.00  0.00    +0.000 N 
ATOM     10  N   UNL     1       9.862  13.074  17.296  0.00  0.00    +0.000 N 
ATOM     11  H   UNL     1      13.104  12.803  16.667  0.00  0.00    +0.000 HD
ATOM     12  H   UNL     1      12.176  14.460  15.234  0.00  0.00    +0.000 HD
ATOM     13  H   UNL     1      10.449  14.829  15.378  0.00  0.00    +0.000 HD
ATOM     14  H   UNL     1       9.051  13.478  16.798  0.00  0.00    +0.000 HD
ENDBRANCH   1  10
BRANCH   5  15
ATOM     15  C   UNL     1       8.837   8.485  18.823  0.00  0.00    +0.000 C 
BRANCH  15  16
ATOM     16  C   UNL     1       7.885   8.326  17.624  0.00  0.00    +0.000 C 
BRANCH  16  17
ATOM     17  C   UNL     1       6.960   7.139  17.760  0.00  0.00    +0.000 A 
ATOM     18  C   UNL     1       5.817   6.986  16.963  0.00  0.00    +0.000 A 
ATOM     19  N   UNL     1       5.012   5.911  17.133  0.00  0.00    +0.000 NA
ATOM     20  C   UNL     1       5.286   4.952  18.051  0.00  0.00    +0.000 A 
ATOM     21  N   UNL     1       4.387   3.857  18.229  0.00  0.00    +0.000 N 
ATOM     22  C   UNL     1       3.146   3.760  17.480  0.00  0.00    +0.000 C 
ATOM     23  C   UNL     1       2.001   3.773  18.499  0.00  0.00    +0.000 C 
ATOM     24  O   UNL     1       2.161   2.720  19.439  0.00  0.00    +0.000 OA
ATOM     25  C   UNL     1       3.360   2.904  20.180  0.00  0.00    +0.000 C 
ATOM     26  C   UNL     1       4.581   2.851  19.254  0.00  0.00    +0.000 C 
ATOM     27  N   UNL     1       6.403   5.068  18.822  0.00  0.00    +0.000 NA
ATOM     28  C   UNL     1       7.236   6.134  18.697  0.00  0.00    +0.000 A 
ENDBRANCH  16  17
ENDBRANCH  15  16
ENDBRANCH   5  15
TORSDOF 4
ENDMDL
MODEL 3
REMARK VINA RESULT:      -7.9      1.112      1.830
REMARK  Name = 
REMARK  4 active torsions:
REMARK  status: ('A' for Active; 'I' for Inactive)
REMARK    1  A    between atoms: N_4  and  C_5
REMARK    2  A    between atoms: C_9  and  C_10
REMARK    3  A    between atoms: C_10  and  C_11
REMARK    4  A    between atoms: C_11  and  C_12
REMARK                            x       y       z     vdW  Elec       q    Type
REMARK                         _______ _______ _______ _____ _____    ______ ____
ROOT
ATOM      1  C   UNL     1       9.403  12.458  18.272  0.00  0.00    +0.000 A 
ATOM      2  C   UNL     1      10.042  12.212  19.505  0.00  0.00    +0.000 A 
ATOM      3  C   UNL     1       9.967  10.953  20.102  0.00  0.00    +0.000 A 
ATOM      4  C   UNL     1       9.266   9.922  19.480  0.00  0.00    +0.000 A 
ATOM      5  C   UNL     1       8.616  10.149  18.258  0.00  0.00    +0.000 A 
ATOM      6  C   UNL     1       8.682  11.419  17.668  0.00  0.00    +0.000 A 
ENDROOT
BRANCH   1  10
ATOM      7  N   UNL     1       8.269  14.982  19.225  0.00  0.00    +0.000 NA
ATOM      8  C   UNL     1       8.822  14.924  18.065  0.00  0.00    +0.000 C 
ATOM      9  N   UNL     1       8.889  16.090  17.261  0.00  0.00    +0.000 N 
ATOM     10  N   UNL     1       9.448  13.723  17.610  0.00  0.00    +0.000 N 
ATOM     11  H   UNL     1       7.850  15.852  19.584  0.00  0.00    +0.000 HD
ATOM     12  H   UNL     1       8.489  16.980  17.590  0.00  0.00    +0.000 HD
ATOM     13  H   UNL     1       9.344  16.063  16.337  0.00  0.00    +0.000 HD
ATOM     14  H   UNL     1      10.070  13.812  16.789  0.00  0.00    +0.000 HD
ENDBRANCH   1  10
BRANCH   5  15
ATOM     15  C   UNL     1       7.870   9.038  17.573  0.00  0.00    +0.000 C 
BRANCH  15  16
ATOM     16  C   UNL     1       8.301   7.660  18.105  0.00  0.00    +0.000 C 
BRANCH  16  17
ATOM     17  C   UNL     1       7.136   6.724  18.330  0.00  0.00    +0.000 A 
ATOM     18  C   UNL     1       7.207   5.640  19.216  0.00  0.00    +0.000 A 
ATOM     19  N   UNL     1       6.140   4.822  19.371  0.00  0.00    +0.000 NA
ATOM     20  C   UNL     1       4.979   5.027  18.702  0.00  0.00    +0.000 A 
ATOM     21  N   UNL     1       3.892   4.115  18.861  0.00  0.00    +0.000 N 
ATOM     22  C   UNL     1       4.008   2.929  19.693  0.00  0.00    +0.000 C 
ATOM     23  C   UNL     1       3.793   1.715  18.784  0.00  0.00    +0.000 C 
ATOM     24  O   UNL     1       2.539   1.805  18.123  0.00  0.00    +0.000 OA
ATOM     25  C   UNL     1       2.511   2.949  17.280  0.00  0.00    +0.000 C 
ATOM     26  C   UNL     1       2.662   4.233  18.105  0.00  0.00    +0.000 C 
ATOM     27  N   UNL     1       4.879   6.087  17.852  0.00  0.00    +0.000 NA
ATOM     28  C   UNL     1       5.927   6.930  17.652  0.00  0.00    +0.000 A 
ENDBRANCH  16  17
ENDBRANCH  15  16
ENDBRANCH   5  15
TORSDOF 4
ENDMDL
MODEL 4
REMARK VINA RESULT:      -7.8      5.976      8.449
REMARK  Name = 
REMARK  4 active torsions:
REMARK  status: ('A' for Active; 'I' for Inactive)
REMARK    1  A    between atoms: N_4  and  C_5
REMARK    2  A    between atoms: C_9  and  C_10
REMARK    3  A    between atoms: C_10  and  C_11
REMARK    4  A    between atoms: C_11  and  C_12
REMARK                            x       y       z     vdW  Elec       q    Type
REMARK                         _______ _______ _______ _____ _____    ______ ____
ROOT
ATOM      1  C   UNL     1       6.294   4.344  16.745  0.00  0.00    +0.000 A 
ATOM      2  C   UNL     1       7.532   4.640  17.351  0.00  0.00    +0.000 A 
ATOM      3  C   UNL     1       7.578   5.249  18.606  0.00  0.00    +0.000 A 
ATOM      4  C   UNL     1       6.398   5.564  19.277  0.00  0.00    +0.000 A 
ATOM      5  C   UNL     1       5.157   5.287  18.686  0.00  0.00    +0.000 A 
ATOM      6  C   UNL     1       5.115   4.688  17.420  0.00  0.00    +0.000 A 
ENDROOT
BRANCH   1  10
ATOM      7  N   UNL     1       7.383   5.319  14.209  0.00  0.00    +0.000 NA
ATOM      8  C   UNL     1       6.663   4.254  14.232  0.00  0.00    +0.000 C 
ATOM      9  N   UNL     1       6.412   3.552  13.025  0.00  0.00    +0.000 N 
ATOM     10  N   UNL     1       6.183   3.718  15.466  0.00  0.00    +0.000 N 
ATOM     11  H   UNL     1       7.771   5.695  13.332  0.00  0.00    +0.000 HD
ATOM     12  H   UNL     1       6.790   3.891  12.130  0.00  0.00    +0.000 HD
ATOM     13  H   UNL     1       5.851   2.688  13.030  0.00  0.00    +0.000 HD
ATOM     14  H   UNL     1       5.821   2.750  15.437  0.00  0.00    +0.000 HD
ENDBRANCH   1  10
BRANCH   5  15
ATOM     15  C   UNL     1       3.879   5.611  19.410  0.00  0.00    +0.000 C 
BRANCH  15  16
ATOM     16  C   UNL     1       2.789   6.095  18.437  0.00  0.00    +0.000 C 
BRANCH  16  17
ATOM     17  C   UNL     1       2.238   7.454  18.799  0.00  0.00    +0.000 A 
ATOM     18  C   UNL     1       1.813   7.770  20.098  0.00  0.00    +0.000 A 
ATOM     19  N   UNL     1       1.314   8.998  20.367  0.00  0.00    +0.000 NA
ATOM     20  C   UNL     1       1.223   9.958  19.414  0.00  0.00    +0.000 A 
ATOM     21  N   UNL     1       0.649  11.226  19.729  0.00  0.00    +0.000 N 
ATOM     22  C   UNL     1       0.106  11.510  21.047  0.00  0.00    +0.000 C 
ATOM     23  C   UNL     1      -1.382  11.824  20.865  0.00  0.00    +0.000 C 
ATOM     24  O   UNL     1      -1.555  12.900  19.954  0.00  0.00    +0.000 OA
ATOM     25  C   UNL     1      -1.061  12.539  18.671  0.00  0.00    +0.000 C 
ATOM     26  C   UNL     1       0.445  12.257  18.732  0.00  0.00    +0.000 C 
ATOM     27  N   UNL     1       1.650   9.682  18.150  0.00  0.00    +0.000 NA
ATOM     28  C   UNL     1       2.148   8.460  17.826  0.00  0.00    +0.000 A 
ENDBRANCH  16  17
ENDBRANCH  15  16
ENDBRANCH   5  15
TORSDOF 4
ENDMDL
MODEL 5
REMARK VINA RESULT:      -7.7      1.056      1.894
REMARK  Name = 
REMARK  4 active torsions:
REMARK  status: ('A' for Active; 'I' for Inactive)
REMARK    1  A    between atoms: N_4  and  C_5
REMARK    2  A    between atoms: C_9  and  C_10
REMARK    3  A    between atoms: C_10  and  C_11
REMARK    4  A    between atoms: C_11  and  C_12
REMARK                            x       y       z     vdW  Elec       q    Type
REMARK                         _______ _______ _______ _____ _____    ______ ____
ROOT
ATOM      1  C   UNL     1       9.546  12.106  18.347  0.00  0.00    +0.000 A 
ATOM      2  C   UNL     1       9.503  12.491  19.704  0.00  0.00    +0.000 A 
ATOM      3  C   UNL     1       9.236  11.549  20.698  0.00  0.00    +0.000 A 
ATOM      4  C   UNL     1       9.016  10.214  20.360  0.00  0.00    +0.000 A 
ATOM      5  C   UNL     1       9.045   9.814  19.017  0.00  0.00    +0.000 A 
ATOM      6  C   UNL     1       9.300  10.765  18.020  0.00  0.00    +0.000 A 
ENDROOT
BRANCH   1  10
ATOM      7  N   UNL     1      12.141  12.623  17.097  0.00  0.00    +0.000 NA
ATOM      8  C   UNL     1      11.111  13.307  16.745  0.00  0.00    +0.000 C 
ATOM      9  N   UNL     1      11.239  14.301  15.741  0.00  0.00    +0.000 N 
ATOM     10  N   UNL     1       9.819  13.022  17.286  0.00  0.00    +0.000 N 
ATOM     11  H   UNL     1      13.070  12.789  16.685  0.00  0.00    +0.000 HD
ATOM     12  H   UNL     1      12.150  14.490  15.300  0.00  0.00    +0.000 HD
ATOM     13  H   UNL     1      10.419  14.845  15.437  0.00  0.00    +0.000 HD
ATOM     14  H   UNL     1       9.013  13.439  16.793  0.00  0.00    +0.000 HD
ENDBRANCH   1  10
BRANCH   5  15
ATOM     15  C   UNL     1       8.824   8.374  18.645  0.00  0.00    +0.000 C 
BRANCH  15  16
ATOM     16  C   UNL     1       7.758   8.234  17.545  0.00  0.00    +0.000 C 
BRANCH  16  17
ATOM     17  C   UNL     1       6.710   7.195  17.869  0.00  0.00    +0.000 A 
ATOM     18  C   UNL     1       6.957   6.130  18.747  0.00  0.00    +0.000 A 
ATOM     19  N   UNL     1       5.989   5.217  18.992  0.00  0.00    +0.000 NA
ATOM     20  C   UNL     1       4.762   5.305  18.424  0.00  0.00    +0.000 A 
ATOM     21  N   UNL     1       3.784   4.296  18.676  0.00  0.00    +0.000 N 
ATOM     22  C   UNL     1       4.081   3.134  19.496  0.00  0.00    +0.000 C 
ATOM     23  C   UNL     1       3.906   1.898  18.609  0.00  0.00    +0.000 C 
ATOM     24  O   UNL     1       2.597   1.863  18.057  0.00  0.00    +0.000 OA
ATOM     25  C   UNL     1       2.389   2.992  17.219  0.00  0.00    +0.000 C 
ATOM     26  C   UNL     1       2.488   4.291  18.028  0.00  0.00    +0.000 C 
ATOM     27  N   UNL     1       4.491   6.344  17.585  0.00  0.00    +0.000 NA
ATOM     28  C   UNL     1       5.433   7.280  17.297  0.00  0.00    +0.000 A 
ENDBRANCH  16  17
ENDBRANCH  15  16
ENDBRANCH   5  15
TORSDOF 4
ENDMDL
MODEL 6
REMARK VINA RESULT:      -7.7      7.507     10.563
REMARK  Name = 
REMARK  4 active torsions:
REMARK  status: ('A' for Active; 'I' for Inactive)
REMARK    1  A    between atoms: N_4  and  C_5
REMARK    2  A    between atoms: C_9  and  C_10
REMARK    3  A    between atoms: C_10  and  C_11
REMARK    4  A    between atoms: C_11  and  C_12
REMARK                            x       y       z     vdW  Elec       q    Type
REMARK                         _______ _______ _______ _____ _____    ______ ____
ROOT
ATOM      1  C   UNL     1      -4.024  11.571  17.366  0.00  0.00    +0.000 A 
ATOM      2  C   UNL     1      -3.765  10.877  16.165  0.00  0.00    +0.000 A 
ATOM      3  C   UNL     1      -2.656  10.036  16.059  0.00  0.00    +0.000 A 
ATOM      4  C   UNL     1      -1.796   9.868  17.143  0.00  0.00    +0.000 A 
ATOM      5  C   UNL     1      -2.031  10.557  18.341  0.00  0.00    +0.000 A 
ATOM      6  C   UNL     1      -3.138  11.411  18.440  0.00  0.00    +0.000 A 
ENDROOT
BRANCH   1  10
ATOM      7  N   UNL     1      -6.748  10.800  18.107  0.00  0.00    +0.000 NA
ATOM      8  C   UNL     1      -6.481  12.027  17.828  0.00  0.00    +0.000 C 
ATOM      9  N   UNL     1      -7.510  13.002  17.894  0.00  0.00    +0.000 N 
ATOM     10  N   UNL     1      -5.145  12.440  17.537  0.00  0.00    +0.000 N 
ATOM     11  H   UNL     1      -7.699  10.495  18.359  0.00  0.00    +0.000 HD
ATOM     12  H   UNL     1      -8.471  12.736  18.152  0.00  0.00    +0.000 HD
ATOM     13  H   UNL     1      -7.307  13.990  17.690  0.00  0.00    +0.000 HD
ATOM     14  H   UNL     1      -4.963  13.457  17.557  0.00  0.00    +0.000 HD
ENDBRANCH   1  10
BRANCH   5  15
ATOM     15  C   UNL     1      -1.117  10.369  19.520  0.00  0.00    +0.000 C 
BRANCH  15  16
ATOM     16  C   UNL     1       0.331  10.760  19.176  0.00  0.00    +0.000 C 
BRANCH  16  17
ATOM     17  C   UNL     1       1.212   9.566  18.891  0.00  0.00    +0.000 A 
ATOM     18  C   UNL     1       1.381   8.523  19.812  0.00  0.00    +0.000 A 
ATOM     19  N   UNL     1       2.193   7.482  19.514  0.00  0.00    +0.000 NA
ATOM     20  C   UNL     1       2.846   7.401  18.329  0.00  0.00    +0.000 A 
ATOM     21  N   UNL     1       3.728   6.308  18.073  0.00  0.00    +0.000 N 
ATOM     22  C   UNL     1       3.988   5.287  19.074  0.00  0.00    +0.000 C 
ATOM     23  C   UNL     1       5.488   5.330  19.384  0.00  0.00    +0.000 C 
ATOM     24  O   UNL     1       6.246   5.144  18.197  0.00  0.00    +0.000 OA
ATOM     25  C   UNL     1       5.994   6.204  17.285  0.00  0.00    +0.000 C 
ATOM     26  C   UNL     1       4.519   6.215  16.863  0.00  0.00    +0.000 C 
ATOM     27  N   UNL     1       2.680   8.392  17.409  0.00  0.00    +0.000 NA
ATOM     28  C   UNL     1       1.885   9.464  17.666  0.00  0.00    +0.000 A 
ENDBRANCH  16  17
ENDBRANCH  15  16
ENDBRANCH   5  15
TORSDOF 4
ENDMDL
MODEL 7
REMARK VINA RESULT:      -7.7      6.527      9.731
REMARK  Name = 
REMARK  4 active torsions:
REMARK  status: ('A' for Active; 'I' for Inactive)
REMARK    1  A    between atoms: N_4  and  C_5
REMARK    2  A    between atoms: C_9  and  C_10
REMARK    3  A    between atoms: C_10  and  C_11
REMARK    4  A    between atoms: C_11  and  C_12
REMARK                            x       y       z     vdW  Elec       q    Type
REMARK                         _______ _______ _______ _____ _____    ______ ____
ROOT
ATOM      1  C   UNL     1       4.366   4.359  17.460  0.00  0.00    +0.000 A 
ATOM      2  C   UNL     1       3.387   3.350  17.343  0.00  0.00    +0.000 A 
ATOM      3  C   UNL     1       2.046   3.632  17.608  0.00  0.00    +0.000 A 
ATOM      4  C   UNL     1       1.660   4.918  17.984  0.00  0.00    +0.000 A 
ATOM      5  C   UNL     1       2.620   5.931  18.115  0.00  0.00    +0.000 A 
ATOM      6  C   UNL     1       3.967   5.641  17.861  0.00  0.00    +0.000 A 
ENDROOT
BRANCH   1  10
ATOM      7  N   UNL     1       6.608   4.899  19.262  0.00  0.00    +0.000 NA
ATOM      8  C   UNL     1       6.831   4.474  18.068  0.00  0.00    +0.000 C 
ATOM      9  N   UNL     1       8.166   4.259  17.638  0.00  0.00    +0.000 N 
ATOM     10  N   UNL     1       5.752   4.133  17.196  0.00  0.00    +0.000 N 
ATOM     11  H   UNL     1       7.375   5.109  19.916  0.00  0.00    +0.000 HD
ATOM     12  H   UNL     1       8.959   4.449  18.267  0.00  0.00    +0.000 HD
ATOM     13  H   UNL     1       8.358   3.903  16.691  0.00  0.00    +0.000 HD
ATOM     14  H   UNL     1       5.996   3.583  16.356  0.00  0.00    +0.000 HD
ENDBRANCH   1  10
BRANCH   5  15
ATOM     15  C   UNL     1       2.209   7.324  18.505  0.00  0.00    +0.000 C 
BRANCH  15  16
ATOM     16  C   UNL     1       2.126   7.479  20.034  0.00  0.00    +0.000 C 
BRANCH  16  17
ATOM     17  C   UNL     1       1.331   8.690  20.461  0.00  0.00    +0.000 A 
ATOM     18  C   UNL     1       1.135   9.021  21.810  0.00  0.00    +0.000 A 
ATOM     19  N   UNL     1       0.403  10.109  22.141  0.00  0.00    +0.000 NA
ATOM     20  C   UNL     1      -0.145  10.915  21.198  0.00  0.00    +0.000 A 
ATOM     21  N   UNL     1      -0.949  12.028  21.591  0.00  0.00    +0.000 N 
ATOM     22  C   UNL     1      -1.242  12.302  22.987  0.00  0.00    +0.000 C 
ATOM     23  C   UNL     1      -2.763  12.220  23.154  0.00  0.00    +0.000 C 
ATOM     24  O   UNL     1      -3.409  13.123  22.267  0.00  0.00    +0.000 OA
ATOM     25  C   UNL     1      -3.133  12.766  20.920  0.00  0.00    +0.000 C 
ATOM     26  C   UNL     1      -1.631  12.871  20.630  0.00  0.00    +0.000 C 
ATOM     27  N   UNL     1       0.050  10.627  19.882  0.00  0.00    +0.000 NA
ATOM     28  C   UNL     1       0.768   9.539  19.498  0.00  0.00    +0.000 A 
ENDBRANCH  16  17
ENDBRANCH  15  16
ENDBRANCH   5  15
TORSDOF 4
ENDMDL
MODEL 8
REMARK VINA RESULT:      -7.7      4.082      9.963
REMARK  Name = 
REMARK  4 active torsions:
REMARK  status: ('A' for Active; 'I' for Inactive)
REMARK    1  A    between atoms: N_4  and  C_5
REMARK    2  A    between atoms: C_9  and  C_10
REMARK    3  A    between atoms: C_10  and  C_11
REMARK    4  A    between atoms: C_11  and  C_12
REMARK                            x       y       z     vdW  Elec       q    Type
REMARK                         _______ _______ _______ _____ _____    ______ ____
ROOT
ATOM      1  C   UNL     1       6.747   5.727  17.052  0.00  0.00    +0.000 A 
ATOM      2  C   UNL     1       7.215   4.973  18.149  0.00  0.00    +0.000 A 
ATOM      3  C   UNL     1       7.989   5.575  19.142  0.00  0.00    +0.000 A 
ATOM      4  C   UNL     1       8.302   6.930  19.064  0.00  0.00    +0.000 A 
ATOM      5  C   UNL     1       7.854   7.694  17.976  0.00  0.00    +0.000 A 
ATOM      6  C   UNL     1       7.088   7.084  16.974  0.00  0.00    +0.000 A 
ENDROOT
BRANCH   1  10
ATOM      7  N   UNL     1       7.613   5.066  14.336  0.00  0.00    +0.000 NA
ATOM      8  C   UNL     1       6.379   4.924  14.669  0.00  0.00    +0.000 C 
ATOM      9  N   UNL     1       5.447   4.436  13.717  0.00  0.00    +0.000 N 
ATOM     10  N   UNL     1       5.947   5.169  16.009  0.00  0.00    +0.000 N 
ATOM     11  H   UNL     1       7.947   4.854  13.385  0.00  0.00    +0.000 HD
ATOM     12  H   UNL     1       5.745   4.205  12.759  0.00  0.00    +0.000 HD
ATOM     13  H   UNL     1       4.459   4.302  13.975  0.00  0.00    +0.000 HD
ATOM     14  H   UNL     1       5.010   4.813  16.262  0.00  0.00    +0.000 HD
ENDBRANCH   1  10
BRANCH   5  15
ATOM     15  C   UNL     1       8.175   9.161  17.892  0.00  0.00    +0.000 C 
BRANCH  15  16
ATOM     16  C   UNL     1       9.022   9.622  19.091  0.00  0.00    +0.000 C 
BRANCH  16  17
ATOM     17  C   UNL     1       9.532  11.036  18.944  0.00  0.00    +0.000 A 
ATOM     18  C   UNL     1       9.364  12.002  19.947  0.00  0.00    +0.000 A 
ATOM     19  N   UNL     1       9.827  13.259  19.760  0.00  0.00    +0.000 NA
ATOM     20  C   UNL     1      10.475  13.621  18.625  0.00  0.00    +0.000 A 
ATOM     21  N   UNL     1      10.909  14.970  18.450  0.00  0.00    +0.000 N 
ATOM     22  C   UNL     1      10.633  15.995  19.443  0.00  0.00    +0.000 C 
ATOM     23  C   UNL     1       9.778  17.067  18.760  0.00  0.00    +0.000 C 
ATOM     24  O   UNL     1      10.443  17.576  17.612  0.00  0.00    +0.000 OA
ATOM     25  C   UNL     1      10.629  16.542  16.656  0.00  0.00    +0.000 C 
ATOM     26  C   UNL     1      11.526  15.435  17.224  0.00  0.00    +0.000 C 
ATOM     27  N   UNL     1      10.670  12.694  17.647  0.00  0.00    +0.000 NA
ATOM     28  C   UNL     1      10.213  11.421  17.781  0.00  0.00    +0.000 A 
ENDBRANCH  16  17
ENDBRANCH  15  16
ENDBRANCH   5  15
TORSDOF 4
ENDMDL
MODEL 9
REMARK VINA RESULT:      -7.6      5.552      7.761
REMARK  Name = 
REMARK  4 active torsions:
REMARK  status: ('A' for Active; 'I' for Inactive)
REMARK    1  A    between atoms: N_4  and  C_5
REMARK    2  A    between atoms: C_9  and  C_10
REMARK    3  A    between atoms: C_10  and  C_11
REMARK    4  A    between atoms: C_11  and  C_12
REMARK                            x       y       z     vdW  Elec       q    Type
REMARK                         _______ _______ _______ _____ _____    ______ ____
ROOT
ATOM      1  C   UNL     1       6.798   5.593  16.798  0.00  0.00    +0.000 A 
ATOM      2  C   UNL     1       7.570   5.888  17.941  0.00  0.00    +0.000 A 
ATOM      3  C   UNL     1       7.072   5.628  19.219  0.00  0.00    +0.000 A 
ATOM      4  C   UNL     1       5.806   5.067  19.378  0.00  0.00    +0.000 A 
ATOM      5  C   UNL     1       5.019   4.776  18.254  0.00  0.00    +0.000 A 
ATOM      6  C   UNL     1       5.517   5.050  16.974  0.00  0.00    +0.000 A 
ENDROOT
BRANCH   1  10
ATOM      7  N   UNL     1       6.498   3.814  14.494  0.00  0.00    +0.000 NA
ATOM      8  C   UNL     1       7.159   4.911  14.377  0.00  0.00    +0.000 C 
ATOM      9  N   UNL     1       7.729   5.257  13.124  0.00  0.00    +0.000 N 
ATOM     10  N   UNL     1       7.255   5.831  15.466  0.00  0.00    +0.000 N 
ATOM     11  H   UNL     1       6.385   3.161  13.705  0.00  0.00    +0.000 HD
ATOM     12  H   UNL     1       7.629   4.633  12.311  0.00  0.00    +0.000 HD
ATOM     13  H   UNL     1       8.246   6.140  13.012  0.00  0.00    +0.000 HD
ATOM     14  H   UNL     1       7.589   6.781  15.237  0.00  0.00    +0.000 HD
ENDBRANCH   1  10
BRANCH   5  15
ATOM     15  C   UNL     1       3.658   4.157  18.417  0.00  0.00    +0.000 C 
BRANCH  15  16
ATOM     16  C   UNL     1       2.555   5.063  17.842  0.00  0.00    +0.000 C 
BRANCH  16  17
ATOM     17  C   UNL     1       2.209   6.219  18.752  0.00  0.00    +0.000 A 
ATOM     18  C   UNL     1       1.999   6.052  20.129  0.00  0.00    +0.000 A 
ATOM     19  N   UNL     1       1.677   7.117  20.898  0.00  0.00    +0.000 NA
ATOM     20  C   UNL     1       1.565   8.365  20.380  0.00  0.00    +0.000 A 
ATOM     21  N   UNL     1       1.179   9.454  21.219  0.00  0.00    +0.000 N 
ATOM     22  C   UNL     1       0.852   9.258  22.621  0.00  0.00    +0.000 C 
ATOM     23  C   UNL     1      -0.604   9.694  22.811  0.00  0.00    +0.000 C 
ATOM     24  O   UNL     1      -0.779  11.039  22.387  0.00  0.00    +0.000 OA
ATOM     25  C   UNL     1      -0.504  11.153  20.998  0.00  0.00    +0.000 C 
ATOM     26  C   UNL     1       0.958  10.791  20.705  0.00  0.00    +0.000 C 
ATOM     27  N   UNL     1       1.786   8.556  19.050  0.00  0.00    +0.000 NA
ATOM     28  C   UNL     1       2.100   7.516  18.233  0.00  0.00    +0.000 A 
ENDBRANCH  16  17
ENDBRANCH  15  16
ENDBRANCH   5  15
TORSDOF 4
ENDMDL
