MODEL 1
REMARK VINA RESULT:      -8.2      0.000      0.000
REMARK  Name = 
REMARK  7 active torsions:
REMARK  status: ('A' for Active; 'I' for Inactive)
REMARK    1  A    between atoms: C_1  and  C_2
REMARK    2  A    between atoms: C_2  and  C_3
REMARK    3  A    between atoms: C_2  and  C_4
REMARK    4  A    between atoms: C_7  and  N_8
REMARK    5  A    between atoms: N_8  and  C_9
REMARK    6  A    between atoms: C_14  and  C_16
REMARK    7  A    between atoms: C_16  and  N_17
REMARK                            x       y       z     vdW  Elec       q    Type
REMARK                         _______ _______ _______ _____ _____    ______ ____
ROOT
ATOM      1  C   UNL     1       1.385   4.678  20.190  0.00  0.00    +0.000 C 
ATOM      2  C   UNL     1       1.599   3.516  21.166  0.00  0.00    +0.000 C 
ATOM      3  C   UNL     1       2.999   2.886  21.126  0.00  0.00    +0.000 C 
ATOM      4  C   UNL     1       3.660   2.788  19.746  0.00  0.00    +0.000 C 
ATOM      5  N   UNL     1       3.364   3.930  18.888  0.00  0.00    +0.000 N 
ATOM      6  C   UNL     1       4.247   4.615  18.065  0.00  0.00    +0.000 C 
ATOM      7  O   UNL     1       3.838   5.510  17.316  0.00  0.00    +0.000 OA
ATOM      8  C   UNL     1       1.937   4.272  18.809  0.00  0.00    +0.000 C 
ENDROOT
BRANCH   1   9
ATOM      9  N   UNL     1       2.040   5.897  20.647  0.00  0.00    +0.000 N 
ATOM     10  H   UNL     1       2.764   5.775  21.353  0.00  0.00    +0.000 HD
BRANCH   9  14
ATOM     11  C   UNL     1       1.011   9.904  19.732  0.00  0.00    +0.000 A 
ATOM     12  C   UNL     1       1.713   9.128  18.803  0.00  0.00    +0.000 A 
ATOM     13  C   UNL     1       2.075   7.799  19.095  0.00  0.00    +0.000 A 
ATOM     14  C   UNL     1       1.718   7.196  20.302  0.00  0.00    +0.000 A 
ATOM     15  C   UNL     1       1.042   7.989  21.235  0.00  0.00    +0.000 A 
ATOM     16  C   UNL     1       0.699   9.320  20.964  0.00  0.00    +0.000 A 
BRANCH  11  18
ATOM     17  C   UNL     1       1.704  12.066  18.633  0.00  0.00    +0.000 C 
ATOM     18  C   UNL     1       0.603  11.331  19.407  0.00  0.00    +0.000 C 
ATOM     19  C   UNL     1      -0.715  11.378  18.629  0.00  0.00    +0.000 C 
ENDBRANCH  11  18
ENDBRANCH   9  14
ENDBRANCH   1   9
BRANCH   6  20
ATOM     20  C   UNL     1       5.737   4.220  18.033  0.00  0.00    +0.000 C 
BRANCH  20  21
ATOM     21  N   UNL     1       6.314   4.446  16.713  0.00  0.00    +0.000 N 
ATOM     22  C   UNL     1       5.982   3.694  15.541  0.00  0.00    +0.000 C 
ATOM     23  C   UNL     1       6.486   4.591  14.434  0.00  0.00    +0.000 C 
ATOM     24  O   UNL     1       7.410   5.487  15.068  0.00  0.00    +0.000 OA
ATOM     25  C   UNL     1       7.151   5.486  16.406  0.00  0.00    +0.000 C 
ATOM     26  O   UNL     1       7.615   6.290  17.193  0.00  0.00    +0.000 OA
ENDBRANCH  20  21
ENDBRANCH   6  20
TORSDOF 5
ENDMDL
MODEL 2
REMARK VINA RESULT:      -8.1      3.674      7.892
REMARK  Name = 
REMARK  7 active torsions:
REMARK  status: ('A' for Active; 'I' for Inactive)
REMARK    1  A    between atoms: C_1  and  C_2
REMARK    2  A    between atoms: C_2  and  C_3
REMARK    3  A    between atoms: C_2  and  C_4
REMARK    4  A    between atoms: C_7  and  N_8
REMARK    5  A    between atoms: N_8  and  C_9
REMARK    6  A    between atoms: C_14  and  C_16
REMARK    7  A    between atoms: C_16  and  N_17
REMARK                            x       y       z     vdW  Elec       q    Type
REMARK                         _______ _______ _______ _____ _____    ______ ____
ROOT
ATOM      1  C   UNL     1       7.024   6.415  16.863  0.00  0.00    +0.000 C 
ATOM      2  C   UNL     1       7.854   6.735  18.110  0.00  0.00    +0.000 C 
ATOM      3  C   UNL     1       7.550   5.859  19.334  0.00  0.00    +0.000 C 
ATOM      4  C   UNL     1       6.083   5.461  19.537  0.00  0.00    +0.000 C 
ATOM      5  N   UNL     1       5.380   5.210  18.284  0.00  0.00    +0.000 N 
ATOM      6  C   UNL     1       4.496   4.176  18.009  0.00  0.00    +0.000 C 
ATOM      7  O   UNL     1       3.896   4.138  16.928  0.00  0.00    +0.000 OA
ATOM      8  C   UNL     1       5.546   6.267  17.277  0.00  0.00    +0.000 C 
ENDROOT
BRANCH   1   9
ATOM      9  N   UNL     1       7.479   5.195  16.208  0.00  0.00    +0.000 N 
ATOM     10  H   UNL     1       8.252   4.709  16.659  0.00  0.00    +0.000 HD
BRANCH   9  14
ATOM     11  C   UNL     1       6.033   3.571  12.572  0.00  0.00    +0.000 A 
ATOM     12  C   UNL     1       7.049   4.532  12.558  0.00  0.00    +0.000 A 
ATOM     13  C   UNL     1       7.532   5.092  13.755  0.00  0.00    +0.000 A 
ATOM     14  C   UNL     1       7.045   4.686  14.999  0.00  0.00    +0.000 A 
ATOM     15  C   UNL     1       6.009   3.746  15.000  0.00  0.00    +0.000 A 
ATOM     16  C   UNL     1       5.504   3.200  13.813  0.00  0.00    +0.000 A 
BRANCH  11  18
ATOM     17  C   UNL     1       5.888   1.465  11.191  0.00  0.00    +0.000 C 
ATOM     18  C   UNL     1       5.525   2.952  11.280  0.00  0.00    +0.000 C 
ATOM     19  C   UNL     1       4.014   3.140  11.121  0.00  0.00    +0.000 C 
ENDBRANCH  11  18
ENDBRANCH   9  14
ENDBRANCH   1   9
BRANCH   6  20
ATOM     20  C   UNL     1       4.207   3.102  19.076  0.00  0.00    +0.000 C 
BRANCH  20  21
ATOM     21  N   UNL     1       3.037   3.451  19.872  0.00  0.00    +0.000 N 
ATOM     22  C   UNL     1       1.993   4.331  19.440  0.00  0.00    +0.000 C 
ATOM     23  C   UNL     1       0.875   3.993  20.400  0.00  0.00    +0.000 C 
ATOM     24  O   UNL     1       1.513   3.332  21.503  0.00  0.00    +0.000 OA
ATOM     25  C   UNL     1       2.729   2.884  21.080  0.00  0.00    +0.000 C 
ATOM     26  O   UNL     1       3.427   2.106  21.705  0.00  0.00    +0.000 OA
ENDBRANCH  20  21
ENDBRANCH   6  20
TORSDOF 5
ENDMDL
MODEL 3
REMARK VINA RESULT:      -8.1      1.219      1.847
REMARK  Name = 
REMARK  7 active torsions:
REMARK  status: ('A' for Active; 'I' for Inactive)
REMARK    1  A    between atoms: C_1  and  C_2
REMARK    2  A    between atoms: C_2  and  C_3
REMARK    3  A    between atoms: C_2  and  C_4
REMARK    4  A    between atoms: C_7  and  N_8
REMARK    5  A    between atoms: N_8  and  C_9
REMARK    6  A    between atoms: C_14  and  C_16
REMARK    7  A    between atoms: C_16  and  N_17
REMARK                            x       y       z     vdW  Elec       q    Type
REMARK                         _______ _______ _______ _____ _____    ______ ____
ROOT
ATOM      1  C   UNL     1       1.509   4.707  20.131  0.00  0.00    +0.000 C 
ATOM      2  C   UNL     1       1.687   3.561  21.133  0.00  0.00    +0.000 C 
ATOM      3  C   UNL     1       3.073   2.901  21.124  0.00  0.00    +0.000 C 
ATOM      4  C   UNL     1       3.750   2.762  19.755  0.00  0.00    +0.000 C 
ATOM      5  N   UNL     1       3.488   3.892  18.870  0.00  0.00    +0.000 N 
ATOM      6  C   UNL     1       4.397   4.542  18.046  0.00  0.00    +0.000 C 
ATOM      7  O   UNL     1       4.016   5.429  17.274  0.00  0.00    +0.000 OA
ATOM      8  C   UNL     1       2.071   4.261  18.766  0.00  0.00    +0.000 C 
ENDROOT
BRANCH   1   9
ATOM      9  N   UNL     1       2.184   5.921  20.572  0.00  0.00    +0.000 N 
ATOM     10  H   UNL     1       2.983   5.787  21.189  0.00  0.00    +0.000 HD
BRANCH   9  14
ATOM     11  C   UNL     1       1.036   9.900  19.674  0.00  0.00    +0.000 A 
ATOM     12  C   UNL     1       0.729   9.343  20.920  0.00  0.00    +0.000 A 
ATOM     13  C   UNL     1       1.090   8.019  21.231  0.00  0.00    +0.000 A 
ATOM     14  C   UNL     1       1.798   7.225  20.326  0.00  0.00    +0.000 A 
ATOM     15  C   UNL     1       2.074   7.781  19.073  0.00  0.00    +0.000 A 
ATOM     16  C   UNL     1       1.697   9.090  18.744  0.00  0.00    +0.000 A 
BRANCH  11  18
ATOM     17  C   UNL     1       1.785  12.045  18.581  0.00  0.00    +0.000 C 
ATOM     18  C   UNL     1       0.663  11.335  19.346  0.00  0.00    +0.000 C 
ATOM     19  C   UNL     1      -0.648  11.411  18.558  0.00  0.00    +0.000 C 
ENDBRANCH  11  18
ENDBRANCH   9  14
ENDBRANCH   1   9
BRANCH   6  20
ATOM     20  C   UNL     1       5.878   4.115  18.041  0.00  0.00    +0.000 C 
BRANCH  20  21
ATOM     21  N   UNL     1       6.761   5.276  17.996  0.00  0.00    +0.000 N 
ATOM     22  C   UNL     1       6.944   6.112  16.848  0.00  0.00    +0.000 C 
ATOM     23  C   UNL     1       7.562   7.351  17.455  0.00  0.00    +0.000 C 
ATOM     24  O   UNL     1       8.062   6.935  18.734  0.00  0.00    +0.000 OA
ATOM     25  C   UNL     1       7.427   5.780  19.080  0.00  0.00    +0.000 C 
ATOM     26  O   UNL     1       7.469   5.283  20.191  0.00  0.00    +0.000 OA
ENDBRANCH  20  21
ENDBRANCH   6  20
TORSDOF 5
ENDMDL
MODEL 4
REMARK VINA RESULT:      -8.1      0.984      1.708
REMARK  Name = 
REMARK  7 active torsions:
REMARK  status: ('A' for Active; 'I' for Inactive)
REMARK    1  A    between atoms: C_1  and  C_2
REMARK    2  A    between atoms: C_2  and  C_3
REMARK    3  A    between atoms: C_2  and  C_4
REMARK    4  A    between atoms: C_7  and  N_8
REMARK    5  A    between atoms: N_8  and  C_9
REMARK    6  A    between atoms: C_14  and  C_16
REMARK    7  A    between atoms: C_16  and  N_17
REMARK                            x       y       z     vdW  Elec       q    Type
REMARK                         _______ _______ _______ _____ _____    ______ ____
ROOT
ATOM      1  C   UNL     1       1.309   4.508  20.486  0.00  0.00    +0.000 C 
ATOM      2  C   UNL     1       1.661   3.410  21.496  0.00  0.00    +0.000 C 
ATOM      3  C   UNL     1       2.989   2.688  21.232  0.00  0.00    +0.000 C 
ATOM      4  C   UNL     1       3.349   2.443  19.762  0.00  0.00    +0.000 C 
ATOM      5  N   UNL     1       2.940   3.535  18.884  0.00  0.00    +0.000 N 
ATOM      6  C   UNL     1       3.670   4.096  17.846  0.00  0.00    +0.000 C 
ATOM      7  O   UNL     1       3.160   4.958  17.119  0.00  0.00    +0.000 OA
ATOM      8  C   UNL     1       1.546   3.963  19.063  0.00  0.00    +0.000 C 
ENDROOT
BRANCH   1   9
ATOM      9  N   UNL     1       2.104   5.712  20.695  0.00  0.00    +0.000 N 
ATOM     10  H   UNL     1       2.917   5.608  21.299  0.00  0.00    +0.000 HD
BRANCH   9  14
ATOM     11  C   UNL     1       1.181   9.658  19.461  0.00  0.00    +0.000 A 
ATOM     12  C   UNL     1       1.890   8.802  18.611  0.00  0.00    +0.000 A 
ATOM     13  C   UNL     1       2.217   7.493  19.009  0.00  0.00    +0.000 A 
ATOM     14  C   UNL     1       1.817   6.987  20.247  0.00  0.00    +0.000 A 
ATOM     15  C   UNL     1       1.135   7.859  21.101  0.00  0.00    +0.000 A 
ATOM     16  C   UNL     1       0.826   9.173  20.724  0.00  0.00    +0.000 A 
BRANCH  11  18
ATOM     17  C   UNL     1      -0.644  11.139  18.544  0.00  0.00    +0.000 C 
ATOM     18  C   UNL     1       0.811  11.065  19.022  0.00  0.00    +0.000 C 
ATOM     19  C   UNL     1       1.056  12.086  20.137  0.00  0.00    +0.000 C 
ENDBRANCH  11  18
ENDBRANCH   9  14
ENDBRANCH   1   9
BRANCH   6  20
ATOM     20  C   UNL     1       5.100   3.602  17.551  0.00  0.00    +0.000 C 
BRANCH  20  21
ATOM     21  N   UNL     1       6.091   4.604  17.924  0.00  0.00    +0.000 N 
ATOM     22  C   UNL     1       6.150   5.254  19.199  0.00  0.00    +0.000 C 
ATOM     23  C   UNL     1       7.555   5.812  19.206  0.00  0.00    +0.000 C 
ATOM     24  O   UNL     1       7.963   5.821  17.831  0.00  0.00    +0.000 OA
ATOM     25  C   UNL     1       7.162   4.956  17.147  0.00  0.00    +0.000 C 
ATOM     26  O   UNL     1       7.378   4.577  16.010  0.00  0.00    +0.000 OA
ENDBRANCH  20  21
ENDBRANCH   6  20
TORSDOF 5
ENDMDL
MODEL 5
REMARK VINA RESULT:      -8.0      3.709      7.899
REMARK  Name = 
REMARK  7 active torsions:
REMARK  status: ('A' for Active; 'I' for Inactive)
REMARK    1  A    between atoms: C_1  and  C_2
REMARK    2  A    between atoms: C_2  and  C_3
REMARK    3  A    between atoms: C_2  and  C_4
REMARK    4  A    between atoms: C_7  and  N_8
REMARK    5  A    between atoms: N_8  and  C_9
REMARK    6  A    between atoms: C_14  and  C_16
REMARK    7  A    between atoms: C_16  and  N_17
REMARK                            x       y       z     vdW  Elec       q    Type
REMARK                         _______ _______ _______ _____ _____    ______ ____
ROOT
ATOM      1  C   UNL     1       7.022   6.472  16.850  0.00  0.00    +0.000 C 
ATOM      2  C   UNL     1       7.828   6.779  18.117  0.00  0.00    +0.000 C 
ATOM      3  C   UNL     1       7.512   5.881  19.320  0.00  0.00    +0.000 C 
ATOM      4  C   UNL     1       6.045   5.468  19.493  0.00  0.00    +0.000 C 
ATOM      5  N   UNL     1       5.365   5.231  18.224  0.00  0.00    +0.000 N 
ATOM      6  C   UNL     1       4.494   4.195  17.917  0.00  0.00    +0.000 C 
ATOM      7  O   UNL     1       3.913   4.169  16.826  0.00  0.00    +0.000 OA
ATOM      8  C   UNL     1       5.539   6.305  17.237  0.00  0.00    +0.000 C 
ENDROOT
BRANCH   1   9
ATOM      9  N   UNL     1       7.499   5.266  16.184  0.00  0.00    +0.000 N 
ATOM     10  H   UNL     1       8.345   4.850  16.568  0.00  0.00    +0.000 HD
BRANCH   9  14
ATOM     11  C   UNL     1       6.041   3.565  12.588  0.00  0.00    +0.000 A 
ATOM     12  C   UNL     1       5.530   3.147  13.822  0.00  0.00    +0.000 A 
ATOM     13  C   UNL     1       6.012   3.691  15.027  0.00  0.00    +0.000 A 
ATOM     14  C   UNL     1       6.987   4.690  15.037  0.00  0.00    +0.000 A 
ATOM     15  C   UNL     1       7.512   5.079  13.801  0.00  0.00    +0.000 A 
ATOM     16  C   UNL     1       7.057   4.526  12.596  0.00  0.00    +0.000 A 
BRANCH  11  18
ATOM     17  C   UNL     1       5.862   1.507  11.141  0.00  0.00    +0.000 C 
ATOM     18  C   UNL     1       5.506   2.991  11.287  0.00  0.00    +0.000 C 
ATOM     19  C   UNL     1       3.992   3.187  11.165  0.00  0.00    +0.000 C 
ENDBRANCH  11  18
ENDBRANCH   9  14
ENDBRANCH   1   9
BRANCH   6  20
ATOM     20  C   UNL     1       4.197   3.102  18.962  0.00  0.00    +0.000 C 
BRANCH  20  21
ATOM     21  N   UNL     1       2.862   3.262  19.529  0.00  0.00    +0.000 N 
ATOM     22  C   UNL     1       2.561   4.045  20.689  0.00  0.00    +0.000 C 
ATOM     23  C   UNL     1       1.066   4.233  20.566  0.00  0.00    +0.000 C 
ATOM     24  O   UNL     1       0.632   3.210  19.657  0.00  0.00    +0.000 OA
ATOM     25  C   UNL     1       1.717   2.787  18.948  0.00  0.00    +0.000 C 
ATOM     26  O   UNL     1       1.654   2.082  17.958  0.00  0.00    +0.000 OA
ENDBRANCH  20  21
ENDBRANCH   6  20
TORSDOF 5
ENDMDL
MODEL 6
REMARK VINA RESULT:      -7.9      0.739      1.608
REMARK  Name = 
REMARK  7 active torsions:
REMARK  status: ('A' for Active; 'I' for Inactive)
REMARK    1  A    between atoms: C_1  and  C_2
REMARK    2  A    between atoms: C_2  and  C_3
REMARK    3  A    between atoms: C_2  and  C_4
REMARK    4  A    between atoms: C_7  and  N_8
REMARK    5  A    between atoms: N_8  and  C_9
REMARK    6  A    between atoms: C_14  and  C_16
REMARK    7  A    between atoms: C_16  and  N_17
REMARK                            x       y       z     vdW  Elec       q    Type
REMARK                         _______ _______ _______ _____ _____    ______ ____
ROOT
ATOM      1  C   UNL     1       1.282   4.538  20.501  0.00  0.00    +0.000 C 
ATOM      2  C   UNL     1       1.605   3.395  21.470  0.00  0.00    +0.000 C 
ATOM      3  C   UNL     1       2.978   2.739  21.264  0.00  0.00    +0.000 C 
ATOM      4  C   UNL     1       3.452   2.598  19.812  0.00  0.00    +0.000 C 
ATOM      5  N   UNL     1       3.063   3.725  18.971  0.00  0.00    +0.000 N 
ATOM      6  C   UNL     1       3.841   4.375  18.024  0.00  0.00    +0.000 C 
ATOM      7  O   UNL     1       3.350   5.259  17.312  0.00  0.00    +0.000 OA
ATOM      8  C   UNL     1       1.643   4.090  19.071  0.00  0.00    +0.000 C 
ENDROOT
BRANCH   1   9
ATOM      9  N   UNL     1       2.009   5.755  20.838  0.00  0.00    +0.000 N 
ATOM     10  H   UNL     1       2.837   5.633  21.418  0.00  0.00    +0.000 HD
BRANCH   9  14
ATOM     11  C   UNL     1       0.938   9.719  19.792  0.00  0.00    +0.000 A 
ATOM     12  C   UNL     1       0.470   9.154  20.983  0.00  0.00    +0.000 A 
ATOM     13  C   UNL     1       0.804   7.835  21.341  0.00  0.00    +0.000 A 
ATOM     14  C   UNL     1       1.642   7.054  20.542  0.00  0.00    +0.000 A 
ATOM     15  C   UNL     1       2.080   7.616  19.339  0.00  0.00    +0.000 A 
ATOM     16  C   UNL     1       1.733   8.921  18.962  0.00  0.00    +0.000 A 
BRANCH  11  18
ATOM     17  C   UNL     1       1.706  11.795  18.583  0.00  0.00    +0.000 C 
ATOM     18  C   UNL     1       0.593  11.149  19.416  0.00  0.00    +0.000 C 
ATOM     19  C   UNL     1      -0.742  11.230  18.671  0.00  0.00    +0.000 C 
ENDBRANCH  11  18
ENDBRANCH   9  14
ENDBRANCH   1   9
BRANCH   6  20
ATOM     20  C   UNL     1       5.308   3.953  17.808  0.00  0.00    +0.000 C 
BRANCH  20  21
ATOM     21  N   UNL     1       6.119   5.077  17.356  0.00  0.00    +0.000 N 
ATOM     22  C   UNL     1       6.422   6.231  18.148  0.00  0.00    +0.000 C 
ATOM     23  C   UNL     1       7.601   6.822  17.410  0.00  0.00    +0.000 C 
ATOM     24  O   UNL     1       7.555   6.240  16.099  0.00  0.00    +0.000 OA
ATOM     25  C   UNL     1       6.794   5.111  16.165  0.00  0.00    +0.000 C 
ATOM     26  O   UNL     1       6.728   4.277  15.280  0.00  0.00    +0.000 OA
ENDBRANCH  20  21
ENDBRANCH   6  20
TORSDOF 5
ENDMDL
MODEL 7
REMARK VINA RESULT:      -7.9      1.354      1.911
REMARK  Name = 
REMARK  7 active torsions:
REMARK  status: ('A' for Active; 'I' for Inactive)
REMARK    1  A    between atoms: C_1  and  C_2
REMARK    2  A    between atoms: C_2  and  C_3
REMARK    3  A    between atoms: C_2  and  C_4
REMARK    4  A    between atoms: C_7  and  N_8
REMARK    5  A    between atoms: N_8  and  C_9
REMARK    6  A    between atoms: C_14  and  C_16
REMARK    7  A    between atoms: C_16  and  N_17
REMARK                            x       y       z     vdW  Elec       q    Type
REMARK                         _______ _______ _______ _____ _____    ______ ____
ROOT
ATOM      1  C   UNL     1       1.825   4.753  19.680  0.00  0.00    +0.000 C 
ATOM      2  C   UNL     1       2.028   3.642  20.717  0.00  0.00    +0.000 C 
ATOM      3  C   UNL     1       3.445   3.053  20.767  0.00  0.00    +0.000 C 
ATOM      4  C   UNL     1       4.171   2.914  19.424  0.00  0.00    +0.000 C 
ATOM      5  N   UNL     1       3.882   4.007  18.502  0.00  0.00    +0.000 N 
ATOM      6  C   UNL     1       4.783   4.682  17.689  0.00  0.00    +0.000 C 
ATOM      7  O   UNL     1       4.382   5.530  16.883  0.00  0.00    +0.000 OA
ATOM      8  C   UNL     1       2.451   4.302  18.345  0.00  0.00    +0.000 C 
ENDROOT
BRANCH   1   9
ATOM      9  N   UNL     1       2.425   6.010  20.109  0.00  0.00    +0.000 N 
ATOM     10  H   UNL     1       3.155   5.937  20.815  0.00  0.00    +0.000 HD
BRANCH   9  14
ATOM     11  C   UNL     1       1.219   9.948  19.115  0.00  0.00    +0.000 A 
ATOM     12  C   UNL     1       1.877   9.154  18.170  0.00  0.00    +0.000 A 
ATOM     13  C   UNL     1       2.297   7.848  18.487  0.00  0.00    +0.000 A 
ATOM     14  C   UNL     1       2.042   7.285  19.738  0.00  0.00    +0.000 A 
ATOM     15  C   UNL     1       1.410   8.097  20.685  0.00  0.00    +0.000 A 
ATOM     16  C   UNL     1       1.010   9.407  20.387  0.00  0.00    +0.000 A 
BRANCH  11  18
ATOM     17  C   UNL     1      -0.189  11.910  19.840  0.00  0.00    +0.000 C 
ATOM     18  C   UNL     1       0.749  11.350  18.765  0.00  0.00    +0.000 C 
ATOM     19  C   UNL     1       1.928  12.301  18.542  0.00  0.00    +0.000 C 
ENDBRANCH  11  18
ENDBRANCH   9  14
ENDBRANCH   1   9
BRANCH   6  20
ATOM     20  C   UNL     1       6.282   4.331  17.741  0.00  0.00    +0.000 C 
BRANCH  20  21
ATOM     21  N   UNL     1       7.100   5.530  17.882  0.00  0.00    +0.000 N 
ATOM     22  C   UNL     1       7.290   6.510  16.855  0.00  0.00    +0.000 C 
ATOM     23  C   UNL     1       7.809   7.694  17.638  0.00  0.00    +0.000 C 
ATOM     24  O   UNL     1       8.271   7.149  18.882  0.00  0.00    +0.000 OA
ATOM     25  C   UNL     1       7.686   5.931  19.054  0.00  0.00    +0.000 C 
ATOM     26  O   UNL     1       7.704   5.304  20.097  0.00  0.00    +0.000 OA
ENDBRANCH  20  21
ENDBRANCH   6  20
TORSDOF 5
ENDMDL
MODEL 8
REMARK VINA RESULT:      -7.6      1.165      1.610
REMARK  Name = 
REMARK  7 active torsions:
REMARK  status: ('A' for Active; 'I' for Inactive)
REMARK    1  A    between atoms: C_1  and  C_2
REMARK    2  A    between atoms: C_2  and  C_3
REMARK    3  A    between atoms: C_2  and  C_4
REMARK    4  A    between atoms: C_7  and  N_8
REMARK    5  A    between atoms: N_8  and  C_9
REMARK    6  A    between atoms: C_14  and  C_16
REMARK    7  A    between atoms: C_16  and  N_17
REMARK                            x       y       z     vdW  Elec       q    Type
REMARK                         _______ _______ _______ _____ _____    ______ ____
ROOT
ATOM      1  C   UNL     1       1.392   4.383  20.766  0.00  0.00    +0.000 C 
ATOM      2  C   UNL     1       1.950   3.273  21.665  0.00  0.00    +0.000 C 
ATOM      3  C   UNL     1       3.212   2.581  21.132  0.00  0.00    +0.000 C 
ATOM      4  C   UNL     1       3.283   2.370  19.615  0.00  0.00    +0.000 C 
ATOM      5  N   UNL     1       2.695   3.470  18.857  0.00  0.00    +0.000 N 
ATOM      6  C   UNL     1       3.201   4.064  17.710  0.00  0.00    +0.000 C 
ATOM      7  O   UNL     1       2.548   4.929  17.114  0.00  0.00    +0.000 OA
ATOM      8  C   UNL     1       1.357   3.869  19.312  0.00  0.00    +0.000 C 
ENDROOT
BRANCH   1   9
ATOM      9  N   UNL     1       2.194   5.597  20.843  0.00  0.00    +0.000 N 
ATOM     10  H   UNL     1       3.094   5.507  21.311  0.00  0.00    +0.000 HD
BRANCH   9  14
ATOM     11  C   UNL     1       1.004   9.514  19.751  0.00  0.00    +0.000 A 
ATOM     12  C   UNL     1       1.840   8.771  18.909  0.00  0.00    +0.000 A 
ATOM     13  C   UNL     1       2.256   7.474  19.262  0.00  0.00    +0.000 A 
ATOM     14  C   UNL     1       1.824   6.866  20.442  0.00  0.00    +0.000 A 
ATOM     15  C   UNL     1       1.014   7.627  21.290  0.00  0.00    +0.000 A 
ATOM     16  C   UNL     1       0.613   8.929  20.960  0.00  0.00    +0.000 A 
BRANCH  11  18
ATOM     17  C   UNL     1       0.063  11.701  20.581  0.00  0.00    +0.000 C 
ATOM     18  C   UNL     1       0.539  10.906  19.360  0.00  0.00    +0.000 C 
ATOM     19  C   UNL     1       1.634  11.678  18.618  0.00  0.00    +0.000 C 
ENDBRANCH  11  18
ENDBRANCH   9  14
ENDBRANCH   1   9
BRANCH   6  20
ATOM     20  C   UNL     1       4.554   3.603  17.133  0.00  0.00    +0.000 C 
BRANCH  20  21
ATOM     21  N   UNL     1       5.563   4.649  17.253  0.00  0.00    +0.000 N 
ATOM     22  C   UNL     1       5.892   5.582  16.218  0.00  0.00    +0.000 C 
ATOM     23  C   UNL     1       6.617   6.664  16.986  0.00  0.00    +0.000 C 
ATOM     24  O   UNL     1       7.008   6.050  18.223  0.00  0.00    +0.000 OA
ATOM     25  C   UNL     1       6.231   4.947  18.411  0.00  0.00    +0.000 C 
ATOM     26  O   UNL     1       6.165   4.326  19.456  0.00  0.00    +0.000 OA
ENDBRANCH  20  21
ENDBRANCH   6  20
TORSDOF 5
ENDMDL
MODEL 9
REMARK VINA RESULT:      -7.5      2.261      4.559
REMARK  Name = 
REMARK  7 active torsions:
REMARK  status: ('A' for Active; 'I' for Inactive)
REMARK    1  A    between atoms: C_1  and  C_2
REMARK    2  A    between atoms: C_2  and  C_3
REMARK    3  A    between atoms: C_2  and  C_4
REMARK    4  A    between atoms: C_7  and  N_8
REMARK    5  A    between atoms: N_8  and  C_9
REMARK    6  A    between atoms: C_14  and  C_16
REMARK    7  A    between atoms: C_16  and  N_17
REMARK                            x       y       z     vdW  Elec       q    Type
REMARK                         _______ _______ _______ _____ _____    ______ ____
ROOT
ATOM      1  C   UNL     1       4.798   6.997  16.995  0.00  0.00    +0.000 C 
ATOM      2  C   UNL     1       5.191   6.380  15.648  0.00  0.00    +0.000 C 
ATOM      3  C   UNL     1       5.117   4.848  15.591  0.00  0.00    +0.000 C 
ATOM      4  C   UNL     1       5.532   4.100  16.864  0.00  0.00    +0.000 C 
ATOM      5  N   UNL     1       5.137   4.791  18.087  0.00  0.00    +0.000 N 
ATOM      6  C   UNL     1       4.591   4.228  19.231  0.00  0.00    +0.000 C 
ATOM      7  O   UNL     1       4.391   4.923  20.235  0.00  0.00    +0.000 OA
ATOM      8  C   UNL     1       5.503   6.214  18.121  0.00  0.00    +0.000 C 
ENDROOT
BRANCH   1   9
ATOM      9  N   UNL     1       3.356   6.973  17.202  0.00  0.00    +0.000 N 
ATOM     10  H   UNL     1       2.828   6.360  16.584  0.00  0.00    +0.000 HD
BRANCH   9  14
ATOM     11  C   UNL     1       1.151   9.295  19.977  0.00  0.00    +0.000 A 
ATOM     12  C   UNL     1       1.428   9.798  18.701  0.00  0.00    +0.000 A 
ATOM     13  C   UNL     1       2.170   9.046  17.771  0.00  0.00    +0.000 A 
ATOM     14  C   UNL     1       2.626   7.762  18.070  0.00  0.00    +0.000 A 
ATOM     15  C   UNL     1       2.371   7.280  19.358  0.00  0.00    +0.000 A 
ATOM     16  C   UNL     1       1.653   8.030  20.300  0.00  0.00    +0.000 A 
BRANCH  11  18
ATOM     17  C   UNL     1      -0.784  10.884  20.277  0.00  0.00    +0.000 C 
ATOM     18  C   UNL     1       0.333  10.098  20.973  0.00  0.00    +0.000 C 
ATOM     19  C   UNL     1      -0.251   9.206  22.072  0.00  0.00    +0.000 C 
ENDBRANCH  11  18
ENDBRANCH   9  14
ENDBRANCH   1   9
BRANCH   6  20
ATOM     20  C   UNL     1       4.290   2.717  19.281  0.00  0.00    +0.000 C 
BRANCH  20  21
ATOM     21  N   UNL     1       2.856   2.467  19.361  0.00  0.00    +0.000 N 
ATOM     22  C   UNL     1       2.103   2.437  20.578  0.00  0.00    +0.000 C 
ATOM     23  C   UNL     1       0.685   2.594  20.078  0.00  0.00    +0.000 C 
ATOM     24  O   UNL     1       0.736   2.251  18.686  0.00  0.00    +0.000 OA
ATOM     25  C   UNL     1       2.031   2.355  18.273  0.00  0.00    +0.000 C 
ATOM     26  O   UNL     1       2.381   2.335  17.107  0.00  0.00    +0.000 OA
ENDBRANCH  20  21
ENDBRANCH   6  20
TORSDOF 5
ENDMDL
