MODEL 1
REMARK VINA RESULT:      -7.5      0.000      0.000
REMARK  Name = 
REMARK  6 active torsions:
REMARK  status: ('A' for Active; 'I' for Inactive)
REMARK    1  A    between atoms: C_1  and  C_2
REMARK    2  A    between atoms: C_2  and  C_4
REMARK    3  A    between atoms: C_5  and  O_6
REMARK    4  A    between atoms: C_8  and  C_9
REMARK    5  A    between atoms: C_9  and  C_10
REMARK    6  A    between atoms: C_14  and  C_15
REMARK                            x       y       z     vdW  Elec       q    Type
REMARK                         _______ _______ _______ _____ _____    ______ ____
ROOT
ATOM      1  C   UNL     1       2.492   4.147  20.691  0.00  0.00    +0.000 C 
ATOM      2  C   UNL     1       2.461   5.375  20.031  0.00  0.00    +0.000 C 
ATOM      3  S   UNL     1       2.773   5.484  18.357  0.00  0.00    +0.000 S 
ATOM      4  C   UNL     1       3.482   3.816  18.507  0.00  0.00    +0.000 C 
ATOM      5  C   UNL     1       2.359   3.402  19.380  0.00  0.00    +0.000 C 
ATOM      6  O   UNL     1       1.759   2.328  19.236  0.00  0.00    +0.000 OA
ENDROOT
BRANCH   1   8
ATOM      7  C   UNL     1       1.114   2.535  21.983  0.00  0.00    +0.000 C 
ATOM      8  C   UNL     1       2.532   2.842  21.358  0.00  0.00    +0.000 C 
ATOM      9  O   UNL     1       3.603   2.256  21.473  0.00  0.00    +0.000 OA
ENDBRANCH   1   8
BRANCH   2  10
ATOM     10  O   UNL     1       2.342   6.749  20.554  0.00  0.00    +0.000 OA
ATOM     11  H   UNL     1       2.613   6.968  21.463  0.00  0.00    +0.000 HD
ENDBRANCH   2  10
BRANCH   4  12
ATOM     12  C   UNL     1       5.042   3.712  19.128  0.00  0.00    +0.000 C 
BRANCH  12  13
ATOM     13  C   UNL     1       5.939   4.608  18.389  0.00  0.00    +0.000 A 
ATOM     14  C   UNL     1       6.718   5.634  18.974  0.00  0.00    +0.000 A 
ATOM     15  C   UNL     1       7.395   6.482  18.132  0.00  0.00    +0.000 A 
ATOM     16  C   UNL     1       7.355   6.225  16.749  0.00  0.00    +0.000 A 
ATOM     17  C   UNL     1       6.619   5.140  16.203  0.00  0.00    +0.000 A 
ATOM     18  C   UNL     1       5.890   4.357  17.043  0.00  0.00    +0.000 A 
BRANCH  17  19
ATOM     19  C   UNL     1       6.491   4.758  14.769  0.00  0.00    +0.000 C 
ATOM     20  F   UNL     1       5.351   5.285  14.225  0.00  0.00    +0.000 F 
ATOM     21  F   UNL     1       7.535   5.200  14.026  0.00  0.00    +0.000 F 
ATOM     22  F   UNL     1       6.409   3.409  14.509  0.00  0.00    +0.000 F 
ENDBRANCH  17  19
ENDBRANCH  12  13
ENDBRANCH   4  12
TORSDOF 5
ENDMDL
MODEL 2
REMARK VINA RESULT:      -7.4      2.072      3.089
REMARK  Name = 
REMARK  6 active torsions:
REMARK  status: ('A' for Active; 'I' for Inactive)
REMARK    1  A    between atoms: C_1  and  C_2
REMARK    2  A    between atoms: C_2  and  C_4
REMARK    3  A    between atoms: C_5  and  O_6
REMARK    4  A    between atoms: C_8  and  C_9
REMARK    5  A    between atoms: C_9  and  C_10
REMARK    6  A    between atoms: C_14  and  C_15
REMARK                            x       y       z     vdW  Elec       q    Type
REMARK                         _______ _______ _______ _____ _____    ______ ____
ROOT
ATOM      1  C   UNL     1       3.075   3.286  19.138  0.00  0.00    +0.000 C 
ATOM      2  C   UNL     1       4.418   3.210  19.501  0.00  0.00    +0.000 C 
ATOM      3  S   UNL     1       5.514   4.450  19.086  0.00  0.00    +0.000 S 
ATOM      4  C   UNL     1       4.255   4.994  17.893  0.00  0.00    +0.000 C 
ATOM      5  C   UNL     1       3.189   4.776  18.898  0.00  0.00    +0.000 C 
ATOM      6  O   UNL     1       2.283   5.596  19.103  0.00  0.00    +0.000 OA
ENDROOT
BRANCH   1   8
ATOM      7  C   UNL     1       0.756   3.290  20.026  0.00  0.00    +0.000 C 
ATOM      8  C   UNL     1       1.667   3.393  18.740  0.00  0.00    +0.000 C 
ATOM      9  O   UNL     1       1.375   3.400  17.549  0.00  0.00    +0.000 OA
ENDBRANCH   1   8
BRANCH   2  10
ATOM     10  O   UNL     1       5.193   2.112  20.107  0.00  0.00    +0.000 OA
ATOM     11  H   UNL     1       6.148   2.201  20.275  0.00  0.00    +0.000 HD
ENDBRANCH   2  10
BRANCH   4  12
ATOM     12  C   UNL     1       4.162   4.136  16.448  0.00  0.00    +0.000 C 
BRANCH  12  13
ATOM     13  C   UNL     1       5.352   4.397  15.630  0.00  0.00    +0.000 A 
ATOM     14  C   UNL     1       6.445   5.201  16.028  0.00  0.00    +0.000 A 
ATOM     15  C   UNL     1       7.416   5.468  15.094  0.00  0.00    +0.000 A 
ATOM     16  C   UNL     1       7.320   4.851  13.833  0.00  0.00    +0.000 A 
ATOM     17  C   UNL     1       6.243   3.990  13.494  0.00  0.00    +0.000 A 
ATOM     18  C   UNL     1       5.248   3.800  14.401  0.00  0.00    +0.000 A 
BRANCH  17  19
ATOM     19  C   UNL     1       6.018   3.279  12.204  0.00  0.00    +0.000 C 
ATOM     20  F   UNL     1       4.957   3.818  11.529  0.00  0.00    +0.000 F 
ATOM     21  F   UNL     1       7.096   3.352  11.385  0.00  0.00    +0.000 F 
ATOM     22  F   UNL     1       5.727   1.937  12.298  0.00  0.00    +0.000 F 
ENDBRANCH  17  19
ENDBRANCH  12  13
ENDBRANCH   4  12
TORSDOF 5
ENDMDL
MODEL 3
REMARK VINA RESULT:      -7.4      3.682      6.194
REMARK  Name = 
REMARK  6 active torsions:
REMARK  status: ('A' for Active; 'I' for Inactive)
REMARK    1  A    between atoms: C_1  and  C_2
REMARK    2  A    between atoms: C_2  and  C_4
REMARK    3  A    between atoms: C_5  and  O_6
REMARK    4  A    between atoms: C_8  and  C_9
REMARK    5  A    between atoms: C_9  and  C_10
REMARK    6  A    between atoms: C_14  and  C_15
REMARK                            x       y       z     vdW  Elec       q    Type
REMARK                         _______ _______ _______ _____ _____    ______ ____
ROOT
ATOM      1  C   UNL     1       6.837   6.087  16.661  0.00  0.00    +0.000 C 
ATOM      2  C   UNL     1       7.402   6.333  17.910  0.00  0.00    +0.000 C 
ATOM      3  S   UNL     1       6.935   5.433  19.282  0.00  0.00    +0.000 S 
ATOM      4  C   UNL     1       5.490   4.925  18.302  0.00  0.00    +0.000 C 
ATOM      5  C   UNL     1       6.349   4.727  17.112  0.00  0.00    +0.000 C 
ATOM      6  O   UNL     1       6.265   3.729  16.383  0.00  0.00    +0.000 OA
ENDROOT
BRANCH   1   8
ATOM      7  C   UNL     1       7.239   4.982  14.474  0.00  0.00    +0.000 C 
ATOM      8  C   UNL     1       6.223   5.806  15.359  0.00  0.00    +0.000 C 
ATOM      9  O   UNL     1       5.147   6.322  15.074  0.00  0.00    +0.000 OA
ENDBRANCH   1   8
BRANCH   2  10
ATOM     10  O   UNL     1       8.306   7.406  18.366  0.00  0.00    +0.000 OA
ATOM     11  H   UNL     1       8.015   8.068  19.018  0.00  0.00    +0.000 HD
ENDBRANCH   2  10
BRANCH   4  12
ATOM     12  C   UNL     1       4.228   6.032  18.187  0.00  0.00    +0.000 C 
BRANCH  12  13
ATOM     13  C   UNL     1       3.077   5.567  18.968  0.00  0.00    +0.000 A 
ATOM     14  C   UNL     1       2.447   6.306  19.997  0.00  0.00    +0.000 A 
ATOM     15  C   UNL     1       1.475   5.675  20.734  0.00  0.00    +0.000 A 
ATOM     16  C   UNL     1       1.094   4.372  20.363  0.00  0.00    +0.000 A 
ATOM     17  C   UNL     1       1.700   3.687  19.277  0.00  0.00    +0.000 A 
ATOM     18  C   UNL     1       2.716   4.294  18.608  0.00  0.00    +0.000 A 
BRANCH  17  19
ATOM     19  C   UNL     1       1.396   2.315  18.783  0.00  0.00    +0.000 C 
ATOM     20  F   UNL     1       2.105   2.040  17.645  0.00  0.00    +0.000 F 
ATOM     21  F   UNL     1       1.710   1.361  19.695  0.00  0.00    +0.000 F 
ATOM     22  F   UNL     1       0.085   2.072  18.444  0.00  0.00    +0.000 F 
ENDBRANCH  17  19
ENDBRANCH  12  13
ENDBRANCH   4  12
TORSDOF 5
ENDMDL
MODEL 4
REMARK VINA RESULT:      -7.4      2.270      2.839
REMARK  Name = 
REMARK  6 active torsions:
REMARK  status: ('A' for Active; 'I' for Inactive)
REMARK    1  A    between atoms: C_1  and  C_2
REMARK    2  A    between atoms: C_2  and  C_4
REMARK    3  A    between atoms: C_5  and  O_6
REMARK    4  A    between atoms: C_8  and  C_9
REMARK    5  A    between atoms: C_9  and  C_10
REMARK    6  A    between atoms: C_14  and  C_15
REMARK                            x       y       z     vdW  Elec       q    Type
REMARK                         _______ _______ _______ _____ _____    ______ ____
ROOT
ATOM      1  C   UNL     1       2.180   3.923  19.880  0.00  0.00    +0.000 C 
ATOM      2  C   UNL     1       2.478   5.231  19.503  0.00  0.00    +0.000 C 
ATOM      3  S   UNL     1       2.433   5.709  17.866  0.00  0.00    +0.000 S 
ATOM      4  C   UNL     1       2.466   3.933  17.476  0.00  0.00    +0.000 C 
ATOM      5  C   UNL     1       1.490   3.664  18.558  0.00  0.00    +0.000 C 
ATOM      6  O   UNL     1       0.509   2.923  18.407  0.00  0.00    +0.000 OA
ENDROOT
BRANCH   1   8
ATOM      7  C   UNL     1       1.280   2.512  21.713  0.00  0.00    +0.000 C 
ATOM      8  C   UNL     1       1.864   2.539  20.246  0.00  0.00    +0.000 C 
ATOM      9  O   UNL     1       2.195   1.625  19.498  0.00  0.00    +0.000 OA
ENDBRANCH   1   8
BRANCH   2  10
ATOM     10  O   UNL     1       3.010   6.363  20.284  0.00  0.00    +0.000 OA
ATOM     11  H   UNL     1       3.035   6.338  21.258  0.00  0.00    +0.000 HD
ENDBRANCH   2  10
BRANCH   4  12
ATOM     12  C   UNL     1       3.963   3.169  17.558  0.00  0.00    +0.000 C 
BRANCH  12  13
ATOM     13  C   UNL     1       5.006   4.047  17.017  0.00  0.00    +0.000 A 
ATOM     14  C   UNL     1       5.182   4.343  15.645  0.00  0.00    +0.000 A 
ATOM     15  C   UNL     1       6.294   5.064  15.284  0.00  0.00    +0.000 A 
ATOM     16  C   UNL     1       7.137   5.548  16.301  0.00  0.00    +0.000 A 
ATOM     17  C   UNL     1       6.889   5.291  17.675  0.00  0.00    +0.000 A 
ATOM     18  C   UNL     1       5.829   4.508  18.012  0.00  0.00    +0.000 A 
BRANCH  17  19
ATOM     19  C   UNL     1       7.696   5.737  18.845  0.00  0.00    +0.000 C 
ATOM     20  F   UNL     1       8.229   6.978  18.624  0.00  0.00    +0.000 F 
ATOM     21  F   UNL     1       6.955   5.813  19.979  0.00  0.00    +0.000 F 
ATOM     22  F   UNL     1       8.774   4.947  19.171  0.00  0.00    +0.000 F 
ENDBRANCH  17  19
ENDBRANCH  12  13
ENDBRANCH   4  12
TORSDOF 5
ENDMDL
MODEL 5
REMARK VINA RESULT:      -7.4      4.706      6.685
REMARK  Name = 
REMARK  6 active torsions:
REMARK  status: ('A' for Active; 'I' for Inactive)
REMARK    1  A    between atoms: C_1  and  C_2
REMARK    2  A    between atoms: C_2  and  C_4
REMARK    3  A    between atoms: C_5  and  O_6
REMARK    4  A    between atoms: C_8  and  C_9
REMARK    5  A    between atoms: C_9  and  C_10
REMARK    6  A    between atoms: C_14  and  C_15
REMARK                            x       y       z     vdW  Elec       q    Type
REMARK                         _______ _______ _______ _____ _____    ______ ____
ROOT
ATOM      1  C   UNL     1       5.424   4.136  18.452  0.00  0.00    +0.000 C 
ATOM      2  C   UNL     1       4.624   3.124  18.981  0.00  0.00    +0.000 C 
ATOM      3  S   UNL     1       2.935   3.122  18.745  0.00  0.00    +0.000 S 
ATOM      4  C   UNL     1       3.123   4.867  18.272  0.00  0.00    +0.000 C 
ATOM      5  C   UNL     1       4.333   4.537  17.483  0.00  0.00    +0.000 C 
ATOM      6  O   UNL     1       4.528   4.976  16.341  0.00  0.00    +0.000 OA
ENDROOT
BRANCH   1   8
ATOM      7  C   UNL     1       7.319   4.592  16.914  0.00  0.00    +0.000 C 
ATOM      8  C   UNL     1       6.239   5.215  17.884  0.00  0.00    +0.000 C 
ATOM      9  O   UNL     1       6.101   6.360  18.301  0.00  0.00    +0.000 OA
ENDBRANCH   1   8
BRANCH   2  10
ATOM     10  O   UNL     1       4.948   2.025  19.909  0.00  0.00    +0.000 OA
ATOM     11  H   UNL     1       4.438   1.889  20.728  0.00  0.00    +0.000 HD
ENDBRANCH   2  10
BRANCH   4  12
ATOM     12  C   UNL     1       3.281   5.977  19.527  0.00  0.00    +0.000 C 
BRANCH  12  13
ATOM     13  C   UNL     1       2.511   7.190  19.226  0.00  0.00    +0.000 A 
ATOM     14  C   UNL     1       2.533   7.875  17.989  0.00  0.00    +0.000 A 
ATOM     15  C   UNL     1       1.872   9.076  17.911  0.00  0.00    +0.000 A 
ATOM     16  C   UNL     1       1.133   9.507  19.028  0.00  0.00    +0.000 A 
ATOM     17  C   UNL     1       1.075   8.756  20.232  0.00  0.00    +0.000 A 
ATOM     18  C   UNL     1       1.800   7.609  20.321  0.00  0.00    +0.000 A 
BRANCH  17  19
ATOM     19  C   UNL     1       0.339   9.094  21.481  0.00  0.00    +0.000 C 
ATOM     20  F   UNL     1       1.166   9.019  22.569  0.00  0.00    +0.000 F 
ATOM     21  F   UNL     1      -0.173  10.350  21.450  0.00  0.00    +0.000 F 
ATOM     22  F   UNL     1      -0.724   8.279  21.795  0.00  0.00    +0.000 F 
ENDBRANCH  17  19
ENDBRANCH  12  13
ENDBRANCH   4  12
TORSDOF 5
ENDMDL
MODEL 6
REMARK VINA RESULT:      -7.3      4.189      6.543
REMARK  Name = 
REMARK  6 active torsions:
REMARK  status: ('A' for Active; 'I' for Inactive)
REMARK    1  A    between atoms: C_1  and  C_2
REMARK    2  A    between atoms: C_2  and  C_4
REMARK    3  A    between atoms: C_5  and  O_6
REMARK    4  A    between atoms: C_8  and  C_9
REMARK    5  A    between atoms: C_9  and  C_10
REMARK    6  A    between atoms: C_14  and  C_15
REMARK                            x       y       z     vdW  Elec       q    Type
REMARK                         _______ _______ _______ _____ _____    ______ ____
ROOT
ATOM      1  C   UNL     1       7.145   5.572  17.094  0.00  0.00    +0.000 C 
ATOM      2  C   UNL     1       6.978   5.168  15.770  0.00  0.00    +0.000 C 
ATOM      3  S   UNL     1       5.438   5.172  15.036  0.00  0.00    +0.000 S 
ATOM      4  C   UNL     1       4.770   5.284  16.724  0.00  0.00    +0.000 C 
ATOM      5  C   UNL     1       5.808   6.279  17.083  0.00  0.00    +0.000 C 
ATOM      6  O   UNL     1       5.552   7.318  17.709  0.00  0.00    +0.000 OA
ENDROOT
BRANCH   1   8
ATOM      7  C   UNL     1       8.136   7.334  18.536  0.00  0.00    +0.000 C 
ATOM      8  C   UNL     1       7.291   6.000  18.489  0.00  0.00    +0.000 C 
ATOM      9  O   UNL     1       6.902   5.265  19.390  0.00  0.00    +0.000 OA
ENDBRANCH   1   8
BRANCH   2  10
ATOM     10  O   UNL     1       7.923   4.547  14.824  0.00  0.00    +0.000 OA
ATOM     11  H   UNL     1       7.890   4.748  13.872  0.00  0.00    +0.000 HD
ENDBRANCH   2  10
BRANCH   4  12
ATOM     12  C   UNL     1       4.712   3.854  17.610  0.00  0.00    +0.000 C 
BRANCH  12  13
ATOM     13  C   UNL     1       3.354   3.632  18.117  0.00  0.00    +0.000 A 
ATOM     14  C   UNL     1       2.175   3.722  17.339  0.00  0.00    +0.000 A 
ATOM     15  C   UNL     1       0.970   3.631  17.991  0.00  0.00    +0.000 A 
ATOM     16  C   UNL     1       0.975   3.357  19.371  0.00  0.00    +0.000 A 
ATOM     17  C   UNL     1       2.179   3.201  20.107  0.00  0.00    +0.000 A 
ATOM     18  C   UNL     1       3.364   3.374  19.463  0.00  0.00    +0.000 A 
BRANCH  17  19
ATOM     19  C   UNL     1       2.326   2.914  21.561  0.00  0.00    +0.000 C 
ATOM     20  F   UNL     1       3.410   2.112  21.791  0.00  0.00    +0.000 F 
ATOM     21  F   UNL     1       2.498   4.044  22.291  0.00  0.00    +0.000 F 
ATOM     22  F   UNL     1       1.274   2.257  22.156  0.00  0.00    +0.000 F 
ENDBRANCH  17  19
ENDBRANCH  12  13
ENDBRANCH   4  12
TORSDOF 5
ENDMDL
MODEL 7
REMARK VINA RESULT:      -7.3      4.445      6.558
REMARK  Name = 
REMARK  6 active torsions:
REMARK  status: ('A' for Active; 'I' for Inactive)
REMARK    1  A    between atoms: C_1  and  C_2
REMARK    2  A    between atoms: C_2  and  C_4
REMARK    3  A    between atoms: C_5  and  O_6
REMARK    4  A    between atoms: C_8  and  C_9
REMARK    5  A    between atoms: C_9  and  C_10
REMARK    6  A    between atoms: C_14  and  C_15
REMARK                            x       y       z     vdW  Elec       q    Type
REMARK                         _______ _______ _______ _____ _____    ______ ____
ROOT
ATOM      1  C   UNL     1       7.278   6.398  16.817  0.00  0.00    +0.000 C 
ATOM      2  C   UNL     1       7.793   6.879  18.020  0.00  0.00    +0.000 C 
ATOM      3  S   UNL     1       7.867   5.887  19.406  0.00  0.00    +0.000 S 
ATOM      4  C   UNL     1       6.691   4.803  18.541  0.00  0.00    +0.000 C 
ATOM      5  C   UNL     1       7.448   4.967  17.278  0.00  0.00    +0.000 C 
ATOM      6  O   UNL     1       7.728   4.014  16.537  0.00  0.00    +0.000 OA
ENDROOT
BRANCH   1   8
ATOM      7  C   UNL     1       5.161   6.058  15.565  0.00  0.00    +0.000 C 
ATOM      8  C   UNL     1       6.729   5.865  15.566  0.00  0.00    +0.000 C 
ATOM      9  O   UNL     1       7.462   5.252  14.797  0.00  0.00    +0.000 OA
ENDBRANCH   1   8
BRANCH   2  10
ATOM     10  O   UNL     1       8.198   8.239  18.421  0.00  0.00    +0.000 OA
ATOM     11  H   UNL     1       9.115   8.436  18.685  0.00  0.00    +0.000 HD
ENDBRANCH   2  10
BRANCH   4  12
ATOM     12  C   UNL     1       5.076   5.276  18.558  0.00  0.00    +0.000 C 
BRANCH  12  13
ATOM     13  C   UNL     1       4.206   4.095  18.592  0.00  0.00    +0.000 A 
ATOM     14  C   UNL     1       4.119   3.125  17.566  0.00  0.00    +0.000 A 
ATOM     15  C   UNL     1       3.152   2.158  17.681  0.00  0.00    +0.000 A 
ATOM     16  C   UNL     1       2.372   2.127  18.852  0.00  0.00    +0.000 A 
ATOM     17  C   UNL     1       2.536   3.075  19.895  0.00  0.00    +0.000 A 
ATOM     18  C   UNL     1       3.443   4.075  19.731  0.00  0.00    +0.000 A 
BRANCH  17  19
ATOM     19  C   UNL     1       1.782   3.159  21.177  0.00  0.00    +0.000 C 
ATOM     20  F   UNL     1       2.326   4.106  22.001  0.00  0.00    +0.000 F 
ATOM     21  F   UNL     1       0.481   3.491  20.985  0.00  0.00    +0.000 F 
ATOM     22  F   UNL     1       1.753   2.011  21.935  0.00  0.00    +0.000 F 
ENDBRANCH  17  19
ENDBRANCH  12  13
ENDBRANCH   4  12
TORSDOF 5
ENDMDL
MODEL 8
REMARK VINA RESULT:      -7.3      2.208      3.247
REMARK  Name = 
REMARK  6 active torsions:
REMARK  status: ('A' for Active; 'I' for Inactive)
REMARK    1  A    between atoms: C_1  and  C_2
REMARK    2  A    between atoms: C_2  and  C_4
REMARK    3  A    between atoms: C_5  and  O_6
REMARK    4  A    between atoms: C_8  and  C_9
REMARK    5  A    between atoms: C_9  and  C_10
REMARK    6  A    between atoms: C_14  and  C_15
REMARK                            x       y       z     vdW  Elec       q    Type
REMARK                         _______ _______ _______ _____ _____    ______ ____
ROOT
ATOM      1  C   UNL     1       2.172   4.413  18.803  0.00  0.00    +0.000 C 
ATOM      2  C   UNL     1       1.851   3.057  18.778  0.00  0.00    +0.000 C 
ATOM      3  S   UNL     1       3.060   1.870  18.579  0.00  0.00    +0.000 S 
ATOM      4  C   UNL     1       4.125   3.226  18.004  0.00  0.00    +0.000 C 
ATOM      5  C   UNL     1       3.624   4.099  19.092  0.00  0.00    +0.000 C 
ATOM      6  O   UNL     1       4.373   4.797  19.790  0.00  0.00    +0.000 OA
ENDROOT
BRANCH   1   8
ATOM      7  C   UNL     1       2.042   6.476  20.179  0.00  0.00    +0.000 C 
ATOM      8  C   UNL     1       2.539   5.833  18.825  0.00  0.00    +0.000 C 
ATOM      9  O   UNL     1       3.016   6.349  17.820  0.00  0.00    +0.000 OA
ENDBRANCH   1   8
BRANCH   2  10
ATOM     10  O   UNL     1       0.545   2.375  18.743  0.00  0.00    +0.000 OA
ATOM     11  H   UNL     1      -0.057   2.396  19.508  0.00  0.00    +0.000 HD
ENDBRANCH   2  10
BRANCH   4  12
ATOM     12  C   UNL     1       3.902   3.741  16.417  0.00  0.00    +0.000 C 
BRANCH  12  13
ATOM     13  C   UNL     1       5.188   4.134  15.830  0.00  0.00    +0.000 A 
ATOM     14  C   UNL     1       6.208   4.835  16.515  0.00  0.00    +0.000 A 
ATOM     15  C   UNL     1       7.292   5.259  15.787  0.00  0.00    +0.000 A 
ATOM     16  C   UNL     1       7.374   4.889  14.431  0.00  0.00    +0.000 A 
ATOM     17  C   UNL     1       6.364   4.121  13.795  0.00  0.00    +0.000 A 
ATOM     18  C   UNL     1       5.258   3.778  14.508  0.00  0.00    +0.000 A 
BRANCH  17  19
ATOM     19  C   UNL     1       6.323   3.666  12.377  0.00  0.00    +0.000 C 
ATOM     20  F   UNL     1       7.096   4.471  11.585  0.00  0.00    +0.000 F 
ATOM     21  F   UNL     1       6.783   2.398  12.234  0.00  0.00    +0.000 F 
ATOM     22  F   UNL     1       5.085   3.671  11.777  0.00  0.00    +0.000 F 
ENDBRANCH  17  19
ENDBRANCH  12  13
ENDBRANCH   4  12
TORSDOF 5
ENDMDL
MODEL 9
REMARK VINA RESULT:      -7.3      2.675      4.060
REMARK  Name = 
REMARK  6 active torsions:
REMARK  status: ('A' for Active; 'I' for Inactive)
REMARK    1  A    between atoms: C_1  and  C_2
REMARK    2  A    between atoms: C_2  and  C_4
REMARK    3  A    between atoms: C_5  and  O_6
REMARK    4  A    between atoms: C_8  and  C_9
REMARK    5  A    between atoms: C_9  and  C_10
REMARK    6  A    between atoms: C_14  and  C_15
REMARK                            x       y       z     vdW  Elec       q    Type
REMARK                         _______ _______ _______ _____ _____    ______ ____
ROOT
ATOM      1  C   UNL     1       4.849   5.025  18.955  0.00  0.00    +0.000 C 
ATOM      2  C   UNL     1       6.154   5.514  18.989  0.00  0.00    +0.000 C 
ATOM      3  S   UNL     1       6.779   6.448  17.706  0.00  0.00    +0.000 S 
ATOM      4  C   UNL     1       5.380   5.818  16.730  0.00  0.00    +0.000 C 
ATOM      5  C   UNL     1       4.469   6.021  17.881  0.00  0.00    +0.000 C 
ATOM      6  O   UNL     1       3.352   6.545  17.767  0.00  0.00    +0.000 OA
ENDROOT
BRANCH   1   8
ATOM      7  C   UNL     1       2.658   5.085  20.121  0.00  0.00    +0.000 C 
ATOM      8  C   UNL     1       3.473   4.523  18.890  0.00  0.00    +0.000 C 
ATOM      9  O   UNL     1       3.175   3.682  18.048  0.00  0.00    +0.000 OA
ENDBRANCH   1   8
BRANCH   2  10
ATOM     10  O   UNL     1       7.259   5.250  19.930  0.00  0.00    +0.000 OA
ATOM     11  H   UNL     1       7.113   5.247  20.892  0.00  0.00    +0.000 HD
ENDBRANCH   2  10
BRANCH   4  12
ATOM     12  C   UNL     1       5.530   4.260  16.111  0.00  0.00    +0.000 C 
BRANCH  12  13
ATOM     13  C   UNL     1       6.124   4.307  14.770  0.00  0.00    +0.000 A 
ATOM     14  C   UNL     1       7.380   4.883  14.462  0.00  0.00    +0.000 A 
ATOM     15  C   UNL     1       7.731   4.979  13.138  0.00  0.00    +0.000 A 
ATOM     16  C   UNL     1       6.874   4.415  12.175  0.00  0.00    +0.000 A 
ATOM     17  C   UNL     1       5.654   3.780  12.528  0.00  0.00    +0.000 A 
ATOM     18  C   UNL     1       5.281   3.764  13.836  0.00  0.00    +0.000 A 
BRANCH  17  19
ATOM     19  C   UNL     1       4.659   3.149  11.617  0.00  0.00    +0.000 C 
ATOM     20  F   UNL     1       4.411   3.951  10.536  0.00  0.00    +0.000 F 
ATOM     21  F   UNL     1       5.086   1.953  11.142  0.00  0.00    +0.000 F 
ATOM     22  F   UNL     1       3.419   2.900  12.158  0.00  0.00    +0.000 F 
ENDBRANCH  17  19
ENDBRANCH  12  13
ENDBRANCH   4  12
TORSDOF 5
ENDMDL
