MODEL 1
REMARK VINA RESULT:      -9.0      0.000      0.000
REMARK  Name = 
REMARK  9 active torsions:
REMARK  status: ('A' for Active; 'I' for Inactive)
REMARK    1  A    between atoms: C_1  and  O_2
REMARK    2  A    between atoms: O_2  and  C_3
REMARK    3  A    between atoms: C_6  and  C_7
REMARK    4  A    between atoms: C_9  and  C_10
REMARK    5  A    between atoms: N_12  and  C_13
REMARK    6  A    between atoms: C_17  and  N_18
REMARK    7  A    between atoms: N_18  and  C_19
REMARK    8  A    between atoms: C_23  and  C_24
REMARK    9  A    between atoms: C_25  and  C_26
REMARK                            x       y       z     vdW  Elec       q    Type
REMARK                         _______ _______ _______ _____ _____    ______ ____
ROOT
ATOM      1  C   UNL     1       3.113   5.114  18.215  0.00  0.00    +0.000 A 
ATOM      2  C   UNL     1       2.214   4.056  18.338  0.00  0.00    +0.000 A 
ATOM      3  C   UNL     1       1.271   4.028  19.361  0.00  0.00    +0.000 A 
ATOM      4  C   UNL     1       1.205   5.081  20.269  0.00  0.00    +0.000 A 
ATOM      5  C   UNL     1       2.088   6.164  20.175  0.00  0.00    +0.000 A 
ATOM      6  C   UNL     1       3.043   6.171  19.141  0.00  0.00    +0.000 A 
ENDROOT
BRANCH   1   9
ATOM      7  C   UNL     1       4.753   4.111  16.621  0.00  0.00    +0.000 C 
ATOM      8  O   UNL     1       4.725   2.966  17.063  0.00  0.00    +0.000 OA
ATOM      9  N   UNL     1       4.057   5.191  17.154  0.00  0.00    +0.000 N 
ATOM     10  H   UNL     1       4.229   6.127  16.807  0.00  0.00    +0.000 HD
BRANCH   7  15
ATOM     11  C   UNL     1       5.968   3.651  13.077  0.00  0.00    +0.000 A 
ATOM     12  C   UNL     1       7.079   4.486  13.017  0.00  0.00    +0.000 A 
ATOM     13  C   UNL     1       7.467   5.215  14.145  0.00  0.00    +0.000 A 
ATOM     14  C   UNL     1       6.744   5.126  15.347  0.00  0.00    +0.000 A 
ATOM     15  C   UNL     1       5.604   4.321  15.411  0.00  0.00    +0.000 A 
ATOM     16  C   UNL     1       5.239   3.575  14.268  0.00  0.00    +0.000 A 
BRANCH  11  18
ATOM     17  C   UNL     1       4.282   3.275  11.447  0.00  0.00    +0.000 C 
ATOM     18  O   UNL     1       5.502   2.868  12.059  0.00  0.00    +0.000 OA
ENDBRANCH  11  18
BRANCH  14  19
ATOM     19  C   UNL     1       7.243   5.847  16.477  0.00  0.00    +0.000 C 
ATOM     20  N   UNL     1       7.659   6.374  17.422  0.00  0.00    +0.000 NA
ENDBRANCH  14  19
ENDBRANCH   7  15
ENDBRANCH   1   9
BRANCH   5  21
ATOM     21  N   UNL     1       1.904   7.263  21.039  0.00  0.00    +0.000 N 
ATOM     22  H   UNL     1       2.757   7.507  21.537  0.00  0.00    +0.000 HD
BRANCH  21  23
ATOM     23  C   UNL     1       1.126   8.424  20.844  0.00  0.00    +0.000 A 
ATOM     24  C   UNL     1       0.459   8.951  21.958  0.00  0.00    +0.000 A 
ATOM     25  C   UNL     1      -0.254  10.154  21.890  0.00  0.00    +0.000 A 
ATOM     26  C   UNL     1      -0.255  10.871  20.682  0.00  0.00    +0.000 A 
ATOM     27  C   UNL     1      -0.746  12.133  20.229  0.00  0.00    +0.000 A 
ATOM     28  N   UNL     1      -0.455  12.329  18.933  0.00  0.00    +0.000 NA
ATOM     29  N   UNL     1       0.239  11.237  18.581  0.00  0.00    +0.000 N 
ATOM     30  C   UNL     1       0.413  10.332  19.588  0.00  0.00    +0.000 A 
ATOM     31  C   UNL     1       1.110   9.119  19.628  0.00  0.00    +0.000 A 
ATOM     32  H   UNL     1       0.594  11.172  17.635  0.00  0.00    +0.000 HD
BRANCH  27  33
ATOM     33  C   UNL     1      -1.355  13.130  21.070  0.00  0.00    +0.000 C 
ATOM     34  C   UNL     1      -1.039  13.278  22.367  0.00  0.00    +0.000 C 
BRANCH  34  35
ATOM     35  C   UNL     1      -1.768  14.045  23.385  0.00  0.00    +0.000 A 
ATOM     36  C   UNL     1      -3.169  13.968  23.336  0.00  0.00    +0.000 A 
ATOM     37  C   UNL     1      -3.964  14.713  24.207  0.00  0.00    +0.000 A 
ATOM     38  C   UNL     1      -3.371  15.539  25.151  0.00  0.00    +0.000 A 
ATOM     39  C   UNL     1      -1.979  15.607  25.232  0.00  0.00    +0.000 A 
ATOM     40  C   UNL     1      -1.180  14.864  24.358  0.00  0.00    +0.000 A 
ENDBRANCH  34  35
ENDBRANCH  27  33
ENDBRANCH  21  23
ENDBRANCH   5  21
TORSDOF 8
ENDMDL
MODEL 2
REMARK VINA RESULT:      -8.6      2.437      3.271
REMARK  Name = 
REMARK  9 active torsions:
REMARK  status: ('A' for Active; 'I' for Inactive)
REMARK    1  A    between atoms: C_1  and  O_2
REMARK    2  A    between atoms: O_2  and  C_3
REMARK    3  A    between atoms: C_6  and  C_7
REMARK    4  A    between atoms: C_9  and  C_10
REMARK    5  A    between atoms: N_12  and  C_13
REMARK    6  A    between atoms: C_17  and  N_18
REMARK    7  A    between atoms: N_18  and  C_19
REMARK    8  A    between atoms: C_23  and  C_24
REMARK    9  A    between atoms: C_25  and  C_26
REMARK                            x       y       z     vdW  Elec       q    Type
REMARK                         _______ _______ _______ _____ _____    ______ ____
ROOT
ATOM      1  C   UNL     1       3.119   5.320  18.350  0.00  0.00    +0.000 A 
ATOM      2  C   UNL     1       2.171   4.306  18.476  0.00  0.00    +0.000 A 
ATOM      3  C   UNL     1       1.237   4.316  19.508  0.00  0.00    +0.000 A 
ATOM      4  C   UNL     1       1.231   5.365  20.423  0.00  0.00    +0.000 A 
ATOM      5  C   UNL     1       2.165   6.404  20.327  0.00  0.00    +0.000 A 
ATOM      6  C   UNL     1       3.109   6.372  19.284  0.00  0.00    +0.000 A 
ENDROOT
BRANCH   1   9
ATOM      7  C   UNL     1       4.725   4.255  16.762  0.00  0.00    +0.000 C 
ATOM      8  O   UNL     1       4.678   3.119  17.226  0.00  0.00    +0.000 OA
ATOM      9  N   UNL     1       4.055   5.359  17.281  0.00  0.00    +0.000 N 
ATOM     10  H   UNL     1       4.242   6.285  16.914  0.00  0.00    +0.000 HD
BRANCH   7  15
ATOM     11  C   UNL     1       5.921   3.681  13.229  0.00  0.00    +0.000 A 
ATOM     12  C   UNL     1       7.032   4.513  13.136  0.00  0.00    +0.000 A 
ATOM     13  C   UNL     1       7.425   5.278  14.237  0.00  0.00    +0.000 A 
ATOM     14  C   UNL     1       6.709   5.228  15.446  0.00  0.00    +0.000 A 
ATOM     15  C   UNL     1       5.570   4.426  15.541  0.00  0.00    +0.000 A 
ATOM     16  C   UNL     1       5.198   3.644  14.425  0.00  0.00    +0.000 A 
BRANCH  11  18
ATOM     17  C   UNL     1       4.346   3.353  11.481  0.00  0.00    +0.000 C 
ATOM     18  O   UNL     1       5.450   2.866  12.238  0.00  0.00    +0.000 OA
ENDBRANCH  11  18
BRANCH  14  19
ATOM     19  C   UNL     1       7.215   5.984  16.549  0.00  0.00    +0.000 C 
ATOM     20  N   UNL     1       7.673   6.555  17.448  0.00  0.00    +0.000 NA
ENDBRANCH  14  19
ENDBRANCH   7  15
ENDBRANCH   1   9
BRANCH   5  21
ATOM     21  N   UNL     1       2.043   7.505  21.200  0.00  0.00    +0.000 N 
ATOM     22  H   UNL     1       2.937   7.775  21.605  0.00  0.00    +0.000 HD
BRANCH  21  23
ATOM     23  C   UNL     1       1.218   8.643  21.083  0.00  0.00    +0.000 A 
ATOM     24  C   UNL     1       0.694   8.936  19.816  0.00  0.00    +0.000 A 
ATOM     25  C   UNL     1      -0.215   9.983  19.617  0.00  0.00    +0.000 A 
ATOM     26  C   UNL     1      -0.646  10.723  20.730  0.00  0.00    +0.000 A 
ATOM     27  C   UNL     1      -1.596  11.759  20.977  0.00  0.00    +0.000 A 
ATOM     28  N   UNL     1      -1.605  12.109  22.274  0.00  0.00    +0.000 NA
ATOM     29  N   UNL     1      -0.712  11.288  22.844  0.00  0.00    +0.000 N 
ATOM     30  C   UNL     1      -0.115  10.418  21.978  0.00  0.00    +0.000 A 
ATOM     31  C   UNL     1       0.814   9.393  22.195  0.00  0.00    +0.000 A 
ATOM     32  H   UNL     1      -0.565  11.351  23.844  0.00  0.00    +0.000 HD
BRANCH  27  33
ATOM     33  C   UNL     1      -2.523  12.277  20.004  0.00  0.00    +0.000 C 
ATOM     34  C   UNL     1      -3.825  12.470  20.273  0.00  0.00    +0.000 C 
BRANCH  34  35
ATOM     35  C   UNL     1      -4.910  12.717  19.316  0.00  0.00    +0.000 A 
ATOM     36  C   UNL     1      -4.829  12.031  18.094  0.00  0.00    +0.000 A 
ATOM     37  C   UNL     1      -5.765  12.245  17.082  0.00  0.00    +0.000 A 
ATOM     38  C   UNL     1      -6.807  13.140  17.280  0.00  0.00    +0.000 A 
ATOM     39  C   UNL     1      -6.918  13.811  18.499  0.00  0.00    +0.000 A 
ATOM     40  C   UNL     1      -5.979  13.601  19.513  0.00  0.00    +0.000 A 
ENDBRANCH  34  35
ENDBRANCH  27  33
ENDBRANCH  21  23
ENDBRANCH   5  21
TORSDOF 8
ENDMDL
MODEL 3
REMARK VINA RESULT:      -8.6      5.601     10.708
REMARK  Name = 
REMARK  9 active torsions:
REMARK  status: ('A' for Active; 'I' for Inactive)
REMARK    1  A    between atoms: C_1  and  O_2
REMARK    2  A    between atoms: O_2  and  C_3
REMARK    3  A    between atoms: C_6  and  C_7
REMARK    4  A    between atoms: C_9  and  C_10
REMARK    5  A    between atoms: N_12  and  C_13
REMARK    6  A    between atoms: C_17  and  N_18
REMARK    7  A    between atoms: N_18  and  C_19
REMARK    8  A    between atoms: C_23  and  C_24
REMARK    9  A    between atoms: C_25  and  C_26
REMARK                            x       y       z     vdW  Elec       q    Type
REMARK                         _______ _______ _______ _____ _____    ______ ____
ROOT
ATOM      1  C   UNL     1       2.803  14.822  19.654  0.00  0.00    +0.000 A 
ATOM      2  C   UNL     1       1.988  15.953  19.673  0.00  0.00    +0.000 A 
ATOM      3  C   UNL     1       0.606  15.843  19.795  0.00  0.00    +0.000 A 
ATOM      4  C   UNL     1       0.022  14.585  19.922  0.00  0.00    +0.000 A 
ATOM      5  C   UNL     1       0.808  13.427  19.912  0.00  0.00    +0.000 A 
ATOM      6  C   UNL     1       2.203  13.556  19.776  0.00  0.00    +0.000 A 
ENDROOT
BRANCH   1   9
ATOM      7  C   UNL     1       4.947  15.109  18.407  0.00  0.00    +0.000 C 
ATOM      8  O   UNL     1       4.471  15.136  17.275  0.00  0.00    +0.000 OA
ATOM      9  N   UNL     1       4.221  14.907  19.576  0.00  0.00    +0.000 N 
ATOM     10  H   UNL     1       4.702  14.776  20.458  0.00  0.00    +0.000 HD
BRANCH   7  15
ATOM     11  C   UNL     1       8.622  14.311  18.082  0.00  0.00    +0.000 A 
ATOM     12  C   UNL     1       9.235  15.443  18.611  0.00  0.00    +0.000 A 
ATOM     13  C   UNL     1       8.456  16.495  19.100  0.00  0.00    +0.000 A 
ATOM     14  C   UNL     1       7.053  16.435  19.061  0.00  0.00    +0.000 A 
ATOM     15  C   UNL     1       6.424  15.322  18.498  0.00  0.00    +0.000 A 
ATOM     16  C   UNL     1       7.226  14.259  18.027  0.00  0.00    +0.000 A 
BRANCH  11  18
ATOM     17  C   UNL     1      10.683  13.297  17.479  0.00  0.00    +0.000 C 
ATOM     18  O   UNL     1       9.266  13.207  17.599  0.00  0.00    +0.000 OA
ENDBRANCH  11  18
BRANCH  14  19
ATOM     19  C   UNL     1       6.325  17.519  19.644  0.00  0.00    +0.000 C 
ATOM     20  N   UNL     1       5.769  18.438  20.079  0.00  0.00    +0.000 NA
ENDBRANCH  14  19
ENDBRANCH   7  15
ENDBRANCH   1   9
BRANCH   5  21
ATOM     21  N   UNL     1       0.187  12.187  20.166  0.00  0.00    +0.000 N 
ATOM     22  H   UNL     1      -0.825  12.235  20.062  0.00  0.00    +0.000 HD
BRANCH  21  23
ATOM     23  C   UNL     1       0.630  10.888  19.837  0.00  0.00    +0.000 A 
ATOM     24  C   UNL     1       1.121  10.679  18.541  0.00  0.00    +0.000 A 
ATOM     25  C   UNL     1       1.677   9.455  18.150  0.00  0.00    +0.000 A 
ATOM     26  C   UNL     1       1.788   8.429  19.104  0.00  0.00    +0.000 A 
ATOM     27  C   UNL     1       2.358   7.122  19.153  0.00  0.00    +0.000 A 
ATOM     28  N   UNL     1       2.176   6.559  20.359  0.00  0.00    +0.000 NA
ATOM     29  N   UNL     1       1.541   7.501  21.070  0.00  0.00    +0.000 N 
ATOM     30  C   UNL     1       1.296   8.655  20.384  0.00  0.00    +0.000 A 
ATOM     31  C   UNL     1       0.713   9.862  20.788  0.00  0.00    +0.000 A 
ATOM     32  H   UNL     1       1.317   7.309  22.039  0.00  0.00    +0.000 HD
BRANCH  27  33
ATOM     33  C   UNL     1       3.143   6.525  18.104  0.00  0.00    +0.000 C 
ATOM     34  C   UNL     1       4.280   5.850  18.343  0.00  0.00    +0.000 C 
BRANCH  34  35
ATOM     35  C   UNL     1       5.302   5.444  17.370  0.00  0.00    +0.000 A 
ATOM     36  C   UNL     1       4.952   5.562  16.016  0.00  0.00    +0.000 A 
ATOM     37  C   UNL     1       5.816   5.137  15.007  0.00  0.00    +0.000 A 
ATOM     38  C   UNL     1       7.053   4.599  15.336  0.00  0.00    +0.000 A 
ATOM     39  C   UNL     1       7.428   4.500  16.677  0.00  0.00    +0.000 A 
ATOM     40  C   UNL     1       6.562   4.921  17.689  0.00  0.00    +0.000 A 
ENDBRANCH  34  35
ENDBRANCH  27  33
ENDBRANCH  21  23
ENDBRANCH   5  21
TORSDOF 8
ENDMDL
MODEL 4
REMARK VINA RESULT:      -8.4      1.418      1.529
REMARK  Name = 
REMARK  9 active torsions:
REMARK  status: ('A' for Active; 'I' for Inactive)
REMARK    1  A    between atoms: C_1  and  O_2
REMARK    2  A    between atoms: O_2  and  C_3
REMARK    3  A    between atoms: C_6  and  C_7
REMARK    4  A    between atoms: C_9  and  C_10
REMARK    5  A    between atoms: N_12  and  C_13
REMARK    6  A    between atoms: C_17  and  N_18
REMARK    7  A    between atoms: N_18  and  C_19
REMARK    8  A    between atoms: C_23  and  C_24
REMARK    9  A    between atoms: C_25  and  C_26
REMARK                            x       y       z     vdW  Elec       q    Type
REMARK                         _______ _______ _______ _____ _____    ______ ____
ROOT
ATOM      1  C   UNL     1       2.838   4.199  18.333  0.00  0.00    +0.000 A 
ATOM      2  C   UNL     1       1.890   3.214  18.604  0.00  0.00    +0.000 A 
ATOM      3  C   UNL     1       1.012   3.335  19.678  0.00  0.00    +0.000 A 
ATOM      4  C   UNL     1       1.062   4.468  20.487  0.00  0.00    +0.000 A 
ATOM      5  C   UNL     1       1.998   5.481  20.242  0.00  0.00    +0.000 A 
ATOM      6  C   UNL     1       2.885   5.336  19.160  0.00  0.00    +0.000 A 
ENDROOT
BRANCH   1   9
ATOM      7  C   UNL     1       4.350   5.208  16.621  0.00  0.00    +0.000 C 
ATOM      8  O   UNL     1       4.154   6.386  16.910  0.00  0.00    +0.000 OA
ATOM      9  N   UNL     1       3.717   4.123  17.218  0.00  0.00    +0.000 N 
ATOM     10  H   UNL     1       3.842   3.191  16.839  0.00  0.00    +0.000 HD
BRANCH   7  15
ATOM     11  C   UNL     1       5.729   3.952  13.340  0.00  0.00    +0.000 A 
ATOM     12  C   UNL     1       7.071   4.314  13.407  0.00  0.00    +0.000 A 
ATOM     13  C   UNL     1       7.562   4.971  14.538  0.00  0.00    +0.000 A 
ATOM     14  C   UNL     1       6.717   5.283  15.617  0.00  0.00    +0.000 A 
ATOM     15  C   UNL     1       5.360   4.960  15.548  0.00  0.00    +0.000 A 
ATOM     16  C   UNL     1       4.885   4.277  14.406  0.00  0.00    +0.000 A 
BRANCH  11  18
ATOM     17  C   UNL     1       5.910   2.277  11.666  0.00  0.00    +0.000 C 
ATOM     18  O   UNL     1       5.133   3.284  12.308  0.00  0.00    +0.000 OA
ENDBRANCH  11  18
BRANCH  14  19
ATOM     19  C   UNL     1       7.307   5.893  16.767  0.00  0.00    +0.000 C 
ATOM     20  N   UNL     1       7.789   6.328  17.728  0.00  0.00    +0.000 NA
ENDBRANCH  14  19
ENDBRANCH   7  15
ENDBRANCH   1   9
BRANCH   5  21
ATOM     21  N   UNL     1       1.931   6.661  21.010  0.00  0.00    +0.000 N 
ATOM     22  H   UNL     1       2.810   6.864  21.482  0.00  0.00    +0.000 HD
BRANCH  21  23
ATOM     23  C   UNL     1       1.265   7.871  20.721  0.00  0.00    +0.000 A 
ATOM     24  C   UNL     1       0.399   8.384  21.696  0.00  0.00    +0.000 A 
ATOM     25  C   UNL     1      -0.229   9.627  21.546  0.00  0.00    +0.000 A 
ATOM     26  C   UNL     1       0.061  10.397  20.407  0.00  0.00    +0.000 A 
ATOM     27  C   UNL     1      -0.264  11.702  19.932  0.00  0.00    +0.000 A 
ATOM     28  N   UNL     1       0.306  11.940  18.739  0.00  0.00    +0.000 NA
ATOM     29  N   UNL     1       1.009  10.829  18.482  0.00  0.00    +0.000 N 
ATOM     30  C   UNL     1       0.923   9.871  19.451  0.00  0.00    +0.000 A 
ATOM     31  C   UNL     1       1.540   8.620  19.569  0.00  0.00    +0.000 A 
ATOM     32  H   UNL     1       1.556  10.786  17.630  0.00  0.00    +0.000 HD
BRANCH  27  33
ATOM     33  C   UNL     1      -0.995  12.693  20.679  0.00  0.00    +0.000 C 
ATOM     34  C   UNL     1      -2.197  12.450  21.225  0.00  0.00    +0.000 C 
BRANCH  34  35
ATOM     35  C   UNL     1      -3.155  13.428  21.756  0.00  0.00    +0.000 A 
ATOM     36  C   UNL     1      -3.176  14.682  21.125  0.00  0.00    +0.000 A 
ATOM     37  C   UNL     1      -3.992  15.712  21.592  0.00  0.00    +0.000 A 
ATOM     38  C   UNL     1      -4.813  15.501  22.691  0.00  0.00    +0.000 A 
ATOM     39  C   UNL     1      -4.825  14.252  23.314  0.00  0.00    +0.000 A 
ATOM     40  C   UNL     1      -4.005  13.220  22.850  0.00  0.00    +0.000 A 
ENDBRANCH  34  35
ENDBRANCH  27  33
ENDBRANCH  21  23
ENDBRANCH   5  21
TORSDOF 8
ENDMDL
MODEL 5
REMARK VINA RESULT:      -8.3      4.942     11.653
REMARK  Name = 
REMARK  9 active torsions:
REMARK  status: ('A' for Active; 'I' for Inactive)
REMARK    1  A    between atoms: C_1  and  O_2
REMARK    2  A    between atoms: O_2  and  C_3
REMARK    3  A    between atoms: C_6  and  C_7
REMARK    4  A    between atoms: C_9  and  C_10
REMARK    5  A    between atoms: N_12  and  C_13
REMARK    6  A    between atoms: C_17  and  N_18
REMARK    7  A    between atoms: N_18  and  C_19
REMARK    8  A    between atoms: C_23  and  C_24
REMARK    9  A    between atoms: C_25  and  C_26
REMARK                            x       y       z     vdW  Elec       q    Type
REMARK                         _______ _______ _______ _____ _____    ______ ____
ROOT
ATOM      1  C   UNL     1      -1.119  14.224  21.139  0.00  0.00    +0.000 A 
ATOM      2  C   UNL     1      -1.460  14.727  22.394  0.00  0.00    +0.000 A 
ATOM      3  C   UNL     1      -1.625  13.883  23.488  0.00  0.00    +0.000 A 
ATOM      4  C   UNL     1      -1.428  12.513  23.339  0.00  0.00    +0.000 A 
ATOM      5  C   UNL     1      -1.081  11.970  22.096  0.00  0.00    +0.000 A 
ATOM      6  C   UNL     1      -0.929  12.837  20.998  0.00  0.00    +0.000 A 
ENDROOT
BRANCH   1   9
ATOM      7  C   UNL     1      -0.593  16.421  20.077  0.00  0.00    +0.000 C 
ATOM      8  O   UNL     1      -0.572  17.094  21.105  0.00  0.00    +0.000 OA
ATOM      9  N   UNL     1      -0.900  15.066  20.015  0.00  0.00    +0.000 N 
ATOM     10  H   UNL     1      -1.015  14.612  19.116  0.00  0.00    +0.000 HD
BRANCH   7  15
ATOM     11  C   UNL     1       1.556  17.647  17.226  0.00  0.00    +0.000 A 
ATOM     12  C   UNL     1       0.684  18.456  16.504  0.00  0.00    +0.000 A 
ATOM     13  C   UNL     1      -0.632  18.630  16.941  0.00  0.00    +0.000 A 
ATOM     14  C   UNL     1      -1.098  17.991  18.103  0.00  0.00    +0.000 A 
ATOM     15  C   UNL     1      -0.245  17.146  18.817  0.00  0.00    +0.000 A 
ATOM     16  C   UNL     1       1.087  16.999  18.373  0.00  0.00    +0.000 A 
BRANCH  11  18
ATOM     17  C   UNL     1       3.422  16.186  17.374  0.00  0.00    +0.000 C 
ATOM     18  O   UNL     1       2.868  17.418  16.922  0.00  0.00    +0.000 OA
ENDBRANCH  11  18
BRANCH  14  19
ATOM     19  C   UNL     1      -2.434  18.274  18.525  0.00  0.00    +0.000 C 
ATOM     20  N   UNL     1      -3.494  18.518  18.927  0.00  0.00    +0.000 NA
ENDBRANCH  14  19
ENDBRANCH   7  15
ENDBRANCH   1   9
BRANCH   5  21
ATOM     21  N   UNL     1      -0.772  10.597  22.021  0.00  0.00    +0.000 N 
ATOM     22  H   UNL     1      -1.591  10.010  22.171  0.00  0.00    +0.000 HD
BRANCH  21  23
ATOM     23  C   UNL     1       0.127   9.935  21.158  0.00  0.00    +0.000 A 
ATOM     24  C   UNL     1       0.535   8.642  21.515  0.00  0.00    +0.000 A 
ATOM     25  C   UNL     1       1.343   7.865  20.676  0.00  0.00    +0.000 A 
ATOM     26  C   UNL     1       1.711   8.384  19.423  0.00  0.00    +0.000 A 
ATOM     27  C   UNL     1       2.408   7.909  18.272  0.00  0.00    +0.000 A 
ATOM     28  N   UNL     1       2.472   8.854  17.320  0.00  0.00    +0.000 NA
ATOM     29  N   UNL     1       1.797   9.890  17.837  0.00  0.00    +0.000 N 
ATOM     30  C   UNL     1       1.297   9.669  19.088  0.00  0.00    +0.000 A 
ATOM     31  C   UNL     1       0.511  10.471  19.922  0.00  0.00    +0.000 A 
ATOM     32  H   UNL     1       1.688  10.727  17.277  0.00  0.00    +0.000 HD
BRANCH  27  33
ATOM     33  C   UNL     1       2.869   6.557  18.087  0.00  0.00    +0.000 C 
ATOM     34  C   UNL     1       2.188   5.490  18.536  0.00  0.00    +0.000 C 
BRANCH  34  35
ATOM     35  C   UNL     1       2.670   4.109  18.663  0.00  0.00    +0.000 A 
ATOM     36  C   UNL     1       3.124   3.725  19.934  0.00  0.00    +0.000 A 
ATOM     37  C   UNL     1       3.672   2.460  20.154  0.00  0.00    +0.000 A 
ATOM     38  C   UNL     1       3.762   1.553  19.107  0.00  0.00    +0.000 A 
ATOM     39  C   UNL     1       3.289   1.910  17.842  0.00  0.00    +0.000 A 
ATOM     40  C   UNL     1       2.744   3.177  17.620  0.00  0.00    +0.000 A 
ENDBRANCH  34  35
ENDBRANCH  27  33
ENDBRANCH  21  23
ENDBRANCH   5  21
TORSDOF 8
ENDMDL
MODEL 6
REMARK VINA RESULT:      -8.2      1.444      2.193
REMARK  Name = 
REMARK  9 active torsions:
REMARK  status: ('A' for Active; 'I' for Inactive)
REMARK    1  A    between atoms: C_1  and  O_2
REMARK    2  A    between atoms: O_2  and  C_3
REMARK    3  A    between atoms: C_6  and  C_7
REMARK    4  A    between atoms: C_9  and  C_10
REMARK    5  A    between atoms: N_12  and  C_13
REMARK    6  A    between atoms: C_17  and  N_18
REMARK    7  A    between atoms: N_18  and  C_19
REMARK    8  A    between atoms: C_23  and  C_24
REMARK    9  A    between atoms: C_25  and  C_26
REMARK                            x       y       z     vdW  Elec       q    Type
REMARK                         _______ _______ _______ _____ _____    ______ ____
ROOT
ATOM      1  C   UNL     1       3.779   3.148  18.104  0.00  0.00    +0.000 A 
ATOM      2  C   UNL     1       3.180   1.952  18.496  0.00  0.00    +0.000 A 
ATOM      3  C   UNL     1       2.439   1.870  19.672  0.00  0.00    +0.000 A 
ATOM      4  C   UNL     1       2.272   3.003  20.464  0.00  0.00    +0.000 A 
ATOM      5  C   UNL     1       2.856   4.223  20.100  0.00  0.00    +0.000 A 
ATOM      6  C   UNL     1       3.611   4.285  18.914  0.00  0.00    +0.000 A 
ENDROOT
BRANCH   1   9
ATOM      7  C   UNL     1       4.664   4.452  16.167  0.00  0.00    +0.000 C 
ATOM      8  O   UNL     1       4.116   5.519  16.430  0.00  0.00    +0.000 OA
ATOM      9  N   UNL     1       4.503   3.272  16.886  0.00  0.00    +0.000 N 
ATOM     10  H   UNL     1       4.892   2.406  16.534  0.00  0.00    +0.000 HD
BRANCH   7  15
ATOM     11  C   UNL     1       5.919   3.580  12.716  0.00  0.00    +0.000 A 
ATOM     12  C   UNL     1       7.131   4.259  12.643  0.00  0.00    +0.000 A 
ATOM     13  C   UNL     1       7.575   5.013  13.733  0.00  0.00    +0.000 A 
ATOM     14  C   UNL     1       6.810   5.107  14.908  0.00  0.00    +0.000 A 
ATOM     15  C   UNL     1       5.573   4.461  14.980  0.00  0.00    +0.000 A 
ATOM     16  C   UNL     1       5.150   3.686  13.878  0.00  0.00    +0.000 A 
BRANCH  11  18
ATOM     17  C   UNL     1       6.098   1.594  11.425  0.00  0.00    +0.000 C 
ATOM     18  O   UNL     1       5.388   2.789  11.736  0.00  0.00    +0.000 OA
ENDBRANCH  11  18
BRANCH  14  19
ATOM     19  C   UNL     1       7.363   5.839  16.004  0.00  0.00    +0.000 C 
ATOM     20  N   UNL     1       7.752   6.460  16.902  0.00  0.00    +0.000 NA
ENDBRANCH  14  19
ENDBRANCH   7  15
ENDBRANCH   1   9
BRANCH   5  21
ATOM     21  N   UNL     1       2.559   5.369  20.866  0.00  0.00    +0.000 N 
ATOM     22  H   UNL     1       3.255   5.538  21.590  0.00  0.00    +0.000 HD
BRANCH  21  23
ATOM     23  C   UNL     1       2.010   6.599  20.447  0.00  0.00    +0.000 A 
ATOM     24  C   UNL     1       1.147   7.260  21.331  0.00  0.00    +0.000 A 
ATOM     25  C   UNL     1       0.632   8.531  21.050  0.00  0.00    +0.000 A 
ATOM     26  C   UNL     1       1.037   9.177  19.870  0.00  0.00    +0.000 A 
ATOM     27  C   UNL     1       0.843  10.460  19.276  0.00  0.00    +0.000 A 
ATOM     28  N   UNL     1       1.484  10.551  18.099  0.00  0.00    +0.000 NA
ATOM     29  N   UNL     1       2.104   9.369  17.969  0.00  0.00    +0.000 N 
ATOM     30  C   UNL     1       1.894   8.506  19.005  0.00  0.00    +0.000 A 
ATOM     31  C   UNL     1       2.399   7.225  19.255  0.00  0.00    +0.000 A 
ATOM     32  H   UNL     1       2.683   9.212  17.152  0.00  0.00    +0.000 HD
BRANCH  27  33
ATOM     33  C   UNL     1       0.165  11.565  19.902  0.00  0.00    +0.000 C 
ATOM     34  C   UNL     1       0.709  12.278  20.902  0.00  0.00    +0.000 C 
BRANCH  34  35
ATOM     35  C   UNL     1       0.034  13.224  21.799  0.00  0.00    +0.000 A 
ATOM     36  C   UNL     1       0.532  14.536  21.807  0.00  0.00    +0.000 A 
ATOM     37  C   UNL     1       0.016  15.499  22.674  0.00  0.00    +0.000 A 
ATOM     38  C   UNL     1      -1.018  15.169  23.539  0.00  0.00    +0.000 A 
ATOM     39  C   UNL     1      -1.544  13.876  23.526  0.00  0.00    +0.000 A 
ATOM     40  C   UNL     1      -1.025  12.908  22.661  0.00  0.00    +0.000 A 
ENDBRANCH  34  35
ENDBRANCH  27  33
ENDBRANCH  21  23
ENDBRANCH   5  21
TORSDOF 8
ENDMDL
MODEL 7
REMARK VINA RESULT:      -8.2      1.458      1.592
REMARK  Name = 
REMARK  9 active torsions:
REMARK  status: ('A' for Active; 'I' for Inactive)
REMARK    1  A    between atoms: C_1  and  O_2
REMARK    2  A    between atoms: O_2  and  C_3
REMARK    3  A    between atoms: C_6  and  C_7
REMARK    4  A    between atoms: C_9  and  C_10
REMARK    5  A    between atoms: N_12  and  C_13
REMARK    6  A    between atoms: C_17  and  N_18
REMARK    7  A    between atoms: N_18  and  C_19
REMARK    8  A    between atoms: C_23  and  C_24
REMARK    9  A    between atoms: C_25  and  C_26
REMARK                            x       y       z     vdW  Elec       q    Type
REMARK                         _______ _______ _______ _____ _____    ______ ____
ROOT
ATOM      1  C   UNL     1       3.090   5.022  18.182  0.00  0.00    +0.000 A 
ATOM      2  C   UNL     1       2.194   3.958  18.285  0.00  0.00    +0.000 A 
ATOM      3  C   UNL     1       1.257   3.903  19.312  0.00  0.00    +0.000 A 
ATOM      4  C   UNL     1       1.193   4.935  20.245  0.00  0.00    +0.000 A 
ATOM      5  C   UNL     1       2.073   6.022  20.172  0.00  0.00    +0.000 A 
ATOM      6  C   UNL     1       3.022   6.056  19.133  0.00  0.00    +0.000 A 
ENDROOT
BRANCH   1   9
ATOM      7  C   UNL     1       4.756   4.068  16.586  0.00  0.00    +0.000 C 
ATOM      8  O   UNL     1       4.766   2.924  17.030  0.00  0.00    +0.000 OA
ATOM      9  N   UNL     1       4.028   5.127  17.118  0.00  0.00    +0.000 N 
ATOM     10  H   UNL     1       4.168   6.067  16.768  0.00  0.00    +0.000 HD
BRANCH   7  15
ATOM     11  C   UNL     1       5.961   3.655  13.033  0.00  0.00    +0.000 A 
ATOM     12  C   UNL     1       7.055   4.512  12.972  0.00  0.00    +0.000 A 
ATOM     13  C   UNL     1       7.435   5.241  14.103  0.00  0.00    +0.000 A 
ATOM     14  C   UNL     1       6.721   5.130  15.308  0.00  0.00    +0.000 A 
ATOM     15  C   UNL     1       5.597   4.303  15.372  0.00  0.00    +0.000 A 
ATOM     16  C   UNL     1       5.241   3.557  14.227  0.00  0.00    +0.000 A 
BRANCH  11  18
ATOM     17  C   UNL     1       4.262   3.242  11.425  0.00  0.00    +0.000 C 
ATOM     18  O   UNL     1       5.506   2.869  12.011  0.00  0.00    +0.000 OA
ENDBRANCH  11  18
BRANCH  14  19
ATOM     19  C   UNL     1       7.211   5.853  16.439  0.00  0.00    +0.000 C 
ATOM     20  N   UNL     1       7.667   6.409  17.349  0.00  0.00    +0.000 NA
ENDBRANCH  14  19
ENDBRANCH   7  15
ENDBRANCH   1   9
BRANCH   5  21
ATOM     21  N   UNL     1       1.891   7.099  21.063  0.00  0.00    +0.000 N 
ATOM     22  H   UNL     1       2.701   7.243  21.663  0.00  0.00    +0.000 HD
BRANCH  21  23
ATOM     23  C   UNL     1       1.247   8.335  20.841  0.00  0.00    +0.000 A 
ATOM     24  C   UNL     1       0.733   9.008  21.958  0.00  0.00    +0.000 A 
ATOM     25  C   UNL     1       0.168  10.285  21.855  0.00  0.00    +0.000 A 
ATOM     26  C   UNL     1       0.164  10.922  20.603  0.00  0.00    +0.000 A 
ATOM     27  C   UNL     1      -0.203  12.205  20.098  0.00  0.00    +0.000 A 
ATOM     28  N   UNL     1       0.012  12.286  18.775  0.00  0.00    +0.000 NA
ATOM     29  N   UNL     1       0.541  11.096  18.454  0.00  0.00    +0.000 N 
ATOM     30  C   UNL     1       0.678  10.239  19.507  0.00  0.00    +0.000 A 
ATOM     31  C   UNL     1       1.224   8.952  19.583  0.00  0.00    +0.000 A 
ATOM     32  H   UNL     1       0.814  10.930  17.493  0.00  0.00    +0.000 HD
BRANCH  27  33
ATOM     33  C   UNL     1      -0.623  13.321  20.907  0.00  0.00    +0.000 C 
ATOM     34  C   UNL     1      -1.219  14.408  20.390  0.00  0.00    +0.000 C 
BRANCH  34  35
ATOM     35  C   UNL     1      -1.436  15.705  21.042  0.00  0.00    +0.000 A 
ATOM     36  C   UNL     1      -2.047  16.698  20.261  0.00  0.00    +0.000 A 
ATOM     37  C   UNL     1      -2.235  17.990  20.752  0.00  0.00    +0.000 A 
ATOM     38  C   UNL     1      -1.828  18.307  22.041  0.00  0.00    +0.000 A 
ATOM     39  C   UNL     1      -1.244  17.324  22.842  0.00  0.00    +0.000 A 
ATOM     40  C   UNL     1      -1.051  16.030  22.350  0.00  0.00    +0.000 A 
ENDBRANCH  34  35
ENDBRANCH  27  33
ENDBRANCH  21  23
ENDBRANCH   5  21
TORSDOF 8
ENDMDL
MODEL 8
REMARK VINA RESULT:      -8.2      5.374      7.036
REMARK  Name = 
REMARK  9 active torsions:
REMARK  status: ('A' for Active; 'I' for Inactive)
REMARK    1  A    between atoms: C_1  and  O_2
REMARK    2  A    between atoms: O_2  and  C_3
REMARK    3  A    between atoms: C_6  and  C_7
REMARK    4  A    between atoms: C_9  and  C_10
REMARK    5  A    between atoms: N_12  and  C_13
REMARK    6  A    between atoms: C_17  and  N_18
REMARK    7  A    between atoms: N_18  and  C_19
REMARK    8  A    between atoms: C_23  and  C_24
REMARK    9  A    between atoms: C_25  and  C_26
REMARK                            x       y       z     vdW  Elec       q    Type
REMARK                         _______ _______ _______ _____ _____    ______ ____
ROOT
ATOM      1  C   UNL     1       1.397   8.391  20.482  0.00  0.00    +0.000 A 
ATOM      2  C   UNL     1       0.501   8.056  21.496  0.00  0.00    +0.000 A 
ATOM      3  C   UNL     1      -0.333   9.013  22.067  0.00  0.00    +0.000 A 
ATOM      4  C   UNL     1      -0.291  10.327  21.608  0.00  0.00    +0.000 A 
ATOM      5  C   UNL     1       0.593  10.701  20.588  0.00  0.00    +0.000 A 
ATOM      6  C   UNL     1       1.436   9.722  20.030  0.00  0.00    +0.000 A 
ENDROOT
BRANCH   1   9
ATOM      7  C   UNL     1       2.452   7.336  18.481  0.00  0.00    +0.000 C 
ATOM      8  O   UNL     1       1.884   8.011  17.627  0.00  0.00    +0.000 OA
ATOM      9  N   UNL     1       2.227   7.425  19.850  0.00  0.00    +0.000 N 
ATOM     10  H   UNL     1       2.646   6.750  20.479  0.00  0.00    +0.000 HD
BRANCH   7  15
ATOM     11  C   UNL     1       5.684   6.128  16.951  0.00  0.00    +0.000 A 
ATOM     12  C   UNL     1       5.511   4.748  16.903  0.00  0.00    +0.000 A 
ATOM     13  C   UNL     1       4.320   4.178  17.362  0.00  0.00    +0.000 A 
ATOM     14  C   UNL     1       3.289   4.978  17.883  0.00  0.00    +0.000 A 
ATOM     15  C   UNL     1       3.465   6.360  17.973  0.00  0.00    +0.000 A 
ATOM     16  C   UNL     1       4.665   6.922  17.485  0.00  0.00    +0.000 A 
BRANCH  11  18
ATOM     17  C   UNL     1       7.546   7.497  17.499  0.00  0.00    +0.000 C 
ATOM     18  O   UNL     1       6.784   6.809  16.511  0.00  0.00    +0.000 OA
ENDBRANCH  11  18
BRANCH  14  19
ATOM     19  C   UNL     1       2.074   4.328  18.267  0.00  0.00    +0.000 C 
ATOM     20  N   UNL     1       1.104   3.754  18.536  0.00  0.00    +0.000 NA
ENDBRANCH  14  19
ENDBRANCH   7  15
ENDBRANCH   1   9
BRANCH   5  21
ATOM     21  N   UNL     1       0.514  12.011  20.073  0.00  0.00    +0.000 N 
ATOM     22  H   UNL     1      -0.319  12.501  20.394  0.00  0.00    +0.000 HD
BRANCH  21  23
ATOM     23  C   UNL     1       1.551  12.943  19.855  0.00  0.00    +0.000 A 
ATOM     24  C   UNL     1       2.334  13.312  20.958  0.00  0.00    +0.000 A 
ATOM     25  C   UNL     1       3.448  14.150  20.826  0.00  0.00    +0.000 A 
ATOM     26  C   UNL     1       3.814  14.589  19.542  0.00  0.00    +0.000 A 
ATOM     27  C   UNL     1       4.888  15.335  18.973  0.00  0.00    +0.000 A 
ATOM     28  N   UNL     1       4.739  15.463  17.644  0.00  0.00    +0.000 NA
ATOM     29  N   UNL     1       3.619  14.779  17.370  0.00  0.00    +0.000 N 
ATOM     30  C   UNL     1       3.025  14.213  18.461  0.00  0.00    +0.000 A 
ATOM     31  C   UNL     1       1.893  13.397  18.575  0.00  0.00    +0.000 A 
ATOM     32  H   UNL     1       3.315  14.712  16.407  0.00  0.00    +0.000 HD
BRANCH  27  33
ATOM     33  C   UNL     1       6.052  15.784  19.692  0.00  0.00    +0.000 C 
ATOM     34  C   UNL     1       7.108  14.990  19.932  0.00  0.00    +0.000 C 
BRANCH  34  35
ATOM     35  C   UNL     1       8.211  15.225  20.873  0.00  0.00    +0.000 A 
ATOM     36  C   UNL     1       7.849  15.453  22.209  0.00  0.00    +0.000 A 
ATOM     37  C   UNL     1       8.807  15.761  23.175  0.00  0.00    +0.000 A 
ATOM     38  C   UNL     1      10.148  15.832  22.822  0.00  0.00    +0.000 A 
ATOM     39  C   UNL     1      10.528  15.580  21.503  0.00  0.00    +0.000 A 
ATOM     40  C   UNL     1       9.569  15.276  20.533  0.00  0.00    +0.000 A 
ENDBRANCH  34  35
ENDBRANCH  27  33
ENDBRANCH  21  23
ENDBRANCH   5  21
TORSDOF 8
ENDMDL
MODEL 9
REMARK VINA RESULT:      -8.1      3.927     12.832
REMARK  Name = 
REMARK  9 active torsions:
REMARK  status: ('A' for Active; 'I' for Inactive)
REMARK    1  A    between atoms: C_1  and  O_2
REMARK    2  A    between atoms: O_2  and  C_3
REMARK    3  A    between atoms: C_6  and  C_7
REMARK    4  A    between atoms: C_9  and  C_10
REMARK    5  A    between atoms: N_12  and  C_13
REMARK    6  A    between atoms: C_17  and  N_18
REMARK    7  A    between atoms: N_18  and  C_19
REMARK    8  A    between atoms: C_23  and  C_24
REMARK    9  A    between atoms: C_25  and  C_26
REMARK                            x       y       z     vdW  Elec       q    Type
REMARK                         _______ _______ _______ _____ _____    ______ ____
ROOT
ATOM      1  C   UNL     1      -0.903  11.332  20.075  0.00  0.00    +0.000 A 
ATOM      2  C   UNL     1      -1.342  11.206  18.758  0.00  0.00    +0.000 A 
ATOM      3  C   UNL     1      -0.751  10.296  17.885  0.00  0.00    +0.000 A 
ATOM      4  C   UNL     1       0.284   9.481  18.335  0.00  0.00    +0.000 A 
ATOM      5  C   UNL     1       0.749   9.575  19.652  0.00  0.00    +0.000 A 
ATOM      6  C   UNL     1       0.147  10.508  20.518  0.00  0.00    +0.000 A 
ENDROOT
BRANCH   1   9
ATOM      7  C   UNL     1      -1.646  13.593  20.828  0.00  0.00    +0.000 C 
ATOM      8  O   UNL     1      -1.154  14.238  19.906  0.00  0.00    +0.000 OA
ATOM      9  N   UNL     1      -1.518  12.219  21.000  0.00  0.00    +0.000 N 
ATOM     10  H   UNL     1      -1.851  11.781  21.851  0.00  0.00    +0.000 HD
BRANCH   7  15
ATOM     11  C   UNL     1      -4.714  15.023  22.498  0.00  0.00    +0.000 A 
ATOM     12  C   UNL     1      -4.179  15.812  23.511  0.00  0.00    +0.000 A 
ATOM     13  C   UNL     1      -2.793  15.905  23.666  0.00  0.00    +0.000 A 
ATOM     14  C   UNL     1      -1.922  15.204  22.815  0.00  0.00    +0.000 A 
ATOM     15  C   UNL     1      -2.445  14.378  21.818  0.00  0.00    +0.000 A 
ATOM     16  C   UNL     1      -3.848  14.313  21.662  0.00  0.00    +0.000 A 
BRANCH  11  18
ATOM     17  C   UNL     1      -6.383  14.499  20.891  0.00  0.00    +0.000 C 
ATOM     18  O   UNL     1      -6.044  14.870  22.224  0.00  0.00    +0.000 OA
ENDBRANCH  11  18
BRANCH  14  19
ATOM     19  C   UNL     1      -0.517  15.405  22.990  0.00  0.00    +0.000 C 
ATOM     20  N   UNL     1       0.620  15.525  23.182  0.00  0.00    +0.000 NA
ENDBRANCH  14  19
ENDBRANCH   7  15
ENDBRANCH   1   9
BRANCH   5  21
ATOM     21  N   UNL     1       1.713   8.647  20.097  0.00  0.00    +0.000 N 
ATOM     22  H   UNL     1       1.617   8.438  21.089  0.00  0.00    +0.000 HD
BRANCH  21  23
ATOM     23  C   UNL     1       2.231   7.518  19.428  0.00  0.00    +0.000 A 
ATOM     24  C   UNL     1       2.906   7.734  18.218  0.00  0.00    +0.000 A 
ATOM     25  C   UNL     1       3.543   6.693  17.531  0.00  0.00    +0.000 A 
ATOM     26  C   UNL     1       3.543   5.409  18.103  0.00  0.00    +0.000 A 
ATOM     27  C   UNL     1       4.134   4.145  17.802  0.00  0.00    +0.000 A 
ATOM     28  N   UNL     1       3.797   3.222  18.719  0.00  0.00    +0.000 NA
ATOM     29  N   UNL     1       3.044   3.894  19.601  0.00  0.00    +0.000 N 
ATOM     30  C   UNL     1       2.869   5.214  19.303  0.00  0.00    +0.000 A 
ATOM     31  C   UNL     1       2.205   6.236  19.992  0.00  0.00    +0.000 A 
ATOM     32  H   UNL     1       2.690   3.400  20.412  0.00  0.00    +0.000 HD
BRANCH  27  33
ATOM     33  C   UNL     1       5.075   3.906  16.739  0.00  0.00    +0.000 C 
ATOM     34  C   UNL     1       5.167   4.701  15.660  0.00  0.00    +0.000 C 
BRANCH  34  35
ATOM     35  C   UNL     1       5.867   4.422  14.399  0.00  0.00    +0.000 A 
ATOM     36  C   UNL     1       7.055   5.135  14.178  0.00  0.00    +0.000 A 
ATOM     37  C   UNL     1       7.764   5.005  12.983  0.00  0.00    +0.000 A 
ATOM     38  C   UNL     1       7.301   4.149  11.993  0.00  0.00    +0.000 A 
ATOM     39  C   UNL     1       6.136   3.411  12.208  0.00  0.00    +0.000 A 
ATOM     40  C   UNL     1       5.422   3.543  13.403  0.00  0.00    +0.000 A 
ENDBRANCH  34  35
ENDBRANCH  27  33
ENDBRANCH  21  23
ENDBRANCH   5  21
TORSDOF 8
ENDMDL
