MODEL 1
REMARK VINA RESULT:      -6.7      0.000      0.000
REMARK  Name = 
REMARK  7 active torsions:
REMARK  status: ('A' for Active; 'I' for Inactive)
REMARK    1  A    between atoms: C_1  and  C_2
REMARK    2  A    between atoms: C_2  and  C_3
REMARK    3  A    between atoms: C_2  and  N_19
REMARK    4  A    between atoms: N_6  and  C_7
REMARK    5  A    between atoms: C_7  and  C_8
REMARK    6  A    between atoms: N_11  and  C_12
REMARK    7  A    between atoms: C_13  and  C_14
REMARK                            x       y       z     vdW  Elec       q    Type
REMARK                         _______ _______ _______ _____ _____    ______ ____
ROOT
ATOM      1  C   UNL     1       2.449   3.169  18.704  0.00  0.00    +0.000 C 
ATOM      2  C   UNL     1       1.778   4.145  17.711  0.00  0.00    +0.000 C 
ATOM      3  C   UNL     1       1.928   5.638  18.056  0.00  0.00    +0.000 C 
ATOM      4  N   UNL     1       1.773   6.019  19.465  0.00  0.00    +0.000 NA
ATOM      5  C   UNL     1       2.242   5.011  20.434  0.00  0.00    +0.000 C 
ATOM      6  C   UNL     1       1.903   3.563  20.081  0.00  0.00    +0.000 C 
ENDROOT
BRANCH   1   8
ATOM      7  C   UNL     1       4.624   2.540  19.911  0.00  0.00    +0.000 C 
ATOM      8  C   UNL     1       4.021   3.106  18.612  0.00  0.00    +0.000 C 
BRANCH   8   9
ATOM      9  N   UNL     1       4.629   4.403  18.215  0.00  0.00    +0.000 NA
ATOM     10  C   UNL     1       5.225   4.420  16.870  0.00  0.00    +0.000 C 
ATOM     11  C   UNL     1       6.727   4.326  17.067  0.00  0.00    +0.000 C 
ATOM     12  C   UNL     1       6.952   5.098  18.349  0.00  0.00    +0.000 C 
ATOM     13  C   UNL     1       5.635   4.977  19.124  0.00  0.00    +0.000 C 
ENDBRANCH   8   9
ENDBRANCH   1   8
BRANCH   4  14
ATOM     14  C   UNL     1       2.473   7.297  19.754  0.00  0.00    +0.000 C 
BRANCH  14  15
ATOM     15  C   UNL     1       1.661   8.518  19.438  0.00  0.00    +0.000 A 
ATOM     16  C   UNL     1       1.726   9.250  18.236  0.00  0.00    +0.000 A 
ATOM     17  N   UNL     1       0.794  10.192  18.147  0.00  0.00    +0.000 NA
ATOM     18  N   UNL     1       0.092  10.067  19.300  0.00  0.00    +0.000 N 
ATOM     19  C   UNL     1      -1.116  10.850  19.416  0.00  0.00    +0.000 C 
ATOM     20  C   UNL     1       0.620   9.122  20.148  0.00  0.00    +0.000 A 
BRANCH  20  21
ATOM     21  C   UNL     1       0.211   8.733  21.570  0.00  0.00    +0.000 C 
ATOM     22  C   UNL     1       0.974   9.280  22.759  0.00  0.00    +0.000 C 
ATOM     23  C   UNL     1      -0.429   9.722  22.515  0.00  0.00    +0.000 C 
ENDBRANCH  20  21
ENDBRANCH  14  15
ENDBRANCH   4  14
TORSDOF 5
ENDMDL
MODEL 2
REMARK VINA RESULT:      -6.5      0.990      2.165
REMARK  Name = 
REMARK  7 active torsions:
REMARK  status: ('A' for Active; 'I' for Inactive)
REMARK    1  A    between atoms: C_1  and  C_2
REMARK    2  A    between atoms: C_2  and  C_3
REMARK    3  A    between atoms: C_2  and  N_19
REMARK    4  A    between atoms: N_6  and  C_7
REMARK    5  A    between atoms: C_7  and  C_8
REMARK    6  A    between atoms: N_11  and  C_12
REMARK    7  A    between atoms: C_13  and  C_14
REMARK                            x       y       z     vdW  Elec       q    Type
REMARK                         _______ _______ _______ _____ _____    ______ ____
ROOT
ATOM      1  C   UNL     1       2.418   3.228  18.572  0.00  0.00    +0.000 C 
ATOM      2  C   UNL     1       1.788   4.323  17.680  0.00  0.00    +0.000 C 
ATOM      3  C   UNL     1       1.902   5.759  18.224  0.00  0.00    +0.000 C 
ATOM      4  N   UNL     1       1.670   5.952  19.661  0.00  0.00    +0.000 NA
ATOM      5  C   UNL     1       2.100   4.829  20.513  0.00  0.00    +0.000 C 
ATOM      6  C   UNL     1       1.797   3.437  19.957  0.00  0.00    +0.000 C 
ENDROOT
BRANCH   1   8
ATOM      7  C   UNL     1       4.539   2.591  19.866  0.00  0.00    +0.000 C 
ATOM      8  C   UNL     1       3.993   3.186  18.555  0.00  0.00    +0.000 C 
BRANCH   8   9
ATOM      9  N   UNL     1       4.603   4.500  18.223  0.00  0.00    +0.000 NA
ATOM     10  C   UNL     1       5.349   4.533  16.955  0.00  0.00    +0.000 C 
ATOM     11  C   UNL     1       6.820   4.486  17.325  0.00  0.00    +0.000 C 
ATOM     12  C   UNL     1       6.873   5.266  18.620  0.00  0.00    +0.000 C 
ATOM     13  C   UNL     1       5.480   5.107  19.238  0.00  0.00    +0.000 C 
ENDBRANCH   8   9
ENDBRANCH   1   8
BRANCH   4  14
ATOM     14  C   UNL     1       2.339   7.184  20.150  0.00  0.00    +0.000 C 
BRANCH  14  15
ATOM     15  C   UNL     1       1.388   8.247  20.614  0.00  0.00    +0.000 A 
ATOM     16  C   UNL     1       0.923   8.403  21.935  0.00  0.00    +0.000 A 
ATOM     17  N   UNL     1       0.215   9.513  22.112  0.00  0.00    +0.000 NA
ATOM     18  N   UNL     1       0.229  10.107  20.894  0.00  0.00    +0.000 N 
ATOM     19  C   UNL     1      -0.317  11.442  20.812  0.00  0.00    +0.000 C 
ATOM     20  C   UNL     1       0.858   9.348  19.935  0.00  0.00    +0.000 A 
BRANCH  20  21
ATOM     21  C   UNL     1       1.014   9.585  18.431  0.00  0.00    +0.000 C 
ATOM     22  C   UNL     1       1.954  10.658  17.923  0.00  0.00    +0.000 C 
ATOM     23  C   UNL     1       2.281   9.222  17.694  0.00  0.00    +0.000 C 
ENDBRANCH  20  21
ENDBRANCH  14  15
ENDBRANCH   4  14
TORSDOF 5
ENDMDL
MODEL 3
REMARK VINA RESULT:      -6.2      2.376      7.246
REMARK  Name = 
REMARK  7 active torsions:
REMARK  status: ('A' for Active; 'I' for Inactive)
REMARK    1  A    between atoms: C_1  and  C_2
REMARK    2  A    between atoms: C_2  and  C_3
REMARK    3  A    between atoms: C_2  and  N_19
REMARK    4  A    between atoms: N_6  and  C_7
REMARK    5  A    between atoms: C_7  and  C_8
REMARK    6  A    between atoms: N_11  and  C_12
REMARK    7  A    between atoms: C_13  and  C_14
REMARK                            x       y       z     vdW  Elec       q    Type
REMARK                         _______ _______ _______ _____ _____    ______ ____
ROOT
ATOM      1  C   UNL     1       0.142  10.592  19.479  0.00  0.00    +0.000 C 
ATOM      2  C   UNL     1       0.115   9.469  20.542  0.00  0.00    +0.000 C 
ATOM      3  C   UNL     1       1.252   8.437  20.435  0.00  0.00    +0.000 C 
ATOM      4  N   UNL     1       1.616   7.977  19.090  0.00  0.00    +0.000 NA
ATOM      5  C   UNL     1       1.468   8.990  18.029  0.00  0.00    +0.000 C 
ATOM      6  C   UNL     1       0.218   9.864  18.133  0.00  0.00    +0.000 C 
ENDROOT
BRANCH   1   8
ATOM      7  C   UNL     1       1.064  12.390  21.058  0.00  0.00    +0.000 C 
ATOM      8  C   UNL     1       1.253  11.687  19.701  0.00  0.00    +0.000 C 
BRANCH   8   9
ATOM      9  N   UNL     1       1.356  12.643  18.569  0.00  0.00    +0.000 NA
ATOM     10  C   UNL     1       2.697  12.754  17.974  0.00  0.00    +0.000 C 
ATOM     11  C   UNL     1       3.289  14.051  18.494  0.00  0.00    +0.000 C 
ATOM     12  C   UNL     1       2.084  14.960  18.596  0.00  0.00    +0.000 C 
ATOM     13  C   UNL     1       0.893  14.020  18.809  0.00  0.00    +0.000 C 
ENDBRANCH   8   9
ENDBRANCH   1   8
BRANCH   4  14
ATOM     14  C   UNL     1       3.013   7.474  19.055  0.00  0.00    +0.000 C 
BRANCH  14  15
ATOM     15  C   UNL     1       3.147   6.095  18.480  0.00  0.00    +0.000 A 
ATOM     16  C   UNL     1       3.925   5.754  17.356  0.00  0.00    +0.000 A 
ATOM     17  N   UNL     1       3.997   4.444  17.148  0.00  0.00    +0.000 NA
ATOM     18  N   UNL     1       3.271   3.913  18.161  0.00  0.00    +0.000 N 
ATOM     19  C   UNL     1       3.311   2.477  18.310  0.00  0.00    +0.000 C 
ATOM     20  C   UNL     1       2.673   4.868  18.950  0.00  0.00    +0.000 A 
BRANCH  20  21
ATOM     21  C   UNL     1       1.701   4.714  20.122  0.00  0.00    +0.000 C 
ATOM     22  C   UNL     1       1.056   3.374  20.406  0.00  0.00    +0.000 C 
ATOM     23  C   UNL     1       2.063   3.925  21.358  0.00  0.00    +0.000 C 
ENDBRANCH  20  21
ENDBRANCH  14  15
ENDBRANCH   4  14
TORSDOF 5
ENDMDL
MODEL 4
REMARK VINA RESULT:      -6.2      1.727      3.191
REMARK  Name = 
REMARK  7 active torsions:
REMARK  status: ('A' for Active; 'I' for Inactive)
REMARK    1  A    between atoms: C_1  and  C_2
REMARK    2  A    between atoms: C_2  and  C_3
REMARK    3  A    between atoms: C_2  and  N_19
REMARK    4  A    between atoms: N_6  and  C_7
REMARK    5  A    between atoms: C_7  and  C_8
REMARK    6  A    between atoms: N_11  and  C_12
REMARK    7  A    between atoms: C_13  and  C_14
REMARK                            x       y       z     vdW  Elec       q    Type
REMARK                         _______ _______ _______ _____ _____    ______ ____
ROOT
ATOM      1  C   UNL     1       2.611   5.465  18.452  0.00  0.00    +0.000 C 
ATOM      2  C   UNL     1       2.161   6.831  17.883  0.00  0.00    +0.000 C 
ATOM      3  C   UNL     1       2.047   7.966  18.916  0.00  0.00    +0.000 C 
ATOM      4  N   UNL     1       1.449   7.635  20.215  0.00  0.00    +0.000 NA
ATOM      5  C   UNL     1       1.717   6.264  20.687  0.00  0.00    +0.000 C 
ATOM      6  C   UNL     1       1.648   5.180  19.610  0.00  0.00    +0.000 C 
ENDROOT
BRANCH   1   8
ATOM      7  C   UNL     1       4.956   6.423  18.048  0.00  0.00    +0.000 C 
ATOM      8  C   UNL     1       4.139   5.375  18.826  0.00  0.00    +0.000 C 
BRANCH   8   9
ATOM      9  N   UNL     1       4.688   4.001  18.688  0.00  0.00    +0.000 NA
ATOM     10  C   UNL     1       4.399   3.348  17.401  0.00  0.00    +0.000 C 
ATOM     11  C   UNL     1       3.282   2.356  17.668  0.00  0.00    +0.000 C 
ATOM     12  C   UNL     1       3.578   1.875  19.071  0.00  0.00    +0.000 C 
ATOM     13  C   UNL     1       4.335   3.030  19.737  0.00  0.00    +0.000 C 
ENDBRANCH   8   9
ENDBRANCH   1   8
BRANCH   4  14
ATOM     14  C   UNL     1       1.897   8.580  21.268  0.00  0.00    +0.000 C 
BRANCH  14  15
ATOM     15  C   UNL     1       0.794   9.429  21.830  0.00  0.00    +0.000 A 
ATOM     16  C   UNL     1       0.278   9.331  23.137  0.00  0.00    +0.000 A 
ATOM     17  N   UNL     1      -0.583  10.299  23.432  0.00  0.00    +0.000 NA
ATOM     18  N   UNL     1      -0.620  11.057  22.309  0.00  0.00    +0.000 N 
ATOM     19  C   UNL     1      -1.344  12.304  22.386  0.00  0.00    +0.000 C 
ATOM     20  C   UNL     1       0.134  10.533  21.285  0.00  0.00    +0.000 A 
BRANCH  20  21
ATOM     21  C   UNL     1       0.294  11.001  19.837  0.00  0.00    +0.000 C 
ATOM     22  C   UNL     1      -0.596  10.436  18.750  0.00  0.00    +0.000 C 
ATOM     23  C   UNL     1      -0.744  11.862  19.158  0.00  0.00    +0.000 C 
ENDBRANCH  20  21
ENDBRANCH  14  15
ENDBRANCH   4  14
TORSDOF 5
ENDMDL
MODEL 5
REMARK VINA RESULT:      -6.2      2.081      3.224
REMARK  Name = 
REMARK  7 active torsions:
REMARK  status: ('A' for Active; 'I' for Inactive)
REMARK    1  A    between atoms: C_1  and  C_2
REMARK    2  A    between atoms: C_2  and  C_3
REMARK    3  A    between atoms: C_2  and  N_19
REMARK    4  A    between atoms: N_6  and  C_7
REMARK    5  A    between atoms: C_7  and  C_8
REMARK    6  A    between atoms: N_11  and  C_12
REMARK    7  A    between atoms: C_13  and  C_14
REMARK                            x       y       z     vdW  Elec       q    Type
REMARK                         _______ _______ _______ _____ _____    ______ ____
ROOT
ATOM      1  C   UNL     1       2.823   5.570  19.031  0.00  0.00    +0.000 C 
ATOM      2  C   UNL     1       2.802   6.375  20.351  0.00  0.00    +0.000 C 
ATOM      3  C   UNL     1       1.938   7.649  20.328  0.00  0.00    +0.000 C 
ATOM      4  N   UNL     1       2.004   8.482  19.122  0.00  0.00    +0.000 NA
ATOM      5  C   UNL     1       2.213   7.738  17.866  0.00  0.00    +0.000 C 
ATOM      6  C   UNL     1       3.214   6.585  17.952  0.00  0.00    +0.000 C 
ENDROOT
BRANCH   1   8
ATOM      7  C   UNL     1       0.786   4.378  20.035  0.00  0.00    +0.000 C 
ATOM      8  C   UNL     1       1.507   4.758  18.728  0.00  0.00    +0.000 C 
BRANCH   8   9
ATOM      9  N   UNL     1       1.739   3.590  17.840  0.00  0.00    +0.000 NA
ATOM     10  C   UNL     1       1.510   2.280  18.469  0.00  0.00    +0.000 C 
ATOM     11  C   UNL     1       2.882   1.709  18.777  0.00  0.00    +0.000 C 
ATOM     12  C   UNL     1       3.728   2.213  17.628  0.00  0.00    +0.000 C 
ATOM     13  C   UNL     1       3.048   3.508  17.170  0.00  0.00    +0.000 C 
ENDBRANCH   8   9
ENDBRANCH   1   8
BRANCH   4  14
ATOM     14  C   UNL     1       0.777   9.305  18.971  0.00  0.00    +0.000 C 
BRANCH  14  15
ATOM     15  C   UNL     1       0.840  10.623  19.685  0.00  0.00    +0.000 A 
ATOM     16  C   UNL     1       1.511  11.771  19.217  0.00  0.00    +0.000 A 
ATOM     17  N   UNL     1       1.281  12.849  19.959  0.00  0.00    +0.000 NA
ATOM     18  N   UNL     1       0.432  12.409  20.920  0.00  0.00    +0.000 N 
ATOM     19  C   UNL     1      -0.147  13.409  21.786  0.00  0.00    +0.000 C 
ATOM     20  C   UNL     1       0.193  11.057  20.845  0.00  0.00    +0.000 A 
BRANCH  20  21
ATOM     21  C   UNL     1      -0.610  10.143  21.773  0.00  0.00    +0.000 C 
ATOM     22  C   UNL     1       0.054   9.505  22.976  0.00  0.00    +0.000 C 
ATOM     23  C   UNL     1      -0.981  10.560  23.177  0.00  0.00    +0.000 C 
ENDBRANCH  20  21
ENDBRANCH  14  15
ENDBRANCH   4  14
TORSDOF 5
ENDMDL
MODEL 6
REMARK VINA RESULT:      -6.1      2.118      3.880
REMARK  Name = 
REMARK  7 active torsions:
REMARK  status: ('A' for Active; 'I' for Inactive)
REMARK    1  A    between atoms: C_1  and  C_2
REMARK    2  A    between atoms: C_2  and  C_3
REMARK    3  A    between atoms: C_2  and  N_19
REMARK    4  A    between atoms: N_6  and  C_7
REMARK    5  A    between atoms: C_7  and  C_8
REMARK    6  A    between atoms: N_11  and  C_12
REMARK    7  A    between atoms: C_13  and  C_14
REMARK                            x       y       z     vdW  Elec       q    Type
REMARK                         _______ _______ _______ _____ _____    ______ ____
ROOT
ATOM      1  C   UNL     1       3.683   5.294  19.025  0.00  0.00    +0.000 C 
ATOM      2  C   UNL     1       2.940   6.134  20.090  0.00  0.00    +0.000 C 
ATOM      3  C   UNL     1       2.056   7.265  19.533  0.00  0.00    +0.000 C 
ATOM      4  N   UNL     1       2.598   8.055  18.421  0.00  0.00    +0.000 NA
ATOM      5  C   UNL     1       3.465   7.305  17.494  0.00  0.00    +0.000 C 
ATOM      6  C   UNL     1       4.425   6.317  18.158  0.00  0.00    +0.000 C 
ENDROOT
BRANCH   1   8
ATOM      7  C   UNL     1       1.438   4.947  17.832  0.00  0.00    +0.000 C 
ATOM      8  C   UNL     1       2.774   4.287  18.224  0.00  0.00    +0.000 C 
BRANCH   8   9
ATOM      9  N   UNL     1       2.589   2.990  18.927  0.00  0.00    +0.000 NA
ATOM     10  C   UNL     1       1.218   2.732  19.394  0.00  0.00    +0.000 C 
ATOM     11  C   UNL     1       1.221   2.992  20.890  0.00  0.00    +0.000 C 
ATOM     12  C   UNL     1       2.601   2.540  21.313  0.00  0.00    +0.000 C 
ATOM     13  C   UNL     1       3.477   2.715  20.068  0.00  0.00    +0.000 C 
ENDBRANCH   8   9
ENDBRANCH   1   8
BRANCH   4  14
ATOM     14  C   UNL     1       1.510   8.681  17.628  0.00  0.00    +0.000 C 
BRANCH  14  15
ATOM     15  C   UNL     1       0.786   9.778  18.352  0.00  0.00    +0.000 A 
ATOM     16  C   UNL     1       1.348  10.609  19.343  0.00  0.00    +0.000 A 
ATOM     17  N   UNL     1       0.543  11.599  19.711  0.00  0.00    +0.000 NA
ATOM     18  N   UNL     1      -0.558  11.430  18.940  0.00  0.00    +0.000 N 
ATOM     19  C   UNL     1      -1.553  12.475  18.986  0.00  0.00    +0.000 C 
ATOM     20  C   UNL     1      -0.495  10.301  18.156  0.00  0.00    +0.000 A 
BRANCH  20  21
ATOM     21  C   UNL     1      -1.541   9.685  17.224  0.00  0.00    +0.000 C 
ATOM     22  C   UNL     1      -3.011   9.757  17.578  0.00  0.00    +0.000 C 
ATOM     23  C   UNL     1      -2.492  10.539  16.420  0.00  0.00    +0.000 C 
ENDBRANCH  20  21
ENDBRANCH  14  15
ENDBRANCH   4  14
TORSDOF 5
ENDMDL
MODEL 7
REMARK VINA RESULT:      -6.1      3.513      8.053
REMARK  Name = 
REMARK  7 active torsions:
REMARK  status: ('A' for Active; 'I' for Inactive)
REMARK    1  A    between atoms: C_1  and  C_2
REMARK    2  A    between atoms: C_2  and  C_3
REMARK    3  A    between atoms: C_2  and  N_19
REMARK    4  A    between atoms: N_6  and  C_7
REMARK    5  A    between atoms: C_7  and  C_8
REMARK    6  A    between atoms: N_11  and  C_12
REMARK    7  A    between atoms: C_13  and  C_14
REMARK                            x       y       z     vdW  Elec       q    Type
REMARK                         _______ _______ _______ _____ _____    ______ ____
ROOT
ATOM      1  C   UNL     1       4.324   5.932  18.893  0.00  0.00    +0.000 C 
ATOM      2  C   UNL     1       4.488   6.753  17.593  0.00  0.00    +0.000 C 
ATOM      3  C   UNL     1       5.077   5.981  16.399  0.00  0.00    +0.000 C 
ATOM      4  N   UNL     1       6.196   5.071  16.675  0.00  0.00    +0.000 NA
ATOM      5  C   UNL     1       6.150   4.418  17.996  0.00  0.00    +0.000 C 
ATOM      6  C   UNL     1       5.703   5.316  19.151  0.00  0.00    +0.000 C 
ENDROOT
BRANCH   1   8
ATOM      7  C   UNL     1       1.880   5.521  18.231  0.00  0.00    +0.000 C 
ATOM      8  C   UNL     1       3.132   4.901  18.879  0.00  0.00    +0.000 C 
BRANCH   8   9
ATOM      9  N   UNL     1       2.857   4.318  20.218  0.00  0.00    +0.000 NA
ATOM     10  C   UNL     1       3.234   2.904  20.366  0.00  0.00    +0.000 C 
ATOM     11  C   UNL     1       1.943   2.108  20.287  0.00  0.00    +0.000 C 
ATOM     12  C   UNL     1       0.936   3.023  20.947  0.00  0.00    +0.000 C 
ATOM     13  C   UNL     1       1.482   4.439  20.731  0.00  0.00    +0.000 C 
ENDBRANCH   8   9
ENDBRANCH   1   8
BRANCH   4  14
ATOM     14  C   UNL     1       6.291   4.011  15.640  0.00  0.00    +0.000 C 
BRANCH  14  15
ATOM     15  C   UNL     1       6.759   4.508  14.304  0.00  0.00    +0.000 A 
ATOM     16  C   UNL     1       7.786   5.451  14.101  0.00  0.00    +0.000 A 
ATOM     17  N   UNL     1       8.111   5.602  12.821  0.00  0.00    +0.000 NA
ATOM     18  N   UNL     1       7.298   4.732  12.174  0.00  0.00    +0.000 N 
ATOM     19  C   UNL     1       7.545   4.535  10.764  0.00  0.00    +0.000 C 
ATOM     20  C   UNL     1       6.410   4.102  13.013  0.00  0.00    +0.000 A 
BRANCH  20  21
ATOM     21  C   UNL     1       5.268   3.134  12.697  0.00  0.00    +0.000 C 
ATOM     22  C   UNL     1       4.342   3.403  11.529  0.00  0.00    +0.000 C 
ATOM     23  C   UNL     1       5.287   2.252  11.471  0.00  0.00    +0.000 C 
ENDBRANCH  20  21
ENDBRANCH  14  15
ENDBRANCH   4  14
TORSDOF 5
ENDMDL
MODEL 8
REMARK VINA RESULT:      -6.1      2.504      7.894
REMARK  Name = 
REMARK  7 active torsions:
REMARK  status: ('A' for Active; 'I' for Inactive)
REMARK    1  A    between atoms: C_1  and  C_2
REMARK    2  A    between atoms: C_2  and  C_3
REMARK    3  A    between atoms: C_2  and  N_19
REMARK    4  A    between atoms: N_6  and  C_7
REMARK    5  A    between atoms: C_7  and  C_8
REMARK    6  A    between atoms: N_11  and  C_12
REMARK    7  A    between atoms: C_13  and  C_14
REMARK                            x       y       z     vdW  Elec       q    Type
REMARK                         _______ _______ _______ _____ _____    ______ ____
ROOT
ATOM      1  C   UNL     1      -0.313  10.861  19.831  0.00  0.00    +0.000 C 
ATOM      2  C   UNL     1       0.008   9.642  20.727  0.00  0.00    +0.000 C 
ATOM      3  C   UNL     1       1.192   8.777  20.258  0.00  0.00    +0.000 C 
ATOM      4  N   UNL     1       1.295   8.505  18.819  0.00  0.00    +0.000 NA
ATOM      5  C   UNL     1       0.815   9.594  17.947  0.00  0.00    +0.000 C 
ATOM      6  C   UNL     1      -0.463  10.288  18.418  0.00  0.00    +0.000 C 
ENDROOT
BRANCH   1   8
ATOM      7  C   UNL     1       0.528  12.790  21.298  0.00  0.00    +0.000 C 
ATOM      8  C   UNL     1       0.704  12.059  19.954  0.00  0.00    +0.000 C 
BRANCH   8   9
ATOM      9  N   UNL     1       0.655  12.980  18.789  0.00  0.00    +0.000 NA
ATOM     10  C   UNL     1       1.966  13.317  18.212  0.00  0.00    +0.000 C 
ATOM     11  C   UNL     1       2.297  14.717  18.694  0.00  0.00    +0.000 C 
ATOM     12  C   UNL     1       0.943  15.391  18.743  0.00  0.00    +0.000 C 
ATOM     13  C   UNL     1      -0.059  14.255  18.972  0.00  0.00    +0.000 C 
ENDBRANCH   8   9
ENDBRANCH   1   8
BRANCH   4  14
ATOM     14  C   UNL     1       2.693   8.187  18.432  0.00  0.00    +0.000 C 
BRANCH  14  15
ATOM     15  C   UNL     1       3.000   6.718  18.422  0.00  0.00    +0.000 A 
ATOM     16  C   UNL     1       2.332   5.742  19.188  0.00  0.00    +0.000 A 
ATOM     17  N   UNL     1       2.690   4.501  18.879  0.00  0.00    +0.000 NA
ATOM     18  N   UNL     1       3.594   4.661  17.881  0.00  0.00    +0.000 N 
ATOM     19  C   UNL     1       4.038   3.464  17.205  0.00  0.00    +0.000 C 
ATOM     20  C   UNL     1       3.874   5.981  17.619  0.00  0.00    +0.000 A 
BRANCH  20  21
ATOM     21  C   UNL     1       4.890   6.604  16.659  0.00  0.00    +0.000 C 
ATOM     22  C   UNL     1       6.286   6.941  17.140  0.00  0.00    +0.000 C 
ATOM     23  C   UNL     1       6.089   5.835  16.159  0.00  0.00    +0.000 C 
ENDBRANCH  20  21
ENDBRANCH  14  15
ENDBRANCH   4  14
TORSDOF 5
ENDMDL
MODEL 9
REMARK VINA RESULT:      -6.0      1.304      3.065
REMARK  Name = 
REMARK  7 active torsions:
REMARK  status: ('A' for Active; 'I' for Inactive)
REMARK    1  A    between atoms: C_1  and  C_2
REMARK    2  A    between atoms: C_2  and  C_3
REMARK    3  A    between atoms: C_2  and  N_19
REMARK    4  A    between atoms: N_6  and  C_7
REMARK    5  A    between atoms: C_7  and  C_8
REMARK    6  A    between atoms: N_11  and  C_12
REMARK    7  A    between atoms: C_13  and  C_14
REMARK                            x       y       z     vdW  Elec       q    Type
REMARK                         _______ _______ _______ _____ _____    ______ ____
ROOT
ATOM      1  C   UNL     1       4.521   3.731  17.988  0.00  0.00    +0.000 C 
ATOM      2  C   UNL     1       5.360   4.877  18.602  0.00  0.00    +0.000 C 
ATOM      3  C   UNL     1       4.546   6.011  19.250  0.00  0.00    +0.000 C 
ATOM      4  N   UNL     1       3.345   6.466  18.538  0.00  0.00    +0.000 NA
ATOM      5  C   UNL     1       2.633   5.413  17.791  0.00  0.00    +0.000 C 
ATOM      6  C   UNL     1       3.531   4.424  17.046  0.00  0.00    +0.000 C 
ENDROOT
BRANCH   1   8
ATOM      7  C   UNL     1       3.606   1.373  18.412  0.00  0.00    +0.000 C 
ATOM      8  C   UNL     1       3.863   2.757  19.037  0.00  0.00    +0.000 C 
BRANCH   8   9
ATOM      9  N   UNL     1       2.652   3.331  19.678  0.00  0.00    +0.000 NA
ATOM     10  C   UNL     1       2.836   3.762  21.073  0.00  0.00    +0.000 C 
ATOM     11  C   UNL     1       2.198   2.691  21.938  0.00  0.00    +0.000 C 
ATOM     12  C   UNL     1       1.021   2.233  21.105  0.00  0.00    +0.000 C 
ATOM     13  C   UNL     1       1.429   2.511  19.654  0.00  0.00    +0.000 C 
ENDBRANCH   8   9
ENDBRANCH   1   8
BRANCH   4  14
ATOM     14  C   UNL     1       2.379   7.101  19.470  0.00  0.00    +0.000 C 
BRANCH  14  15
ATOM     15  C   UNL     1       1.947   8.476  19.051  0.00  0.00    +0.000 A 
ATOM     16  C   UNL     1       2.346   9.129  17.867  0.00  0.00    +0.000 A 
ATOM     17  N   UNL     1       1.700  10.270  17.658  0.00  0.00    +0.000 NA
ATOM     18  N   UNL     1       0.849  10.362  18.709  0.00  0.00    +0.000 N 
ATOM     19  C   UNL     1      -0.128  11.424  18.667  0.00  0.00    +0.000 C 
ATOM     20  C   UNL     1       1.011   9.343  19.619  0.00  0.00    +0.000 A 
BRANCH  20  21
ATOM     21  C   UNL     1       0.341   9.115  20.976  0.00  0.00    +0.000 C 
ATOM     22  C   UNL     1       1.159   9.172  22.249  0.00  0.00    +0.000 C 
ATOM     23  C   UNL     1       0.152  10.236  21.970  0.00  0.00    +0.000 C 
ENDBRANCH  20  21
ENDBRANCH  14  15
ENDBRANCH   4  14
TORSDOF 5
ENDMDL
