MODEL 1
REMARK VINA RESULT:      -7.6      0.000      0.000
REMARK  Name = 
REMARK  6 active torsions:
REMARK  status: ('A' for Active; 'I' for Inactive)
REMARK    1  A    between atoms: C_1  and  N_2
REMARK    2  A    between atoms: C_3  and  C_5
REMARK    3  A    between atoms: N_8  and  C_9
REMARK    4  A    between atoms: C_9  and  C_10
REMARK    5  A    between atoms: C_14  and  O_15
REMARK    6  A    between atoms: O_15  and  C_16
REMARK                            x       y       z     vdW  Elec       q    Type
REMARK                         _______ _______ _______ _____ _____    ______ ____
ROOT
ATOM      1  C   UNL     1       1.411   3.506  19.969  0.00  0.00    +0.000 C 
ATOM      2  C   UNL     1       1.557   3.539  18.446  0.00  0.00    +0.000 C 
ATOM      3  C   UNL     1       2.601   4.565  18.001  0.00  0.00    +0.000 C 
ATOM      4  N   UNL     1       2.315   5.922  18.499  0.00  0.00    +0.000 NA
ATOM      5  C   UNL     1       2.174   5.928  19.969  0.00  0.00    +0.000 C 
ATOM      6  C   UNL     1       1.126   4.925  20.464  0.00  0.00    +0.000 C 
ENDROOT
BRANCH   1   9
ATOM      7  C   UNL     1       4.784   1.787  20.353  0.00  0.00    +0.000 C 
ATOM      8  N   UNL     1       3.594   2.403  19.821  0.00  0.00    +0.000 N 
ATOM      9  C   UNL     1       2.636   2.909  20.670  0.00  0.00    +0.000 C 
ATOM     10  O   UNL     1       2.753   2.853  21.891  0.00  0.00    +0.000 OA
ATOM     11  H   UNL     1       3.389   2.302  18.836  0.00  0.00    +0.000 HD
ENDBRANCH   1   9
BRANCH   4  12
ATOM     12  C   UNL     1       3.416   6.821  18.069  0.00  0.00    +0.000 C 
BRANCH  12  13
ATOM     13  C   UNL     1       4.743   6.128  17.892  0.00  0.00    +0.000 A 
ATOM     14  C   UNL     1       5.322   5.389  18.927  0.00  0.00    +0.000 A 
ATOM     15  C   UNL     1       6.507   4.710  18.681  0.00  0.00    +0.000 A 
ATOM     16  N   UNL     1       7.143   4.709  17.489  0.00  0.00    +0.000 NA
ATOM     17  C   UNL     1       6.573   5.436  16.498  0.00  0.00    +0.000 A 
ATOM     18  C   UNL     1       5.404   6.166  16.662  0.00  0.00    +0.000 A 
ATOM     19  F   UNL     1       4.896   6.881  15.647  0.00  0.00    +0.000 F 
BRANCH  17  20
ATOM     20  O   UNL     1       7.167   5.467  15.250  0.00  0.00    +0.000 OA
ATOM     21  C   UNL     1       6.673   4.459  14.375  0.00  0.00    +0.000 C 
ENDBRANCH  17  20
ENDBRANCH  12  13
ENDBRANCH   4  12
TORSDOF 4
ENDMDL
MODEL 2
REMARK VINA RESULT:      -7.4      1.111      1.111
REMARK  Name = 
REMARK  6 active torsions:
REMARK  status: ('A' for Active; 'I' for Inactive)
REMARK    1  A    between atoms: C_1  and  N_2
REMARK    2  A    between atoms: C_3  and  C_5
REMARK    3  A    between atoms: N_8  and  C_9
REMARK    4  A    between atoms: C_9  and  C_10
REMARK    5  A    between atoms: C_14  and  O_15
REMARK    6  A    between atoms: O_15  and  C_16
REMARK                            x       y       z     vdW  Elec       q    Type
REMARK                         _______ _______ _______ _____ _____    ______ ____
ROOT
ATOM      1  C   UNL     1       1.831   3.403  19.303  0.00  0.00    +0.000 C 
ATOM      2  C   UNL     1       1.562   3.958  17.903  0.00  0.00    +0.000 C 
ATOM      3  C   UNL     1       2.645   4.948  17.470  0.00  0.00    +0.000 C 
ATOM      4  N   UNL     1       2.810   6.063  18.420  0.00  0.00    +0.000 NA
ATOM      5  C   UNL     1       3.078   5.563  19.783  0.00  0.00    +0.000 C 
ATOM      6  C   UNL     1       2.009   4.577  20.268  0.00  0.00    +0.000 C 
ENDROOT
BRANCH   1   9
ATOM      7  C   UNL     1       4.909   1.655  20.697  0.00  0.00    +0.000 C 
ATOM      8  N   UNL     1       3.736   2.475  20.534  0.00  0.00    +0.000 N 
ATOM      9  C   UNL     1       3.037   2.460  19.348  0.00  0.00    +0.000 C 
ATOM     10  O   UNL     1       3.383   1.762  18.399  0.00  0.00    +0.000 OA
ATOM     11  H   UNL     1       3.535   3.186  21.226  0.00  0.00    +0.000 HD
ENDBRANCH   1   9
BRANCH   4  12
ATOM     12  C   UNL     1       3.923   6.923  17.943  0.00  0.00    +0.000 C 
BRANCH  12  13
ATOM     13  C   UNL     1       5.161   6.162  17.541  0.00  0.00    +0.000 A 
ATOM     14  C   UNL     1       5.922   5.462  18.481  0.00  0.00    +0.000 A 
ATOM     15  C   UNL     1       7.007   4.718  18.040  0.00  0.00    +0.000 A 
ATOM     16  N   UNL     1       7.377   4.617  16.744  0.00  0.00    +0.000 NA
ATOM     17  C   UNL     1       6.634   5.308  15.846  0.00  0.00    +0.000 A 
ATOM     18  C   UNL     1       5.548   6.098  16.201  0.00  0.00    +0.000 A 
ATOM     19  F   UNL     1       4.860   6.772  15.267  0.00  0.00    +0.000 F 
BRANCH  17  20
ATOM     20  O   UNL     1       6.952   5.238  14.503  0.00  0.00    +0.000 OA
ATOM     21  C   UNL     1       6.387   4.102  13.858  0.00  0.00    +0.000 C 
ENDBRANCH  17  20
ENDBRANCH  12  13
ENDBRANCH   4  12
TORSDOF 4
ENDMDL
MODEL 3
REMARK VINA RESULT:      -7.3      2.040      5.799
REMARK  Name = 
REMARK  6 active torsions:
REMARK  status: ('A' for Active; 'I' for Inactive)
REMARK    1  A    between atoms: C_1  and  N_2
REMARK    2  A    between atoms: C_3  and  C_5
REMARK    3  A    between atoms: N_8  and  C_9
REMARK    4  A    between atoms: C_9  and  C_10
REMARK    5  A    between atoms: C_14  and  O_15
REMARK    6  A    between atoms: O_15  and  C_16
REMARK                            x       y       z     vdW  Elec       q    Type
REMARK                         _______ _______ _______ _____ _____    ______ ____
ROOT
ATOM      1  C   UNL     1       7.102   6.142  17.815  0.00  0.00    +0.000 C 
ATOM      2  C   UNL     1       6.353   5.490  18.979  0.00  0.00    +0.000 C 
ATOM      3  C   UNL     1       4.895   5.196  18.619  0.00  0.00    +0.000 C 
ATOM      4  N   UNL     1       4.165   6.396  18.173  0.00  0.00    +0.000 NA
ATOM      5  C   UNL     1       4.857   7.048  17.044  0.00  0.00    +0.000 C 
ATOM      6  C   UNL     1       6.321   7.377  17.363  0.00  0.00    +0.000 C 
ENDROOT
BRANCH   1   9
ATOM      7  C   UNL     1       6.931   4.754  14.277  0.00  0.00    +0.000 C 
ATOM      8  N   UNL     1       6.801   5.584  15.449  0.00  0.00    +0.000 N 
ATOM      9  C   UNL     1       7.342   5.179  16.648  0.00  0.00    +0.000 C 
ATOM     10  O   UNL     1       7.940   4.114  16.766  0.00  0.00    +0.000 OA
ATOM     11  H   UNL     1       6.165   6.370  15.424  0.00  0.00    +0.000 HD
ENDBRANCH   1   9
BRANCH   4  12
ATOM     12  C   UNL     1       2.789   5.990  17.787  0.00  0.00    +0.000 C 
BRANCH  12  13
ATOM     13  C   UNL     1       2.443   4.567  18.146  0.00  0.00    +0.000 A 
ATOM     14  C   UNL     1       2.802   3.501  17.318  0.00  0.00    +0.000 A 
ATOM     15  C   UNL     1       2.524   2.207  17.737  0.00  0.00    +0.000 A 
ATOM     16  N   UNL     1       1.928   1.906  18.911  0.00  0.00    +0.000 NA
ATOM     17  C   UNL     1       1.579   2.952  19.699  0.00  0.00    +0.000 A 
ATOM     18  C   UNL     1       1.795   4.278  19.348  0.00  0.00    +0.000 A 
ATOM     19  F   UNL     1       1.412   5.272  20.164  0.00  0.00    +0.000 F 
BRANCH  17  20
ATOM     20  O   UNL     1       0.976   2.712  20.920  0.00  0.00    +0.000 OA
ATOM     21  C   UNL     1       1.908   2.629  21.992  0.00  0.00    +0.000 C 
ENDBRANCH  17  20
ENDBRANCH  12  13
ENDBRANCH   4  12
TORSDOF 4
ENDMDL
MODEL 4
REMARK VINA RESULT:      -7.2      2.315      3.147
REMARK  Name = 
REMARK  6 active torsions:
REMARK  status: ('A' for Active; 'I' for Inactive)
REMARK    1  A    between atoms: C_1  and  N_2
REMARK    2  A    between atoms: C_3  and  C_5
REMARK    3  A    between atoms: N_8  and  C_9
REMARK    4  A    between atoms: C_9  and  C_10
REMARK    5  A    between atoms: C_14  and  O_15
REMARK    6  A    between atoms: O_15  and  C_16
REMARK                            x       y       z     vdW  Elec       q    Type
REMARK                         _______ _______ _______ _____ _____    ______ ____
ROOT
ATOM      1  C   UNL     1       1.195   3.389  18.503  0.00  0.00    +0.000 C 
ATOM      2  C   UNL     1       2.001   2.135  18.156  0.00  0.00    +0.000 C 
ATOM      3  C   UNL     1       3.477   2.292  18.528  0.00  0.00    +0.000 C 
ATOM      4  N   UNL     1       4.101   3.470  17.899  0.00  0.00    +0.000 NA
ATOM      5  C   UNL     1       3.351   4.701  18.219  0.00  0.00    +0.000 C 
ATOM      6  C   UNL     1       1.867   4.598  17.849  0.00  0.00    +0.000 C 
ENDROOT
BRANCH   1   9
ATOM      7  C   UNL     1       1.226   2.546  22.212  0.00  0.00    +0.000 C 
ATOM      8  N   UNL     1       1.361   2.496  20.778  0.00  0.00    +0.000 N 
ATOM      9  C   UNL     1       1.032   3.592  20.012  0.00  0.00    +0.000 C 
ATOM     10  O   UNL     1       0.616   4.633  20.511  0.00  0.00    +0.000 OA
ATOM     11  H   UNL     1       1.526   1.603  20.332  0.00  0.00    +0.000 HD
ENDBRANCH   1   9
BRANCH   4  12
ATOM     12  C   UNL     1       5.505   3.566  18.376  0.00  0.00    +0.000 C 
BRANCH  12  13
ATOM     13  C   UNL     1       6.316   4.636  17.691  0.00  0.00    +0.000 A 
ATOM     14  C   UNL     1       6.399   4.705  16.297  0.00  0.00    +0.000 A 
ATOM     15  C   UNL     1       7.099   5.756  15.721  0.00  0.00    +0.000 A 
ATOM     16  N   UNL     1       7.706   6.735  16.427  0.00  0.00    +0.000 NA
ATOM     17  C   UNL     1       7.623   6.650  17.777  0.00  0.00    +0.000 A 
ATOM     18  C   UNL     1       6.966   5.620  18.438  0.00  0.00    +0.000 A 
ATOM     19  F   UNL     1       6.932   5.580  19.779  0.00  0.00    +0.000 F 
BRANCH  17  20
ATOM     20  O   UNL     1       8.213   7.626  18.558  0.00  0.00    +0.000 OA
ATOM     21  C   UNL     1       8.201   8.910  17.943  0.00  0.00    +0.000 C 
ENDBRANCH  17  20
ENDBRANCH  12  13
ENDBRANCH   4  12
TORSDOF 4
ENDMDL
MODEL 5
REMARK VINA RESULT:      -7.1      1.422      2.090
REMARK  Name = 
REMARK  6 active torsions:
REMARK  status: ('A' for Active; 'I' for Inactive)
REMARK    1  A    between atoms: C_1  and  N_2
REMARK    2  A    between atoms: C_3  and  C_5
REMARK    3  A    between atoms: N_8  and  C_9
REMARK    4  A    between atoms: C_9  and  C_10
REMARK    5  A    between atoms: C_14  and  O_15
REMARK    6  A    between atoms: O_15  and  C_16
REMARK                            x       y       z     vdW  Elec       q    Type
REMARK                         _______ _______ _______ _____ _____    ______ ____
ROOT
ATOM      1  C   UNL     1       1.493   3.402  19.901  0.00  0.00    +0.000 C 
ATOM      2  C   UNL     1       1.696   3.415  18.384  0.00  0.00    +0.000 C 
ATOM      3  C   UNL     1       2.715   4.476  17.960  0.00  0.00    +0.000 C 
ATOM      4  N   UNL     1       2.356   5.828  18.423  0.00  0.00    +0.000 NA
ATOM      5  C   UNL     1       2.158   5.853  19.886  0.00  0.00    +0.000 C 
ATOM      6  C   UNL     1       1.132   4.816  20.358  0.00  0.00    +0.000 C 
ENDROOT
BRANCH   1   9
ATOM      7  C   UNL     1       4.916   1.832  20.444  0.00  0.00    +0.000 C 
ATOM      8  N   UNL     1       3.724   2.390  19.856  0.00  0.00    +0.000 N 
ATOM      9  C   UNL     1       2.712   2.867  20.659  0.00  0.00    +0.000 C 
ATOM     10  O   UNL     1       2.783   2.832  21.884  0.00  0.00    +0.000 OA
ATOM     11  H   UNL     1       3.563   2.266  18.865  0.00  0.00    +0.000 HD
ENDBRANCH   1   9
BRANCH   4  12
ATOM     12  C   UNL     1       3.437   6.763  18.019  0.00  0.00    +0.000 C 
BRANCH  12  13
ATOM     13  C   UNL     1       4.672   6.084  17.485  0.00  0.00    +0.000 A 
ATOM     14  C   UNL     1       4.925   6.010  16.113  0.00  0.00    +0.000 A 
ATOM     15  C   UNL     1       6.116   5.440  15.684  0.00  0.00    +0.000 A 
ATOM     16  N   UNL     1       7.062   4.953  16.516  0.00  0.00    +0.000 NA
ATOM     17  C   UNL     1       6.798   5.025  17.843  0.00  0.00    +0.000 A 
ATOM     18  C   UNL     1       5.623   5.555  18.359  0.00  0.00    +0.000 A 
ATOM     19  F   UNL     1       5.411   5.584  19.684  0.00  0.00    +0.000 F 
BRANCH  17  20
ATOM     20  O   UNL     1       7.731   4.555  18.749  0.00  0.00    +0.000 OA
ATOM     21  C   UNL     1       8.258   5.580  19.584  0.00  0.00    +0.000 C 
ENDBRANCH  17  20
ENDBRANCH  12  13
ENDBRANCH   4  12
TORSDOF 4
ENDMDL
MODEL 6
REMARK VINA RESULT:      -7.1      3.142      6.247
REMARK  Name = 
REMARK  6 active torsions:
REMARK  status: ('A' for Active; 'I' for Inactive)
REMARK    1  A    between atoms: C_1  and  N_2
REMARK    2  A    between atoms: C_3  and  C_5
REMARK    3  A    between atoms: N_8  and  C_9
REMARK    4  A    between atoms: C_9  and  C_10
REMARK    5  A    between atoms: C_14  and  O_15
REMARK    6  A    between atoms: O_15  and  C_16
REMARK                            x       y       z     vdW  Elec       q    Type
REMARK                         _______ _______ _______ _____ _____    ______ ____
ROOT
ATOM      1  C   UNL     1       6.859   4.332  16.588  0.00  0.00    +0.000 C 
ATOM      2  C   UNL     1       5.447   3.892  16.983  0.00  0.00    +0.000 C 
ATOM      3  C   UNL     1       4.436   5.030  16.827  0.00  0.00    +0.000 C 
ATOM      4  N   UNL     1       4.810   6.233  17.593  0.00  0.00    +0.000 NA
ATOM      5  C   UNL     1       6.166   6.690  17.232  0.00  0.00    +0.000 C 
ATOM      6  C   UNL     1       7.220   5.586  17.387  0.00  0.00    +0.000 C 
ENDROOT
BRANCH   1   9
ATOM      7  C   UNL     1       6.422   3.759  12.853  0.00  0.00    +0.000 C 
ATOM      8  N   UNL     1       6.341   3.664  14.289  0.00  0.00    +0.000 N 
ATOM      9  C   UNL     1       7.008   4.570  15.082  0.00  0.00    +0.000 C 
ATOM     10  O   UNL     1       7.688   5.474  14.607  0.00  0.00    +0.000 OA
ATOM     11  H   UNL     1       5.941   2.833  14.703  0.00  0.00    +0.000 HD
ENDBRANCH   1   9
BRANCH   4  12
ATOM     12  C   UNL     1       3.805   7.292  17.321  0.00  0.00    +0.000 C 
BRANCH  12  13
ATOM     13  C   UNL     1       2.841   7.532  18.455  0.00  0.00    +0.000 A 
ATOM     14  C   UNL     1       2.685   6.603  19.486  0.00  0.00    +0.000 A 
ATOM     15  C   UNL     1       1.840   6.913  20.542  0.00  0.00    +0.000 A 
ATOM     16  N   UNL     1       1.156   8.073  20.646  0.00  0.00    +0.000 NA
ATOM     17  C   UNL     1       1.312   8.961  19.635  0.00  0.00    +0.000 A 
ATOM     18  C   UNL     1       2.116   8.723  18.527  0.00  0.00    +0.000 A 
ATOM     19  F   UNL     1       2.218   9.635  17.548  0.00  0.00    +0.000 F 
BRANCH  17  20
ATOM     20  O   UNL     1       0.649  10.174  19.684  0.00  0.00    +0.000 OA
ATOM     21  C   UNL     1       0.279  10.549  21.006  0.00  0.00    +0.000 C 
ENDBRANCH  17  20
ENDBRANCH  12  13
ENDBRANCH   4  12
TORSDOF 4
ENDMDL
MODEL 7
REMARK VINA RESULT:      -6.9      2.719      6.090
REMARK  Name = 
REMARK  6 active torsions:
REMARK  status: ('A' for Active; 'I' for Inactive)
REMARK    1  A    between atoms: C_1  and  N_2
REMARK    2  A    between atoms: C_3  and  C_5
REMARK    3  A    between atoms: N_8  and  C_9
REMARK    4  A    between atoms: C_9  and  C_10
REMARK    5  A    between atoms: C_14  and  O_15
REMARK    6  A    between atoms: O_15  and  C_16
REMARK                            x       y       z     vdW  Elec       q    Type
REMARK                         _______ _______ _______ _____ _____    ______ ____
ROOT
ATOM      1  C   UNL     1       7.057   5.279  17.692  0.00  0.00    +0.000 C 
ATOM      2  C   UNL     1       6.256   4.415  16.716  0.00  0.00    +0.000 C 
ATOM      3  C   UNL     1       4.754   4.691  16.819  0.00  0.00    +0.000 C 
ATOM      4  N   UNL     1       4.233   4.505  18.185  0.00  0.00    +0.000 NA
ATOM      5  C   UNL     1       4.981   5.330  19.154  0.00  0.00    +0.000 C 
ATOM      6  C   UNL     1       6.492   5.077  19.100  0.00  0.00    +0.000 C 
ENDROOT
BRANCH   1   9
ATOM      7  C   UNL     1       7.982   8.966  17.824  0.00  0.00    +0.000 C 
ATOM      8  N   UNL     1       7.901   7.548  18.067  0.00  0.00    +0.000 N 
ATOM      9  C   UNL     1       7.067   6.761  17.305  0.00  0.00    +0.000 C 
ATOM     10  O   UNL     1       6.372   7.228  16.408  0.00  0.00    +0.000 OA
ATOM     11  H   UNL     1       8.320   7.170  18.907  0.00  0.00    +0.000 HD
ENDBRANCH   1   9
BRANCH   4  12
ATOM     12  C   UNL     1       2.791   4.860  18.188  0.00  0.00    +0.000 C 
BRANCH  12  13
ATOM     13  C   UNL     1       2.509   6.289  18.579  0.00  0.00    +0.000 A 
ATOM     14  C   UNL     1       2.587   7.326  17.646  0.00  0.00    +0.000 A 
ATOM     15  C   UNL     1       2.243   8.610  18.045  0.00  0.00    +0.000 A 
ATOM     16  N   UNL     1       1.824   8.926  19.290  0.00  0.00    +0.000 NA
ATOM     17  C   UNL     1       1.762   7.911  20.185  0.00  0.00    +0.000 A 
ATOM     18  C   UNL     1       2.112   6.602  19.880  0.00  0.00    +0.000 A 
ATOM     19  F   UNL     1       2.045   5.641  20.814  0.00  0.00    +0.000 F 
BRANCH  17  20
ATOM     20  O   UNL     1       1.330   8.165  21.474  0.00  0.00    +0.000 OA
ATOM     21  C   UNL     1       0.054   8.794  21.517  0.00  0.00    +0.000 C 
ENDBRANCH  17  20
ENDBRANCH  12  13
ENDBRANCH   4  12
TORSDOF 4
ENDMDL
MODEL 8
REMARK VINA RESULT:      -6.9      2.917      6.319
REMARK  Name = 
REMARK  6 active torsions:
REMARK  status: ('A' for Active; 'I' for Inactive)
REMARK    1  A    between atoms: C_1  and  N_2
REMARK    2  A    between atoms: C_3  and  C_5
REMARK    3  A    between atoms: N_8  and  C_9
REMARK    4  A    between atoms: C_9  and  C_10
REMARK    5  A    between atoms: C_14  and  O_15
REMARK    6  A    between atoms: O_15  and  C_16
REMARK                            x       y       z     vdW  Elec       q    Type
REMARK                         _______ _______ _______ _____ _____    ______ ____
ROOT
ATOM      1  C   UNL     1       7.011   5.066  17.097  0.00  0.00    +0.000 C 
ATOM      2  C   UNL     1       6.012   4.141  17.798  0.00  0.00    +0.000 C 
ATOM      3  C   UNL     1       4.567   4.579  17.551  0.00  0.00    +0.000 C 
ATOM      4  N   UNL     1       4.318   5.974  17.957  0.00  0.00    +0.000 NA
ATOM      5  C   UNL     1       5.261   6.896  17.293  0.00  0.00    +0.000 C 
ATOM      6  C   UNL     1       6.725   6.507  17.525  0.00  0.00    +0.000 C 
ENDROOT
BRANCH   1   9
ATOM      7  C   UNL     1       5.988   3.732  13.684  0.00  0.00    +0.000 C 
ATOM      8  N   UNL     1       6.092   3.985  15.099  0.00  0.00    +0.000 N 
ATOM      9  C   UNL     1       6.983   4.923  15.572  0.00  0.00    +0.000 C 
ATOM     10  O   UNL     1       7.712   5.564  14.821  0.00  0.00    +0.000 OA
ATOM     11  H   UNL     1       5.641   3.351  15.745  0.00  0.00    +0.000 HD
ENDBRANCH   1   9
BRANCH   4  12
ATOM     12  C   UNL     1       2.913   6.317  17.615  0.00  0.00    +0.000 C 
BRANCH  12  13
ATOM     13  C   UNL     1       2.375   7.516  18.352  0.00  0.00    +0.000 A 
ATOM     14  C   UNL     1       2.130   8.724  17.695  0.00  0.00    +0.000 A 
ATOM     15  C   UNL     1       1.562   9.770  18.409  0.00  0.00    +0.000 A 
ATOM     16  N   UNL     1       1.218   9.694  19.713  0.00  0.00    +0.000 NA
ATOM     17  C   UNL     1       1.468   8.518  20.338  0.00  0.00    +0.000 A 
ATOM     18  C   UNL     1       2.057   7.429  19.709  0.00  0.00    +0.000 A 
ATOM     19  F   UNL     1       2.295   6.295  20.386  0.00  0.00    +0.000 F 
BRANCH  17  20
ATOM     20  O   UNL     1       1.129   8.370  21.671  0.00  0.00    +0.000 OA
ATOM     21  C   UNL     1      -0.265   8.534  21.909  0.00  0.00    +0.000 C 
ENDBRANCH  17  20
ENDBRANCH  12  13
ENDBRANCH   4  12
TORSDOF 4
ENDMDL
MODEL 9
REMARK VINA RESULT:      -6.9      1.710      2.937
REMARK  Name = 
REMARK  6 active torsions:
REMARK  status: ('A' for Active; 'I' for Inactive)
REMARK    1  A    between atoms: C_1  and  N_2
REMARK    2  A    between atoms: C_3  and  C_5
REMARK    3  A    between atoms: N_8  and  C_9
REMARK    4  A    between atoms: C_9  and  C_10
REMARK    5  A    between atoms: C_14  and  O_15
REMARK    6  A    between atoms: O_15  and  C_16
REMARK                            x       y       z     vdW  Elec       q    Type
REMARK                         _______ _______ _______ _____ _____    ______ ____
ROOT
ATOM      1  C   UNL     1       2.916   2.202  20.351  0.00  0.00    +0.000 C 
ATOM      2  C   UNL     1       4.347   2.453  19.869  0.00  0.00    +0.000 C 
ATOM      3  C   UNL     1       4.390   3.488  18.743  0.00  0.00    +0.000 C 
ATOM      4  N   UNL     1       3.541   3.119  17.596  0.00  0.00    +0.000 NA
ATOM      5  C   UNL     1       2.149   2.875  18.025  0.00  0.00    +0.000 C 
ATOM      6  C   UNL     1       2.053   1.831  19.144  0.00  0.00    +0.000 C 
ENDROOT
BRANCH   1   9
ATOM      7  C   UNL     1       1.589   5.718  20.941  0.00  0.00    +0.000 C 
ATOM      8  N   UNL     1       2.114   4.516  20.342  0.00  0.00    +0.000 N 
ATOM      9  C   UNL     1       2.327   3.394  21.110  0.00  0.00    +0.000 C 
ATOM     10  O   UNL     1       2.087   3.375  22.314  0.00  0.00    +0.000 OA
ATOM     11  H   UNL     1       2.486   4.560  19.402  0.00  0.00    +0.000 HD
ENDBRANCH   1   9
BRANCH   4  12
ATOM     12  C   UNL     1       3.602   4.215  16.596  0.00  0.00    +0.000 C 
BRANCH  12  13
ATOM     13  C   UNL     1       4.999   4.691  16.289  0.00  0.00    +0.000 A 
ATOM     14  C   UNL     1       5.841   3.973  15.435  0.00  0.00    +0.000 A 
ATOM     15  C   UNL     1       7.088   4.500  15.129  0.00  0.00    +0.000 A 
ATOM     16  N   UNL     1       7.545   5.680  15.601  0.00  0.00    +0.000 NA
ATOM     17  C   UNL     1       6.720   6.361  16.433  0.00  0.00    +0.000 A 
ATOM     18  C   UNL     1       5.467   5.897  16.813  0.00  0.00    +0.000 A 
ATOM     19  F   UNL     1       4.701   6.609  17.655  0.00  0.00    +0.000 F 
BRANCH  17  20
ATOM     20  O   UNL     1       7.123   7.582  16.942  0.00  0.00    +0.000 OA
ATOM     21  C   UNL     1       7.947   7.457  18.096  0.00  0.00    +0.000 C 
ENDBRANCH  17  20
ENDBRANCH  12  13
ENDBRANCH   4  12
TORSDOF 4
ENDMDL
