MODEL 1
REMARK VINA RESULT:      -8.5      0.000      0.000
REMARK  Name = 
REMARK  7 active torsions:
REMARK  status: ('A' for Active; 'I' for Inactive)
REMARK    1  A    between atoms: C_2  and  C_3
REMARK    2  A    between atoms: C_5  and  S_6
REMARK    3  A    between atoms: S_6  and  N_9
REMARK    4  A    between atoms: C_19  and  O_20
REMARK    5  A    between atoms: O_20  and  C_21
REMARK    6  A    between atoms: C_24  and  C_25
REMARK    7  A    between atoms: C_25  and  O_26
REMARK                            x       y       z     vdW  Elec       q    Type
REMARK                         _______ _______ _______ _____ _____    ______ ____
ROOT
ATOM      1  C   UNL     1       0.965   8.753  20.788  0.00  0.00    +0.000 A 
ATOM      2  C   UNL     1       1.513   7.462  20.725  0.00  0.00    +0.000 A 
ATOM      3  C   UNL     1       2.165   7.025  19.570  0.00  0.00    +0.000 A 
ATOM      4  C   UNL     1       2.240   7.850  18.448  0.00  0.00    +0.000 A 
ATOM      5  C   UNL     1       1.726   9.149  18.520  0.00  0.00    +0.000 A 
ATOM      6  C   UNL     1       1.124   9.625  19.698  0.00  0.00    +0.000 A 
ENDROOT
BRANCH   3   7
ATOM      7  S   UNL     1       2.813   5.361  19.516  0.00  0.00    +0.000 S 
ATOM      8  O   UNL     1       2.618   4.780  20.829  0.00  0.00    +0.000 OA
ATOM      9  O   UNL     1       2.272   4.734  18.331  0.00  0.00    +0.000 OA
BRANCH   7  10
ATOM     10  N   UNL     1       4.459   5.575  19.246  0.00  0.00    +0.000 N 
ATOM     11  C   UNL     1       4.904   5.449  17.921  0.00  0.00    +0.000 A 
ATOM     12  C   UNL     1       4.779   6.470  16.989  0.00  0.00    +0.000 A 
ATOM     13  C   UNL     1       5.255   6.239  15.699  0.00  0.00    +0.000 A 
ATOM     14  C   UNL     1       5.806   5.003  15.402  0.00  0.00    +0.000 A 
ATOM     15  F   UNL     1       6.278   4.743  14.177  0.00  0.00    +0.000 F 
ATOM     16  C   UNL     1       5.862   4.038  16.394  0.00  0.00    +0.000 A 
ATOM     17  N   UNL     1       5.417   4.233  17.662  0.00  0.00    +0.000 NA
ATOM     18  H   UNL     1       4.999   4.986  19.876  0.00  0.00    +0.000 HD
ENDBRANCH   7  10
ENDBRANCH   3   7
BRANCH   1  20
ATOM     19  N   UNL     1      -0.291   9.417  22.960  0.00  0.00    +0.000 NA
ATOM     20  C   UNL     1       0.251   9.086  21.987  0.00  0.00    +0.000 C 
ENDBRANCH   1  20
BRANCH   6  21
ATOM     21  O   UNL     1       0.659  10.921  19.598  0.00  0.00    +0.000 OA
BRANCH  21  22
ATOM     22  C   UNL     1      -0.625  11.184  19.179  0.00  0.00    +0.000 A 
ATOM     23  C   UNL     1      -1.510  12.046  19.821  0.00  0.00    +0.000 A 
ATOM     24  C   UNL     1      -2.839  12.115  19.397  0.00  0.00    +0.000 A 
ATOM     25  C   UNL     1      -3.284  11.395  18.274  0.00  0.00    +0.000 A 
ATOM     26  C   UNL     1      -2.344  10.645  17.553  0.00  0.00    +0.000 A 
ATOM     27 CL   UNL     1      -2.749   9.815  16.094  0.00  0.00    +0.000 Cl
ATOM     28  C   UNL     1      -1.026  10.535  18.009  0.00  0.00    +0.000 A 
BRANCH  25  29
ATOM     29  C   UNL     1      -4.747  11.470  17.917  0.00  0.00    +0.000 C 
BRANCH  29  30
ATOM     30  O   UNL     1      -4.961  12.434  16.888  0.00  0.00    +0.000 OA
ATOM     31  H   UNL     1      -4.220  12.370  16.259  0.00  0.00    +0.000 HD
ENDBRANCH  29  30
ENDBRANCH  25  29
ENDBRANCH  21  22
ENDBRANCH   6  21
TORSDOF 7
ENDMDL
MODEL 2
REMARK VINA RESULT:      -8.5      1.192      1.488
REMARK  Name = 
REMARK  7 active torsions:
REMARK  status: ('A' for Active; 'I' for Inactive)
REMARK    1  A    between atoms: C_2  and  C_3
REMARK    2  A    between atoms: C_5  and  S_6
REMARK    3  A    between atoms: S_6  and  N_9
REMARK    4  A    between atoms: C_19  and  O_20
REMARK    5  A    between atoms: O_20  and  C_21
REMARK    6  A    between atoms: C_24  and  C_25
REMARK    7  A    between atoms: C_25  and  O_26
REMARK                            x       y       z     vdW  Elec       q    Type
REMARK                         _______ _______ _______ _____ _____    ______ ____
ROOT
ATOM      1  C   UNL     1       1.127   8.687  20.380  0.00  0.00    +0.000 A 
ATOM      2  C   UNL     1       1.803   7.458  20.327  0.00  0.00    +0.000 A 
ATOM      3  C   UNL     1       2.399   7.029  19.139  0.00  0.00    +0.000 A 
ATOM      4  C   UNL     1       2.292   7.795  17.979  0.00  0.00    +0.000 A 
ATOM      5  C   UNL     1       1.648   9.036  18.038  0.00  0.00    +0.000 A 
ATOM      6  C   UNL     1       1.099   9.510  19.242  0.00  0.00    +0.000 A 
ENDROOT
BRANCH   3   7
ATOM      7  S   UNL     1       3.215   5.440  19.104  0.00  0.00    +0.000 S 
ATOM      8  O   UNL     1       3.141   4.887  20.441  0.00  0.00    +0.000 OA
ATOM      9  O   UNL     1       2.690   4.720  17.965  0.00  0.00    +0.000 OA
BRANCH   7  10
ATOM     10  N   UNL     1       4.815   5.813  18.748  0.00  0.00    +0.000 N 
ATOM     11  C   UNL     1       5.261   5.519  17.450  0.00  0.00    +0.000 A 
ATOM     12  C   UNL     1       4.993   6.339  16.362  0.00  0.00    +0.000 A 
ATOM     13  C   UNL     1       5.482   5.952  15.115  0.00  0.00    +0.000 A 
ATOM     14  C   UNL     1       6.189   4.764  15.016  0.00  0.00    +0.000 A 
ATOM     15  F   UNL     1       6.679   4.359  13.838  0.00  0.00    +0.000 F 
ATOM     16  C   UNL     1       6.382   4.000  16.155  0.00  0.00    +0.000 A 
ATOM     17  N   UNL     1       5.928   4.353  17.385  0.00  0.00    +0.000 NA
ATOM     18  H   UNL     1       5.435   5.417  19.450  0.00  0.00    +0.000 HD
ENDBRANCH   7  10
ENDBRANCH   3   7
BRANCH   1  20
ATOM     19  N   UNL     1      -0.042   9.338  22.603  0.00  0.00    +0.000 NA
ATOM     20  C   UNL     1       0.483   9.009  21.621  0.00  0.00    +0.000 C 
ENDBRANCH   1  20
BRANCH   6  21
ATOM     21  O   UNL     1       0.491  10.745  19.125  0.00  0.00    +0.000 OA
BRANCH  21  22
ATOM     22  C   UNL     1      -0.829  10.852  18.753  0.00  0.00    +0.000 A 
ATOM     23  C   UNL     1      -1.409  10.186  17.676  0.00  0.00    +0.000 A 
ATOM     24  C   UNL     1      -2.718  10.492  17.297  0.00  0.00    +0.000 A 
ATOM     25  C   UNL     1      -3.498  11.399  18.037  0.00  0.00    +0.000 A 
ATOM     26  C   UNL     1      -2.947  11.949  19.202  0.00  0.00    +0.000 A 
ATOM     27 CL   UNL     1      -3.849  12.982  20.252  0.00  0.00    +0.000 Cl
ATOM     28  C   UNL     1      -1.618  11.683  19.552  0.00  0.00    +0.000 A 
BRANCH  25  29
ATOM     29  C   UNL     1      -4.879  11.726  17.528  0.00  0.00    +0.000 C 
BRANCH  29  30
ATOM     30  O   UNL     1      -5.847  10.863  18.121  0.00  0.00    +0.000 OA
ATOM     31  H   UNL     1      -5.525  10.614  19.006  0.00  0.00    +0.000 HD
ENDBRANCH  29  30
ENDBRANCH  25  29
ENDBRANCH  21  22
ENDBRANCH   6  21
TORSDOF 7
ENDMDL
MODEL 3
REMARK VINA RESULT:      -8.3      4.567      8.243
REMARK  Name = 
REMARK  7 active torsions:
REMARK  status: ('A' for Active; 'I' for Inactive)
REMARK    1  A    between atoms: C_2  and  C_3
REMARK    2  A    between atoms: C_5  and  S_6
REMARK    3  A    between atoms: S_6  and  N_9
REMARK    4  A    between atoms: C_19  and  O_20
REMARK    5  A    between atoms: O_20  and  C_21
REMARK    6  A    between atoms: C_24  and  C_25
REMARK    7  A    between atoms: C_25  and  O_26
REMARK                            x       y       z     vdW  Elec       q    Type
REMARK                         _______ _______ _______ _____ _____    ______ ____
ROOT
ATOM      1  C   UNL     1       0.802   9.404  20.570  0.00  0.00    +0.000 A 
ATOM      2  C   UNL     1      -0.204  10.308  20.194  0.00  0.00    +0.000 A 
ATOM      3  C   UNL     1      -0.496  10.522  18.845  0.00  0.00    +0.000 A 
ATOM      4  C   UNL     1       0.240   9.874  17.853  0.00  0.00    +0.000 A 
ATOM      5  C   UNL     1       1.219   8.947  18.225  0.00  0.00    +0.000 A 
ATOM      6  C   UNL     1       1.480   8.673  19.579  0.00  0.00    +0.000 A 
ENDROOT
BRANCH   3   7
ATOM      7  S   UNL     1      -1.756  11.711  18.409  0.00  0.00    +0.000 S 
ATOM      8  O   UNL     1      -2.652  11.065  17.471  0.00  0.00    +0.000 OA
ATOM      9  O   UNL     1      -2.246  12.281  19.644  0.00  0.00    +0.000 OA
BRANCH   7  10
ATOM     10  N   UNL     1      -0.908  12.926  17.614  0.00  0.00    +0.000 N 
ATOM     11  C   UNL     1       0.029  13.644  18.372  0.00  0.00    +0.000 A 
ATOM     12  C   UNL     1       1.300  13.157  18.649  0.00  0.00    +0.000 A 
ATOM     13  C   UNL     1       2.153  13.952  19.413  0.00  0.00    +0.000 A 
ATOM     14  C   UNL     1       1.690  15.172  19.877  0.00  0.00    +0.000 A 
ATOM     15  F   UNL     1       2.479  15.967  20.610  0.00  0.00    +0.000 F 
ATOM     16  C   UNL     1       0.396  15.560  19.570  0.00  0.00    +0.000 A 
ATOM     17  N   UNL     1      -0.457  14.815  18.821  0.00  0.00    +0.000 NA
ATOM     18  H   UNL     1      -1.553  13.550  17.135  0.00  0.00    +0.000 HD
ENDBRANCH   7  10
ENDBRANCH   3   7
BRANCH   1  20
ATOM     19  N   UNL     1       1.328   9.294  23.108  0.00  0.00    +0.000 NA
ATOM     20  C   UNL     1       1.082   9.305  21.973  0.00  0.00    +0.000 C 
ENDBRANCH   1  20
BRANCH   6  21
ATOM     21  O   UNL     1       2.483   7.744  19.773  0.00  0.00    +0.000 OA
BRANCH  21  22
ATOM     22  C   UNL     1       2.303   6.424  19.431  0.00  0.00    +0.000 A 
ATOM     23  C   UNL     1       2.432   5.912  18.143  0.00  0.00    +0.000 A 
ATOM     24  C   UNL     1       2.073   4.587  17.886  0.00  0.00    +0.000 A 
ATOM     25  C   UNL     1       1.665   3.728  18.922  0.00  0.00    +0.000 A 
ATOM     26  C   UNL     1       1.680   4.220  20.234  0.00  0.00    +0.000 A 
ATOM     27 CL   UNL     1       1.311   3.226  21.598  0.00  0.00    +0.000 Cl
ATOM     28  C   UNL     1       1.989   5.562  20.484  0.00  0.00    +0.000 A 
BRANCH  25  29
ATOM     29  C   UNL     1       1.231   2.331  18.556  0.00  0.00    +0.000 C 
BRANCH  29  30
ATOM     30  O   UNL     1       2.024   1.827  17.483  0.00  0.00    +0.000 OA
ATOM     31  H   UNL     1       1.914   0.860  17.459  0.00  0.00    +0.000 HD
ENDBRANCH  29  30
ENDBRANCH  25  29
ENDBRANCH  21  22
ENDBRANCH   6  21
TORSDOF 7
ENDMDL
MODEL 4
REMARK VINA RESULT:      -8.1      1.441      1.884
REMARK  Name = 
REMARK  7 active torsions:
REMARK  status: ('A' for Active; 'I' for Inactive)
REMARK    1  A    between atoms: C_2  and  C_3
REMARK    2  A    between atoms: C_5  and  S_6
REMARK    3  A    between atoms: S_6  and  N_9
REMARK    4  A    between atoms: C_19  and  O_20
REMARK    5  A    between atoms: O_20  and  C_21
REMARK    6  A    between atoms: C_24  and  C_25
REMARK    7  A    between atoms: C_25  and  O_26
REMARK                            x       y       z     vdW  Elec       q    Type
REMARK                         _______ _______ _______ _____ _____    ______ ____
ROOT
ATOM      1  C   UNL     1       1.131   8.753  20.405  0.00  0.00    +0.000 A 
ATOM      2  C   UNL     1       1.819   7.530  20.381  0.00  0.00    +0.000 A 
ATOM      3  C   UNL     1       2.475   7.110  19.222  0.00  0.00    +0.000 A 
ATOM      4  C   UNL     1       2.417   7.879  18.060  0.00  0.00    +0.000 A 
ATOM      5  C   UNL     1       1.761   9.114  18.092  0.00  0.00    +0.000 A 
ATOM      6  C   UNL     1       1.151   9.580  19.270  0.00  0.00    +0.000 A 
ENDROOT
BRANCH   3   7
ATOM      7  S   UNL     1       3.304   5.527  19.220  0.00  0.00    +0.000 S 
ATOM      8  O   UNL     1       4.701   5.772  19.517  0.00  0.00    +0.000 OA
ATOM      9  O   UNL     1       2.511   4.633  20.033  0.00  0.00    +0.000 OA
BRANCH   7  10
ATOM     10  N   UNL     1       3.163   4.997  17.631  0.00  0.00    +0.000 N 
ATOM     11  C   UNL     1       4.347   4.915  16.883  0.00  0.00    +0.000 A 
ATOM     12  C   UNL     1       5.230   3.850  16.993  0.00  0.00    +0.000 A 
ATOM     13  C   UNL     1       6.380   3.868  16.204  0.00  0.00    +0.000 A 
ATOM     14  C   UNL     1       6.597   4.953  15.368  0.00  0.00    +0.000 A 
ATOM     15  F   UNL     1       7.685   5.007  14.590  0.00  0.00    +0.000 F 
ATOM     16  C   UNL     1       5.669   5.981  15.348  0.00  0.00    +0.000 A 
ATOM     17  N   UNL     1       4.536   5.989  16.096  0.00  0.00    +0.000 NA
ATOM     18  H   UNL     1       2.452   5.535  17.142  0.00  0.00    +0.000 HD
ENDBRANCH   7  10
ENDBRANCH   3   7
BRANCH   1  20
ATOM     19  N   UNL     1      -0.155   9.250  22.604  0.00  0.00    +0.000 NA
ATOM     20  C   UNL     1       0.426   9.067  21.615  0.00  0.00    +0.000 C 
ENDBRANCH   1  20
BRANCH   6  21
ATOM     21  O   UNL     1       0.539  10.810  19.127  0.00  0.00    +0.000 OA
BRANCH  21  22
ATOM     22  C   UNL     1      -0.806  10.906  18.858  0.00  0.00    +0.000 A 
ATOM     23  C   UNL     1      -1.478  10.166  17.887  0.00  0.00    +0.000 A 
ATOM     24  C   UNL     1      -2.811  10.459  17.594  0.00  0.00    +0.000 A 
ATOM     25  C   UNL     1      -3.522  11.429  18.322  0.00  0.00    +0.000 A 
ATOM     26  C   UNL     1      -2.872  12.061  19.392  0.00  0.00    +0.000 A 
ATOM     27 CL   UNL     1      -3.678  13.184  20.428  0.00  0.00    +0.000 Cl
ATOM     28  C   UNL     1      -1.521  11.806  19.651  0.00  0.00    +0.000 A 
BRANCH  25  29
ATOM     29  C   UNL     1      -4.938  11.734  17.904  0.00  0.00    +0.000 C 
BRANCH  29  30
ATOM     30  O   UNL     1      -5.161  11.318  16.559  0.00  0.00    +0.000 OA
ATOM     31  H   UNL     1      -4.854  10.398  16.474  0.00  0.00    +0.000 HD
ENDBRANCH  29  30
ENDBRANCH  25  29
ENDBRANCH  21  22
ENDBRANCH   6  21
TORSDOF 7
ENDMDL
MODEL 5
REMARK VINA RESULT:      -8.1      0.926      1.225
REMARK  Name = 
REMARK  7 active torsions:
REMARK  status: ('A' for Active; 'I' for Inactive)
REMARK    1  A    between atoms: C_2  and  C_3
REMARK    2  A    between atoms: C_5  and  S_6
REMARK    3  A    between atoms: S_6  and  N_9
REMARK    4  A    between atoms: C_19  and  O_20
REMARK    5  A    between atoms: O_20  and  C_21
REMARK    6  A    between atoms: C_24  and  C_25
REMARK    7  A    between atoms: C_25  and  O_26
REMARK                            x       y       z     vdW  Elec       q    Type
REMARK                         _______ _______ _______ _____ _____    ______ ____
ROOT
ATOM      1  C   UNL     1       0.981   8.885  20.712  0.00  0.00    +0.000 A 
ATOM      2  C   UNL     1       1.599   7.629  20.610  0.00  0.00    +0.000 A 
ATOM      3  C   UNL     1       2.237   7.248  19.428  0.00  0.00    +0.000 A 
ATOM      4  C   UNL     1       2.230   8.092  18.318  0.00  0.00    +0.000 A 
ATOM      5  C   UNL     1       1.646   9.358  18.428  0.00  0.00    +0.000 A 
ATOM      6  C   UNL     1       1.056   9.781  19.632  0.00  0.00    +0.000 A 
ENDROOT
BRANCH   3   7
ATOM      7  S   UNL     1       2.976   5.624  19.326  0.00  0.00    +0.000 S 
ATOM      8  O   UNL     1       4.368   5.759  19.704  0.00  0.00    +0.000 OA
ATOM      9  O   UNL     1       2.095   4.714  20.023  0.00  0.00    +0.000 OA
BRANCH   7  10
ATOM     10  N   UNL     1       2.882   5.238  17.692  0.00  0.00    +0.000 N 
ATOM     11  C   UNL     1       4.096   5.016  17.023  0.00  0.00    +0.000 A 
ATOM     12  C   UNL     1       4.787   3.814  17.106  0.00  0.00    +0.000 A 
ATOM     13  C   UNL     1       5.985   3.700  16.402  0.00  0.00    +0.000 A 
ATOM     14  C   UNL     1       6.439   4.789  15.676  0.00  0.00    +0.000 A 
ATOM     15  F   UNL     1       7.582   4.719  14.983  0.00  0.00    +0.000 F 
ATOM     16  C   UNL     1       5.691   5.955  15.678  0.00  0.00    +0.000 A 
ATOM     17  N   UNL     1       4.517   6.097  16.343  0.00  0.00    +0.000 NA
ATOM     18  H   UNL     1       2.309   5.919  17.201  0.00  0.00    +0.000 HD
ENDBRANCH   7  10
ENDBRANCH   3   7
BRANCH   1  20
ATOM     19  N   UNL     1      -0.270   9.312  22.944  0.00  0.00    +0.000 NA
ATOM     20  C   UNL     1       0.287   9.159  21.937  0.00  0.00    +0.000 C 
ENDBRANCH   1  20
BRANCH   6  21
ATOM     21  O   UNL     1       0.515  11.050  19.568  0.00  0.00    +0.000 OA
BRANCH  21  22
ATOM     22  C   UNL     1      -0.779  11.250  19.145  0.00  0.00    +0.000 A 
ATOM     23  C   UNL     1      -1.696  12.096  19.763  0.00  0.00    +0.000 A 
ATOM     24  C   UNL     1      -3.027  12.100  19.341  0.00  0.00    +0.000 A 
ATOM     25  C   UNL     1      -3.446  11.329  18.242  0.00  0.00    +0.000 A 
ATOM     26  C   UNL     1      -2.479  10.595  17.542  0.00  0.00    +0.000 A 
ATOM     27 CL   UNL     1      -2.854   9.705  16.110  0.00  0.00    +0.000 Cl
ATOM     28  C   UNL     1      -1.156  10.550  17.997  0.00  0.00    +0.000 A 
BRANCH  25  29
ATOM     29  C   UNL     1      -4.911  11.337  17.888  0.00  0.00    +0.000 C 
BRANCH  29  30
ATOM     30  O   UNL     1      -5.263  12.559  17.243  0.00  0.00    +0.000 OA
ATOM     31  H   UNL     1      -6.219  12.699  17.367  0.00  0.00    +0.000 HD
ENDBRANCH  29  30
ENDBRANCH  25  29
ENDBRANCH  21  22
ENDBRANCH   6  21
TORSDOF 7
ENDMDL
MODEL 6
REMARK VINA RESULT:      -8.0      3.024      4.005
REMARK  Name = 
REMARK  7 active torsions:
REMARK  status: ('A' for Active; 'I' for Inactive)
REMARK    1  A    between atoms: C_2  and  C_3
REMARK    2  A    between atoms: C_5  and  S_6
REMARK    3  A    between atoms: S_6  and  N_9
REMARK    4  A    between atoms: C_19  and  O_20
REMARK    5  A    between atoms: O_20  and  C_21
REMARK    6  A    between atoms: C_24  and  C_25
REMARK    7  A    between atoms: C_25  and  O_26
REMARK                            x       y       z     vdW  Elec       q    Type
REMARK                         _______ _______ _______ _____ _____    ______ ____
ROOT
ATOM      1  C   UNL     1       0.931   9.101  21.261  0.00  0.00    +0.000 A 
ATOM      2  C   UNL     1       1.458   7.808  21.113  0.00  0.00    +0.000 A 
ATOM      3  C   UNL     1       1.895   7.361  19.865  0.00  0.00    +0.000 A 
ATOM      4  C   UNL     1       1.770   8.175  18.740  0.00  0.00    +0.000 A 
ATOM      5  C   UNL     1       1.276   9.475  18.890  0.00  0.00    +0.000 A 
ATOM      6  C   UNL     1       0.893   9.963  20.152  0.00  0.00    +0.000 A 
ENDROOT
BRANCH   3   7
ATOM      7  S   UNL     1       2.523   5.695  19.712  0.00  0.00    +0.000 S 
ATOM      8  O   UNL     1       2.271   5.022  20.971  0.00  0.00    +0.000 OA
ATOM      9  O   UNL     1       2.019   5.165  18.465  0.00  0.00    +0.000 OA
BRANCH   7  10
ATOM     10  N   UNL     1       4.180   5.902  19.518  0.00  0.00    +0.000 N 
ATOM     11  C   UNL     1       4.690   5.745  18.221  0.00  0.00    +0.000 A 
ATOM     12  C   UNL     1       4.613   6.745  17.260  0.00  0.00    +0.000 A 
ATOM     13  C   UNL     1       5.151   6.485  16.000  0.00  0.00    +0.000 A 
ATOM     14  C   UNL     1       5.714   5.242  15.760  0.00  0.00    +0.000 A 
ATOM     15  F   UNL     1       6.246   4.953  14.565  0.00  0.00    +0.000 F 
ATOM     16  C   UNL     1       5.720   4.300  16.776  0.00  0.00    +0.000 A 
ATOM     17  N   UNL     1       5.214   4.524  18.015  0.00  0.00    +0.000 NA
ATOM     18  H   UNL     1       4.688   5.328  20.187  0.00  0.00    +0.000 HD
ENDBRANCH   7  10
ENDBRANCH   3   7
BRANCH   1  20
ATOM     19  N   UNL     1       0.082   9.786  23.616  0.00  0.00    +0.000 NA
ATOM     20  C   UNL     1       0.440   9.446  22.564  0.00  0.00    +0.000 C 
ENDBRANCH   1  20
BRANCH   6  21
ATOM     21  O   UNL     1       0.417  11.259  20.124  0.00  0.00    +0.000 OA
BRANCH  21  22
ATOM     22  C   UNL     1       1.220  12.300  19.721  0.00  0.00    +0.000 A 
ATOM     23  C   UNL     1       1.220  12.857  18.444  0.00  0.00    +0.000 A 
ATOM     24  C   UNL     1       2.187  13.804  18.102  0.00  0.00    +0.000 A 
ATOM     25  C   UNL     1       3.111  14.278  19.051  0.00  0.00    +0.000 A 
ATOM     26  C   UNL     1       3.003  13.814  20.369  0.00  0.00    +0.000 A 
ATOM     27 CL   UNL     1       4.007  14.410  21.642  0.00  0.00    +0.000 Cl
ATOM     28  C   UNL     1       2.069  12.826  20.698  0.00  0.00    +0.000 A 
BRANCH  25  29
ATOM     29  C   UNL     1       4.164  15.252  18.589  0.00  0.00    +0.000 C 
BRANCH  29  30
ATOM     30  O   UNL     1       4.965  14.672  17.562  0.00  0.00    +0.000 OA
ATOM     31  H   UNL     1       4.390  14.499  16.795  0.00  0.00    +0.000 HD
ENDBRANCH  29  30
ENDBRANCH  25  29
ENDBRANCH  21  22
ENDBRANCH   6  21
TORSDOF 7
ENDMDL
MODEL 7
REMARK VINA RESULT:      -8.0      1.641      1.917
REMARK  Name = 
REMARK  7 active torsions:
REMARK  status: ('A' for Active; 'I' for Inactive)
REMARK    1  A    between atoms: C_2  and  C_3
REMARK    2  A    between atoms: C_5  and  S_6
REMARK    3  A    between atoms: S_6  and  N_9
REMARK    4  A    between atoms: C_19  and  O_20
REMARK    5  A    between atoms: O_20  and  C_21
REMARK    6  A    between atoms: C_24  and  C_25
REMARK    7  A    between atoms: C_25  and  O_26
REMARK                            x       y       z     vdW  Elec       q    Type
REMARK                         _______ _______ _______ _____ _____    ______ ____
ROOT
ATOM      1  C   UNL     1       1.117   9.092  21.021  0.00  0.00    +0.000 A 
ATOM      2  C   UNL     1       1.614   7.789  20.868  0.00  0.00    +0.000 A 
ATOM      3  C   UNL     1       2.016   7.327  19.613  0.00  0.00    +0.000 A 
ATOM      4  C   UNL     1       1.884   8.139  18.487  0.00  0.00    +0.000 A 
ATOM      5  C   UNL     1       1.421   9.450  18.642  0.00  0.00    +0.000 A 
ATOM      6  C   UNL     1       1.075   9.950  19.909  0.00  0.00    +0.000 A 
ENDROOT
BRANCH   3   7
ATOM      7  S   UNL     1       2.605   5.647  19.455  0.00  0.00    +0.000 S 
ATOM      8  O   UNL     1       2.352   4.981  20.716  0.00  0.00    +0.000 OA
ATOM      9  O   UNL     1       2.077   5.129  18.213  0.00  0.00    +0.000 OA
BRANCH   7  10
ATOM     10  N   UNL     1       4.265   5.818  19.244  0.00  0.00    +0.000 N 
ATOM     11  C   UNL     1       4.758   5.654  17.941  0.00  0.00    +0.000 A 
ATOM     12  C   UNL     1       4.692   6.658  16.984  0.00  0.00    +0.000 A 
ATOM     13  C   UNL     1       5.212   6.389  15.718  0.00  0.00    +0.000 A 
ATOM     14  C   UNL     1       5.744   5.134  15.468  0.00  0.00    +0.000 A 
ATOM     15  F   UNL     1       6.257   4.837  14.268  0.00  0.00    +0.000 F 
ATOM     16  C   UNL     1       5.740   4.190  16.482  0.00  0.00    +0.000 A 
ATOM     17  N   UNL     1       5.252   4.422  17.726  0.00  0.00    +0.000 NA
ATOM     18  H   UNL     1       4.766   5.232  19.906  0.00  0.00    +0.000 HD
ENDBRANCH   7  10
ENDBRANCH   3   7
BRANCH   1  20
ATOM     19  N   UNL     1       0.323   9.687  23.419  0.00  0.00    +0.000 NA
ATOM     20  C   UNL     1       0.660   9.453  22.332  0.00  0.00    +0.000 C 
ENDBRANCH   1  20
BRANCH   6  21
ATOM     21  O   UNL     1       0.626  11.256  19.885  0.00  0.00    +0.000 OA
BRANCH  21  22
ATOM     22  C   UNL     1      -0.719  11.544  19.866  0.00  0.00    +0.000 A 
ATOM     23  C   UNL     1      -1.579  11.260  18.808  0.00  0.00    +0.000 A 
ATOM     24  C   UNL     1      -2.890  11.738  18.835  0.00  0.00    +0.000 A 
ATOM     25  C   UNL     1      -3.393  12.428  19.953  0.00  0.00    +0.000 A 
ATOM     26  C   UNL     1      -2.557  12.576  21.069  0.00  0.00    +0.000 A 
ATOM     27 CL   UNL     1      -3.101  13.302  22.539  0.00  0.00    +0.000 Cl
ATOM     28  C   UNL     1      -1.227  12.144  21.021  0.00  0.00    +0.000 A 
BRANCH  25  29
ATOM     29  C   UNL     1      -4.798  12.969  19.881  0.00  0.00    +0.000 C 
BRANCH  29  30
ATOM     30  O   UNL     1      -5.736  11.904  19.744  0.00  0.00    +0.000 OA
ATOM     31  H   UNL     1      -6.386  11.982  20.466  0.00  0.00    +0.000 HD
ENDBRANCH  29  30
ENDBRANCH  25  29
ENDBRANCH  21  22
ENDBRANCH   6  21
TORSDOF 7
ENDMDL
MODEL 8
REMARK VINA RESULT:      -8.0      4.017      8.621
REMARK  Name = 
REMARK  7 active torsions:
REMARK  status: ('A' for Active; 'I' for Inactive)
REMARK    1  A    between atoms: C_2  and  C_3
REMARK    2  A    between atoms: C_5  and  S_6
REMARK    3  A    between atoms: S_6  and  N_9
REMARK    4  A    between atoms: C_19  and  O_20
REMARK    5  A    between atoms: O_20  and  C_21
REMARK    6  A    between atoms: C_24  and  C_25
REMARK    7  A    between atoms: C_25  and  O_26
REMARK                            x       y       z     vdW  Elec       q    Type
REMARK                         _______ _______ _______ _____ _____    ______ ____
ROOT
ATOM      1  C   UNL     1       2.069   5.220  20.536  0.00  0.00    +0.000 A 
ATOM      2  C   UNL     1       1.471   6.374  21.068  0.00  0.00    +0.000 A 
ATOM      3  C   UNL     1       1.524   7.583  20.371  0.00  0.00    +0.000 A 
ATOM      4  C   UNL     1       2.211   7.671  19.160  0.00  0.00    +0.000 A 
ATOM      5  C   UNL     1       2.778   6.515  18.612  0.00  0.00    +0.000 A 
ATOM      6  C   UNL     1       2.677   5.277  19.271  0.00  0.00    +0.000 A 
ENDROOT
BRANCH   3   7
ATOM      7  S   UNL     1       0.786   9.037  21.101  0.00  0.00    +0.000 S 
ATOM      8  O   UNL     1      -0.615   8.742  21.328  0.00  0.00    +0.000 OA
ATOM      9  O   UNL     1       1.650   9.453  22.183  0.00  0.00    +0.000 OA
BRANCH   7  10
ATOM     10  N   UNL     1       0.916  10.205  19.899  0.00  0.00    +0.000 N 
ATOM     11  C   UNL     1      -0.282  10.676  19.341  0.00  0.00    +0.000 A 
ATOM     12  C   UNL     1      -1.073  11.633  19.964  0.00  0.00    +0.000 A 
ATOM     13  C   UNL     1      -2.246  12.030  19.323  0.00  0.00    +0.000 A 
ATOM     14  C   UNL     1      -2.578  11.440  18.113  0.00  0.00    +0.000 A 
ATOM     15  F   UNL     1      -3.692  11.797  17.464  0.00  0.00    +0.000 F 
ATOM     16  C   UNL     1      -1.736  10.475  17.585  0.00  0.00    +0.000 A 
ATOM     17  N   UNL     1      -0.584  10.072  18.177  0.00  0.00    +0.000 NA
ATOM     18  H   UNL     1       1.564   9.898  19.178  0.00  0.00    +0.000 HD
ENDBRANCH   7  10
ENDBRANCH   3   7
BRANCH   1  20
ATOM     19  N   UNL     1       2.064   3.102  22.035  0.00  0.00    +0.000 NA
ATOM     20  C   UNL     1       2.028   4.044  21.356  0.00  0.00    +0.000 C 
ENDBRANCH   1  20
BRANCH   6  21
ATOM     21  O   UNL     1       3.300   4.242  18.602  0.00  0.00    +0.000 OA
BRANCH  21  22
ATOM     22  C   UNL     1       4.298   4.487  17.688  0.00  0.00    +0.000 A 
ATOM     23  C   UNL     1       4.302   4.030  16.373  0.00  0.00    +0.000 A 
ATOM     24  C   UNL     1       5.440   4.206  15.583  0.00  0.00    +0.000 A 
ATOM     25  C   UNL     1       6.557   4.917  16.060  0.00  0.00    +0.000 A 
ATOM     26  C   UNL     1       6.478   5.494  17.335  0.00  0.00    +0.000 A 
ATOM     27 CL   UNL     1       7.738   6.484  17.979  0.00  0.00    +0.000 Cl
ATOM     28  C   UNL     1       5.358   5.273  18.145  0.00  0.00    +0.000 A 
BRANCH  25  29
ATOM     29  C   UNL     1       7.771   5.008  15.172  0.00  0.00    +0.000 C 
BRANCH  29  30
ATOM     30  O   UNL     1       7.419   5.540  13.897  0.00  0.00    +0.000 OA
ATOM     31  H   UNL     1       6.884   4.872  13.431  0.00  0.00    +0.000 HD
ENDBRANCH  29  30
ENDBRANCH  25  29
ENDBRANCH  21  22
ENDBRANCH   6  21
TORSDOF 7
ENDMDL
MODEL 9
REMARK VINA RESULT:      -8.0      4.212      8.253
REMARK  Name = 
REMARK  7 active torsions:
REMARK  status: ('A' for Active; 'I' for Inactive)
REMARK    1  A    between atoms: C_2  and  C_3
REMARK    2  A    between atoms: C_5  and  S_6
REMARK    3  A    between atoms: S_6  and  N_9
REMARK    4  A    between atoms: C_19  and  O_20
REMARK    5  A    between atoms: O_20  and  C_21
REMARK    6  A    between atoms: C_24  and  C_25
REMARK    7  A    between atoms: C_25  and  O_26
REMARK                            x       y       z     vdW  Elec       q    Type
REMARK                         _______ _______ _______ _____ _____    ______ ____
ROOT
ATOM      1  C   UNL     1       1.482   9.149  18.990  0.00  0.00    +0.000 A 
ATOM      2  C   UNL     1       0.564  10.195  18.809  0.00  0.00    +0.000 A 
ATOM      3  C   UNL     1      -0.381  10.485  19.795  0.00  0.00    +0.000 A 
ATOM      4  C   UNL     1      -0.455   9.710  20.952  0.00  0.00    +0.000 A 
ATOM      5  C   UNL     1       0.481   8.689  21.150  0.00  0.00    +0.000 A 
ATOM      6  C   UNL     1       1.479   8.427  20.196  0.00  0.00    +0.000 A 
ENDROOT
BRANCH   3   7
ATOM      7  S   UNL     1      -1.558  11.798  19.507  0.00  0.00    +0.000 S 
ATOM      8  O   UNL     1      -1.791  12.455  20.778  0.00  0.00    +0.000 OA
ATOM      9  O   UNL     1      -1.094  12.538  18.355  0.00  0.00    +0.000 OA
BRANCH   7  10
ATOM     10  N   UNL     1      -2.958  10.993  19.038  0.00  0.00    +0.000 N 
ATOM     11  C   UNL     1      -3.107  10.730  17.667  0.00  0.00    +0.000 A 
ATOM     12  C   UNL     1      -2.473   9.668  17.036  0.00  0.00    +0.000 A 
ATOM     13  C   UNL     1      -2.688   9.497  15.669  0.00  0.00    +0.000 A 
ATOM     14  C   UNL     1      -3.501  10.401  15.004  0.00  0.00    +0.000 A 
ATOM     15  F   UNL     1      -3.737  10.269  13.693  0.00  0.00    +0.000 F 
ATOM     16  C   UNL     1      -4.068  11.444  15.717  0.00  0.00    +0.000 A 
ATOM     17  N   UNL     1      -3.887  11.634  17.048  0.00  0.00    +0.000 NA
ATOM     18  H   UNL     1      -3.778  11.461  19.415  0.00  0.00    +0.000 HD
ENDBRANCH   7  10
ENDBRANCH   3   7
BRANCH   1  20
ATOM     19  N   UNL     1       3.026   8.657  16.963  0.00  0.00    +0.000 NA
ATOM     20  C   UNL     1       2.367   8.877  17.894  0.00  0.00    +0.000 C 
ENDBRANCH   1  20
BRANCH   6  21
ATOM     21  O   UNL     1       2.313   7.381  20.540  0.00  0.00    +0.000 OA
BRANCH  21  22
ATOM     22  C   UNL     1       2.116   6.120  20.028  0.00  0.00    +0.000 A 
ATOM     23  C   UNL     1       2.175   5.791  18.676  0.00  0.00    +0.000 A 
ATOM     24  C   UNL     1       1.803   4.512  18.258  0.00  0.00    +0.000 A 
ATOM     25  C   UNL     1       1.453   3.514  19.186  0.00  0.00    +0.000 A 
ATOM     26  C   UNL     1       1.539   3.821  20.551  0.00  0.00    +0.000 A 
ATOM     27 CL   UNL     1       1.246   2.645  21.781  0.00  0.00    +0.000 Cl
ATOM     28  C   UNL     1       1.861   5.118  20.967  0.00  0.00    +0.000 A 
BRANCH  25  29
ATOM     29  C   UNL     1       1.001   2.178  18.654  0.00  0.00    +0.000 C 
BRANCH  29  30
ATOM     30  O   UNL     1       2.095   1.481  18.061  0.00  0.00    +0.000 OA
ATOM     31  H   UNL     1       2.816   1.445  18.714  0.00  0.00    +0.000 HD
ENDBRANCH  29  30
ENDBRANCH  25  29
ENDBRANCH  21  22
ENDBRANCH   6  21
TORSDOF 7
ENDMDL
