MODEL 1
REMARK VINA RESULT:      -7.1      0.000      0.000
REMARK  Name = 
REMARK  11 active torsions:
REMARK  status: ('A' for Active; 'I' for Inactive)
REMARK    1  A    between atoms: C_1  and  C_2
REMARK    2  A    between atoms: C_2  and  O_3
REMARK    3  A    between atoms: O_3  and  C_4
REMARK    4  A    between atoms: C_4  and  C_6
REMARK    5  A    between atoms: C_9  and  N_10
REMARK    6  A    between atoms: C_11  and  C_13
REMARK    7  A    between atoms: C_13  and  S_14
REMARK    8  A    between atoms: S_14  and  C_15
REMARK    9  A    between atoms: N_19  and  C_20
REMARK   10  A    between atoms: C_20  and  C_21
REMARK   11  A    between atoms: C_21  and  N_22
REMARK                            x       y       z     vdW  Elec       q    Type
REMARK                         _______ _______ _______ _____ _____    ______ ____
ROOT
ATOM      1  C   UNL     1       1.385   7.721  20.847  0.00  0.00    +0.000 A 
ATOM      2  N   UNL     1       0.670   7.966  21.891  0.00  0.00    +0.000 NA
ATOM      3  C   UNL     1      -0.114   9.106  21.906  0.00  0.00    +0.000 A 
ATOM      4  O   UNL     1      -0.849   9.318  22.873  0.00  0.00    +0.000 OA
ATOM      5  N   UNL     1      -0.050  10.005  20.825  0.00  0.00    +0.000 N 
ATOM      6  C   UNL     1       0.735   9.686  19.725  0.00  0.00    +0.000 A 
ATOM      7  C   UNL     1       1.460   8.574  19.671  0.00  0.00    +0.000 A 
ATOM      8  C   UNL     1       2.186   8.408  18.386  0.00  0.00    +0.000 C 
ATOM      9  C   UNL     1       2.069   9.809  17.784  0.00  0.00    +0.000 C 
ATOM     10  C   UNL     1       0.856  10.465  18.453  0.00  0.00    +0.000 C 
ENDROOT
BRANCH   1  11
ATOM     11  S   UNL     1       2.392   6.304  20.719  0.00  0.00    +0.000 S 
BRANCH  11  12
ATOM     12  C   UNL     1       1.357   5.130  19.821  0.00  0.00    +0.000 C 
BRANCH  12  14
ATOM     13  N   UNL     1       3.416   5.103  18.457  0.00  0.00    +0.000 N 
ATOM     14  C   UNL     1       2.039   4.876  18.481  0.00  0.00    +0.000 C 
ATOM     15  O   UNL     1       1.365   4.510  17.519  0.00  0.00    +0.000 OA
ATOM     16  H   UNL     1       3.888   5.286  19.334  0.00  0.00    +0.000 HD
BRANCH  13  20
ATOM     17  C   UNL     1       5.939   4.702  15.095  0.00  0.00    +0.000 A 
ATOM     18  C   UNL     1       5.553   3.575  15.811  0.00  0.00    +0.000 A 
ATOM     19  C   UNL     1       4.703   3.712  16.903  0.00  0.00    +0.000 A 
ATOM     20  C   UNL     1       4.220   4.963  17.301  0.00  0.00    +0.000 A 
ATOM     21  C   UNL     1       4.547   6.084  16.527  0.00  0.00    +0.000 A 
ATOM     22  C   UNL     1       5.417   5.953  15.433  0.00  0.00    +0.000 A 
BRANCH  17  23
ATOM     23  C   UNL     1       6.805   4.583  13.907  0.00  0.00    +0.000 C 
ATOM     24  O   UNL     1       7.525   5.486  13.520  0.00  0.00    +0.000 OA
BRANCH  23  25
ATOM     25  O   UNL     1       6.584   3.391  13.302  0.00  0.00    +0.000 OA
BRANCH  25  27
ATOM     26  C   UNL     1       5.825   2.128  11.438  0.00  0.00    +0.000 C 
ATOM     27  C   UNL     1       5.635   3.413  12.229  0.00  0.00    +0.000 C 
ENDBRANCH  25  27
ENDBRANCH  23  25
ENDBRANCH  17  23
ENDBRANCH  13  20
ENDBRANCH  12  14
ENDBRANCH  11  12
ENDBRANCH   1  11
BRANCH   5  28
ATOM     28  C   UNL     1      -0.969  11.153  20.694  0.00  0.00    +0.000 C 
BRANCH  28  29
ATOM     29  C   UNL     1      -0.668  12.502  21.402  0.00  0.00    +0.000 C 
BRANCH  29  30
ATOM     30  N   UNL     1      -1.403  12.643  22.682  0.00  0.00    +0.000 NA
ATOM     31  C   UNL     1      -2.858  12.408  22.617  0.00  0.00    +0.000 C 
ATOM     32  C   UNL     1      -3.685  13.576  22.058  0.00  0.00    +0.000 C 
ATOM     33  O   UNL     1      -3.423  14.798  22.753  0.00  0.00    +0.000 OA
ATOM     34  C   UNL     1      -2.027  15.114  22.768  0.00  0.00    +0.000 C 
ATOM     35  C   UNL     1      -1.177  13.958  23.327  0.00  0.00    +0.000 C 
ENDBRANCH  29  30
ENDBRANCH  28  29
ENDBRANCH   5  28
TORSDOF 10
ENDMDL
MODEL 2
REMARK VINA RESULT:      -7.0      2.331      3.250
REMARK  Name = 
REMARK  11 active torsions:
REMARK  status: ('A' for Active; 'I' for Inactive)
REMARK    1  A    between atoms: C_1  and  C_2
REMARK    2  A    between atoms: C_2  and  O_3
REMARK    3  A    between atoms: O_3  and  C_4
REMARK    4  A    between atoms: C_4  and  C_6
REMARK    5  A    between atoms: C_9  and  N_10
REMARK    6  A    between atoms: C_11  and  C_13
REMARK    7  A    between atoms: C_13  and  S_14
REMARK    8  A    between atoms: S_14  and  C_15
REMARK    9  A    between atoms: N_19  and  C_20
REMARK   10  A    between atoms: C_20  and  C_21
REMARK   11  A    between atoms: C_21  and  N_22
REMARK                            x       y       z     vdW  Elec       q    Type
REMARK                         _______ _______ _______ _____ _____    ______ ____
ROOT
ATOM      1  C   UNL     1       1.415   8.435  20.335  0.00  0.00    +0.000 A 
ATOM      2  N   UNL     1       1.524   8.641  19.067  0.00  0.00    +0.000 NA
ATOM      3  C   UNL     1       0.914   9.757  18.522  0.00  0.00    +0.000 A 
ATOM      4  O   UNL     1       1.063   9.996  17.321  0.00  0.00    +0.000 OA
ATOM      5  N   UNL     1       0.129  10.589  19.341  0.00  0.00    +0.000 N 
ATOM      6  C   UNL     1       0.053  10.320  20.701  0.00  0.00    +0.000 A 
ATOM      7  C   UNL     1       0.667   9.280  21.254  0.00  0.00    +0.000 A 
ATOM      8  C   UNL     1       0.491   9.208  22.726  0.00  0.00    +0.000 C 
ATOM      9  C   UNL     1      -0.656  10.195  22.947  0.00  0.00    +0.000 C 
ATOM     10  C   UNL     1      -0.650  11.138  21.739  0.00  0.00    +0.000 C 
ENDROOT
BRANCH   1  11
ATOM     11  S   UNL     1       2.158   7.071  21.125  0.00  0.00    +0.000 S 
BRANCH  11  12
ATOM     12  C   UNL     1       1.298   5.652  20.416  0.00  0.00    +0.000 C 
BRANCH  12  14
ATOM     13  N   UNL     1       3.291   5.916  18.980  0.00  0.00    +0.000 N 
ATOM     14  C   UNL     1       2.129   5.182  19.228  0.00  0.00    +0.000 C 
ATOM     15  O   UNL     1       1.743   4.222  18.560  0.00  0.00    +0.000 OA
ATOM     16  H   UNL     1       3.575   6.610  19.661  0.00  0.00    +0.000 HD
BRANCH  13  20
ATOM     17  C   UNL     1       5.802   5.116  15.681  0.00  0.00    +0.000 A 
ATOM     18  C   UNL     1       5.261   6.386  15.849  0.00  0.00    +0.000 A 
ATOM     19  C   UNL     1       4.454   6.648  16.951  0.00  0.00    +0.000 A 
ATOM     20  C   UNL     1       4.172   5.663  17.902  0.00  0.00    +0.000 A 
ATOM     21  C   UNL     1       4.785   4.410  17.771  0.00  0.00    +0.000 A 
ATOM     22  C   UNL     1       5.588   4.135  16.652  0.00  0.00    +0.000 A 
BRANCH  17  23
ATOM     23  C   UNL     1       6.696   4.820  14.546  0.00  0.00    +0.000 C 
ATOM     24  O   UNL     1       7.569   5.584  14.175  0.00  0.00    +0.000 OA
BRANCH  23  25
ATOM     25  O   UNL     1       6.318   3.657  13.962  0.00  0.00    +0.000 OA
BRANCH  25  27
ATOM     26  C   UNL     1       5.025   3.329  11.996  0.00  0.00    +0.000 C 
ATOM     27  C   UNL     1       6.417   3.627  12.533  0.00  0.00    +0.000 C 
ENDBRANCH  25  27
ENDBRANCH  23  25
ENDBRANCH  17  23
ENDBRANCH  13  20
ENDBRANCH  12  14
ENDBRANCH  11  12
ENDBRANCH   1  11
BRANCH   5  28
ATOM     28  C   UNL     1      -0.416  11.878  18.871  0.00  0.00    +0.000 C 
BRANCH  28  29
ATOM     29  C   UNL     1      -1.610  11.925  17.880  0.00  0.00    +0.000 C 
BRANCH  29  30
ATOM     30  N   UNL     1      -2.723  11.037  18.296  0.00  0.00    +0.000 NA
ATOM     31  C   UNL     1      -3.709  10.708  17.250  0.00  0.00    +0.000 C 
ATOM     32  C   UNL     1      -4.745  11.804  16.959  0.00  0.00    +0.000 C 
ATOM     33  O   UNL     1      -5.422  12.229  18.145  0.00  0.00    +0.000 OA
ATOM     34  C   UNL     1      -4.505  12.642  19.164  0.00  0.00    +0.000 C 
ATOM     35  C   UNL     1      -3.457  11.557  19.474  0.00  0.00    +0.000 C 
ENDBRANCH  29  30
ENDBRANCH  28  29
ENDBRANCH   5  28
TORSDOF 10
ENDMDL
MODEL 3
REMARK VINA RESULT:      -6.9      5.466      7.451
REMARK  Name = 
REMARK  11 active torsions:
REMARK  status: ('A' for Active; 'I' for Inactive)
REMARK    1  A    between atoms: C_1  and  C_2
REMARK    2  A    between atoms: C_2  and  O_3
REMARK    3  A    between atoms: O_3  and  C_4
REMARK    4  A    between atoms: C_4  and  C_6
REMARK    5  A    between atoms: C_9  and  N_10
REMARK    6  A    between atoms: C_11  and  C_13
REMARK    7  A    between atoms: C_13  and  S_14
REMARK    8  A    between atoms: S_14  and  C_15
REMARK    9  A    between atoms: N_19  and  C_20
REMARK   10  A    between atoms: C_20  and  C_21
REMARK   11  A    between atoms: C_21  and  N_22
REMARK                            x       y       z     vdW  Elec       q    Type
REMARK                         _______ _______ _______ _____ _____    ______ ____
ROOT
ATOM      1  C   UNL     1       4.846   6.060  17.887  0.00  0.00    +0.000 A 
ATOM      2  N   UNL     1       4.258   7.183  17.652  0.00  0.00    +0.000 NA
ATOM      3  C   UNL     1       3.105   7.488  18.355  0.00  0.00    +0.000 A 
ATOM      4  O   UNL     1       2.570   8.586  18.183  0.00  0.00    +0.000 OA
ATOM      5  N   UNL     1       2.563   6.541  19.242  0.00  0.00    +0.000 N 
ATOM      6  C   UNL     1       3.243   5.350  19.459  0.00  0.00    +0.000 A 
ATOM      7  C   UNL     1       4.375   5.056  18.829  0.00  0.00    +0.000 A 
ATOM      8  C   UNL     1       4.957   3.755  19.243  0.00  0.00    +0.000 C 
ATOM      9  C   UNL     1       3.784   3.116  19.988  0.00  0.00    +0.000 C 
ATOM     10  C   UNL     1       2.874   4.269  20.426  0.00  0.00    +0.000 C 
ENDROOT
BRANCH   1  11
ATOM     11  S   UNL     1       6.311   5.587  17.071  0.00  0.00    +0.000 S 
BRANCH  11  12
ATOM     12  C   UNL     1       7.614   6.102  18.209  0.00  0.00    +0.000 C 
BRANCH  12  14
ATOM     13  N   UNL     1       8.577   8.253  18.946  0.00  0.00    +0.000 N 
ATOM     14  C   UNL     1       7.865   7.582  17.950  0.00  0.00    +0.000 C 
ATOM     15  O   UNL     1       7.433   8.099  16.920  0.00  0.00    +0.000 OA
ATOM     16  H   UNL     1       8.988   7.707  19.694  0.00  0.00    +0.000 HD
BRANCH  13  20
ATOM     17  C   UNL     1       9.603  12.346  18.778  0.00  0.00    +0.000 A 
ATOM     18  C   UNL     1       8.934  11.754  17.712  0.00  0.00    +0.000 A 
ATOM     19  C   UNL     1       8.579  10.412  17.785  0.00  0.00    +0.000 A 
ATOM     20  C   UNL     1       8.876   9.636  18.910  0.00  0.00    +0.000 A 
ATOM     21  C   UNL     1       9.477  10.258  20.012  0.00  0.00    +0.000 A 
ATOM     22  C   UNL     1       9.852  11.609  19.938  0.00  0.00    +0.000 A 
BRANCH  17  23
ATOM     23  C   UNL     1       9.955  13.778  18.747  0.00  0.00    +0.000 C 
ATOM     24  O   UNL     1       9.131  14.658  18.578  0.00  0.00    +0.000 OA
BRANCH  23  25
ATOM     25  O   UNL     1      11.300  13.916  18.834  0.00  0.00    +0.000 OA
BRANCH  25  27
ATOM     26  C   UNL     1      12.265  13.350  16.737  0.00  0.00    +0.000 C 
ATOM     27  C   UNL     1      11.933  14.493  17.685  0.00  0.00    +0.000 C 
ENDBRANCH  25  27
ENDBRANCH  23  25
ENDBRANCH  17  23
ENDBRANCH  13  20
ENDBRANCH  12  14
ENDBRANCH  11  12
ENDBRANCH   1  11
BRANCH   5  28
ATOM     28  C   UNL     1       1.435   6.853  20.143  0.00  0.00    +0.000 C 
BRANCH  28  29
ATOM     29  C   UNL     1       1.414   8.168  20.968  0.00  0.00    +0.000 C 
BRANCH  29  30
ATOM     30  N   UNL     1       0.085   8.827  20.946  0.00  0.00    +0.000 NA
ATOM     31  C   UNL     1       0.077  10.243  20.536  0.00  0.00    +0.000 C 
ATOM     32  C   UNL     1       0.508  11.241  21.622  0.00  0.00    +0.000 C 
ATOM     33  O   UNL     1      -0.246  11.081  22.826  0.00  0.00    +0.000 OA
ATOM     34  C   UNL     1      -0.196   9.735  23.312  0.00  0.00    +0.000 C 
ATOM     35  C   UNL     1      -0.627   8.717  22.241  0.00  0.00    +0.000 C 
ENDBRANCH  29  30
ENDBRANCH  28  29
ENDBRANCH   5  28
TORSDOF 10
ENDMDL
MODEL 4
REMARK VINA RESULT:      -6.8      2.563      3.306
REMARK  Name = 
REMARK  11 active torsions:
REMARK  status: ('A' for Active; 'I' for Inactive)
REMARK    1  A    between atoms: C_1  and  C_2
REMARK    2  A    between atoms: C_2  and  O_3
REMARK    3  A    between atoms: O_3  and  C_4
REMARK    4  A    between atoms: C_4  and  C_6
REMARK    5  A    between atoms: C_9  and  N_10
REMARK    6  A    between atoms: C_11  and  C_13
REMARK    7  A    between atoms: C_13  and  S_14
REMARK    8  A    between atoms: S_14  and  C_15
REMARK    9  A    between atoms: N_19  and  C_20
REMARK   10  A    between atoms: C_20  and  C_21
REMARK   11  A    between atoms: C_21  and  N_22
REMARK                            x       y       z     vdW  Elec       q    Type
REMARK                         _______ _______ _______ _____ _____    ______ ____
ROOT
ATOM      1  C   UNL     1       1.533   8.319  20.331  0.00  0.00    +0.000 A 
ATOM      2  N   UNL     1       1.799   8.529  19.087  0.00  0.00    +0.000 NA
ATOM      3  C   UNL     1       1.386   9.717  18.511  0.00  0.00    +0.000 A 
ATOM      4  O   UNL     1       1.689   9.954  17.339  0.00  0.00    +0.000 OA
ATOM      5  N   UNL     1       0.622  10.625  19.267  0.00  0.00    +0.000 N 
ATOM      6  C   UNL     1       0.371  10.349  20.604  0.00  0.00    +0.000 A 
ATOM      7  C   UNL     1       0.797   9.234  21.189  0.00  0.00    +0.000 A 
ATOM      8  C   UNL     1       0.457   9.163  22.633  0.00  0.00    +0.000 C 
ATOM      9  C   UNL     1      -0.582  10.277  22.760  0.00  0.00    +0.000 C 
ATOM     10  C   UNL     1      -0.338  11.230  21.584  0.00  0.00    +0.000 C 
ENDROOT
BRANCH   1  11
ATOM     11  S   UNL     1       2.022   6.865  21.156  0.00  0.00    +0.000 S 
BRANCH  11  12
ATOM     12  C   UNL     1       1.064   5.572  20.340  0.00  0.00    +0.000 C 
BRANCH  12  14
ATOM     13  N   UNL     1       3.083   5.783  18.933  0.00  0.00    +0.000 N 
ATOM     14  C   UNL     1       1.904   5.075  19.169  0.00  0.00    +0.000 C 
ATOM     15  O   UNL     1       1.509   4.117  18.504  0.00  0.00    +0.000 OA
ATOM     16  H   UNL     1       3.371   6.478  19.612  0.00  0.00    +0.000 HD
BRANCH  13  20
ATOM     17  C   UNL     1       5.862   4.971  15.859  0.00  0.00    +0.000 A 
ATOM     18  C   UNL     1       5.400   3.938  16.667  0.00  0.00    +0.000 A 
ATOM     19  C   UNL     1       4.467   4.209  17.662  0.00  0.00    +0.000 A 
ATOM     20  C   UNL     1       3.975   5.502  17.871  0.00  0.00    +0.000 A 
ATOM     21  C   UNL     1       4.383   6.522  17.002  0.00  0.00    +0.000 A 
ATOM     22  C   UNL     1       5.337   6.257  16.006  0.00  0.00    +0.000 A 
BRANCH  17  23
ATOM     23  C   UNL     1       6.819   4.706  14.768  0.00  0.00    +0.000 C 
ATOM     24  O   UNL     1       7.704   5.484  14.461  0.00  0.00    +0.000 OA
BRANCH  23  25
ATOM     25  O   UNL     1       6.485   3.552  14.141  0.00  0.00    +0.000 OA
BRANCH  25  27
ATOM     26  C   UNL     1       6.756   3.328  11.791  0.00  0.00    +0.000 C 
ATOM     27  C   UNL     1       5.786   3.708  12.900  0.00  0.00    +0.000 C 
ENDBRANCH  25  27
ENDBRANCH  23  25
ENDBRANCH  17  23
ENDBRANCH  13  20
ENDBRANCH  12  14
ENDBRANCH  11  12
ENDBRANCH   1  11
BRANCH   5  28
ATOM     28  C   UNL     1       0.285  11.977  18.777  0.00  0.00    +0.000 C 
BRANCH  28  29
ATOM     29  C   UNL     1       1.352  13.104  18.749  0.00  0.00    +0.000 C 
BRANCH  29  30
ATOM     30  N   UNL     1       1.062  14.181  19.727  0.00  0.00    +0.000 NA
ATOM     31  C   UNL     1       0.589  15.456  19.158  0.00  0.00    +0.000 C 
ATOM     32  C   UNL     1       1.685  16.351  18.558  0.00  0.00    +0.000 C 
ATOM     33  O   UNL     1       2.742  16.599  19.489  0.00  0.00    +0.000 OA
ATOM     34  C   UNL     1       3.294  15.383  20.006  0.00  0.00    +0.000 C 
ATOM     35  C   UNL     1       2.213  14.470  20.614  0.00  0.00    +0.000 C 
ENDBRANCH  29  30
ENDBRANCH  28  29
ENDBRANCH   5  28
TORSDOF 10
ENDMDL
MODEL 5
REMARK VINA RESULT:      -6.8      2.642      3.896
REMARK  Name = 
REMARK  11 active torsions:
REMARK  status: ('A' for Active; 'I' for Inactive)
REMARK    1  A    between atoms: C_1  and  C_2
REMARK    2  A    between atoms: C_2  and  O_3
REMARK    3  A    between atoms: O_3  and  C_4
REMARK    4  A    between atoms: C_4  and  C_6
REMARK    5  A    between atoms: C_9  and  N_10
REMARK    6  A    between atoms: C_11  and  C_13
REMARK    7  A    between atoms: C_13  and  S_14
REMARK    8  A    between atoms: S_14  and  C_15
REMARK    9  A    between atoms: N_19  and  C_20
REMARK   10  A    between atoms: C_20  and  C_21
REMARK   11  A    between atoms: C_21  and  N_22
REMARK                            x       y       z     vdW  Elec       q    Type
REMARK                         _______ _______ _______ _____ _____    ______ ____
ROOT
ATOM      1  C   UNL     1      -0.416  10.808  22.139  0.00  0.00    +0.000 A 
ATOM      2  N   UNL     1      -1.235  10.867  23.133  0.00  0.00    +0.000 NA
ATOM      3  C   UNL     1      -2.342  11.691  23.031  0.00  0.00    +0.000 A 
ATOM      4  O   UNL     1      -3.165  11.708  23.950  0.00  0.00    +0.000 OA
ATOM      5  N   UNL     1      -2.504  12.497  21.890  0.00  0.00    +0.000 N 
ATOM      6  C   UNL     1      -1.592  12.387  20.849  0.00  0.00    +0.000 A 
ATOM      7  C   UNL     1      -0.546  11.569  20.907  0.00  0.00    +0.000 A 
ATOM      8  C   UNL     1       0.273  11.574  19.668  0.00  0.00    +0.000 C 
ATOM      9  C   UNL     1      -0.250  12.824  18.959  0.00  0.00    +0.000 C 
ATOM     10  C   UNL     1      -1.649  13.088  19.528  0.00  0.00    +0.000 C 
ENDROOT
BRANCH   1  11
ATOM     11  S   UNL     1       0.999   9.790  22.158  0.00  0.00    +0.000 S 
BRANCH  11  12
ATOM     12  C   UNL     1       0.426   8.256  21.399  0.00  0.00    +0.000 C 
BRANCH  12  14
ATOM     13  N   UNL     1       1.986   6.613  20.416  0.00  0.00    +0.000 N 
ATOM     14  C   UNL     1       1.438   7.893  20.319  0.00  0.00    +0.000 C 
ATOM     15  O   UNL     1       1.724   8.721  19.454  0.00  0.00    +0.000 OA
ATOM     16  H   UNL     1       1.593   5.973  21.096  0.00  0.00    +0.000 HD
BRANCH  13  20
ATOM     17  C   UNL     1       5.028   5.170  17.867  0.00  0.00    +0.000 A 
ATOM     18  C   UNL     1       4.652   4.433  18.985  0.00  0.00    +0.000 A 
ATOM     19  C   UNL     1       3.633   4.903  19.806  0.00  0.00    +0.000 A 
ATOM     20  C   UNL     1       2.970   6.105  19.535  0.00  0.00    +0.000 A 
ATOM     21  C   UNL     1       3.298   6.801  18.365  0.00  0.00    +0.000 A 
ATOM     22  C   UNL     1       4.336   6.339  17.540  0.00  0.00    +0.000 A 
BRANCH  17  23
ATOM     23  C   UNL     1       6.075   4.676  16.954  0.00  0.00    +0.000 C 
ATOM     24  O   UNL     1       7.264   4.790  17.188  0.00  0.00    +0.000 OA
BRANCH  23  25
ATOM     25  O   UNL     1       5.502   4.193  15.825  0.00  0.00    +0.000 OA
BRANCH  25  27
ATOM     26  C   UNL     1       6.151   3.745  13.583  0.00  0.00    +0.000 C 
ATOM     27  C   UNL     1       5.900   4.840  14.610  0.00  0.00    +0.000 C 
ENDBRANCH  25  27
ENDBRANCH  23  25
ENDBRANCH  17  23
ENDBRANCH  13  20
ENDBRANCH  12  14
ENDBRANCH  11  12
ENDBRANCH   1  11
BRANCH   5  28
ATOM     28  C   UNL     1      -3.733  13.275  21.636  0.00  0.00    +0.000 C 
BRANCH  28  29
ATOM     29  C   UNL     1      -5.062  12.566  21.259  0.00  0.00    +0.000 C 
BRANCH  29  30
ATOM     30  N   UNL     1      -6.254  13.356  21.652  0.00  0.00    +0.000 NA
ATOM     31  C   UNL     1      -6.273  13.843  23.043  0.00  0.00    +0.000 C 
ATOM     32  C   UNL     1      -6.669  12.797  24.097  0.00  0.00    +0.000 C 
ATOM     33  O   UNL     1      -7.916  12.170  23.786  0.00  0.00    +0.000 OA
ATOM     34  C   UNL     1      -7.916  11.605  22.471  0.00  0.00    +0.000 C 
ATOM     35  C   UNL     1      -7.524  12.636  21.398  0.00  0.00    +0.000 C 
ENDBRANCH  29  30
ENDBRANCH  28  29
ENDBRANCH   5  28
TORSDOF 10
ENDMDL
MODEL 6
REMARK VINA RESULT:      -6.7      7.393      8.905
REMARK  Name = 
REMARK  11 active torsions:
REMARK  status: ('A' for Active; 'I' for Inactive)
REMARK    1  A    between atoms: C_1  and  C_2
REMARK    2  A    between atoms: C_2  and  O_3
REMARK    3  A    between atoms: O_3  and  C_4
REMARK    4  A    between atoms: C_4  and  C_6
REMARK    5  A    between atoms: C_9  and  N_10
REMARK    6  A    between atoms: C_11  and  C_13
REMARK    7  A    between atoms: C_13  and  S_14
REMARK    8  A    between atoms: S_14  and  C_15
REMARK    9  A    between atoms: N_19  and  C_20
REMARK   10  A    between atoms: C_20  and  C_21
REMARK   11  A    between atoms: C_21  and  N_22
REMARK                            x       y       z     vdW  Elec       q    Type
REMARK                         _______ _______ _______ _____ _____    ______ ____
ROOT
ATOM      1  C   UNL     1       9.036  11.395  18.493  0.00  0.00    +0.000 A 
ATOM      2  N   UNL     1       8.012  12.008  18.004  0.00  0.00    +0.000 NA
ATOM      3  C   UNL     1       8.113  13.362  17.741  0.00  0.00    +0.000 A 
ATOM      4  O   UNL     1       7.162  13.946  17.215  0.00  0.00    +0.000 OA
ATOM      5  N   UNL     1       9.292  14.050  18.086  0.00  0.00    +0.000 N 
ATOM      6  C   UNL     1      10.363  13.336  18.605  0.00  0.00    +0.000 A 
ATOM      7  C   UNL     1      10.304  12.027  18.823  0.00  0.00    +0.000 A 
ATOM      8  C   UNL     1      11.575  11.459  19.338  0.00  0.00    +0.000 C 
ATOM      9  C   UNL     1      12.333  12.722  19.749  0.00  0.00    +0.000 C 
ATOM     10  C   UNL     1      11.719  13.872  18.943  0.00  0.00    +0.000 C 
ENDROOT
BRANCH   1  11
ATOM     11  S   UNL     1       9.020   9.688  18.844  0.00  0.00    +0.000 S 
BRANCH  11  12
ATOM     12  C   UNL     1       8.427   8.947  17.309  0.00  0.00    +0.000 C 
BRANCH  12  14
ATOM     13  N   UNL     1       6.502   7.451  16.911  0.00  0.00    +0.000 N 
ATOM     14  C   UNL     1       7.627   7.709  17.697  0.00  0.00    +0.000 C 
ATOM     15  O   UNL     1       7.988   7.031  18.659  0.00  0.00    +0.000 OA
ATOM     16  H   UNL     1       6.364   8.004  16.074  0.00  0.00    +0.000 HD
BRANCH  13  20
ATOM     17  C   UNL     1       3.891   4.234  17.724  0.00  0.00    +0.000 A 
ATOM     18  C   UNL     1       3.464   5.541  17.925  0.00  0.00    +0.000 A 
ATOM     19  C   UNL     1       4.321   6.596  17.632  0.00  0.00    +0.000 A 
ATOM     20  C   UNL     1       5.610   6.376  17.136  0.00  0.00    +0.000 A 
ATOM     21  C   UNL     1       6.005   5.060  16.860  0.00  0.00    +0.000 A 
ATOM     22  C   UNL     1       5.150   3.991  17.168  0.00  0.00    +0.000 A 
BRANCH  17  23
ATOM     23  C   UNL     1       2.989   3.096  17.985  0.00  0.00    +0.000 C 
ATOM     24  O   UNL     1       2.231   2.648  17.145  0.00  0.00    +0.000 OA
BRANCH  23  25
ATOM     25  O   UNL     1       3.083   2.732  19.287  0.00  0.00    +0.000 OA
BRANCH  25  27
ATOM     26  C   UNL     1       2.209   3.006  21.480  0.00  0.00    +0.000 C 
ATOM     27  C   UNL     1       1.853   2.759  20.021  0.00  0.00    +0.000 C 
ENDBRANCH  25  27
ENDBRANCH  23  25
ENDBRANCH  17  23
ENDBRANCH  13  20
ENDBRANCH  12  14
ENDBRANCH  11  12
ENDBRANCH   1  11
BRANCH   5  28
ATOM     28  C   UNL     1       9.536  15.451  17.692  0.00  0.00    +0.000 C 
BRANCH  28  29
ATOM     29  C   UNL     1       9.106  16.625  18.613  0.00  0.00    +0.000 C 
BRANCH  29  30
ATOM     30  N   UNL     1       8.416  16.156  19.839  0.00  0.00    +0.000 NA
ATOM     31  C   UNL     1       7.162  16.853  20.178  0.00  0.00    +0.000 C 
ATOM     32  C   UNL     1       7.335  18.224  20.848  0.00  0.00    +0.000 C 
ATOM     33  O   UNL     1       8.176  18.153  22.003  0.00  0.00    +0.000 OA
ATOM     34  C   UNL     1       9.444  17.560  21.703  0.00  0.00    +0.000 C 
ATOM     35  C   UNL     1       9.295  16.183  21.032  0.00  0.00    +0.000 C 
ENDBRANCH  29  30
ENDBRANCH  28  29
ENDBRANCH   5  28
TORSDOF 10
ENDMDL
MODEL 7
REMARK VINA RESULT:      -6.6      2.963      4.235
REMARK  Name = 
REMARK  11 active torsions:
REMARK  status: ('A' for Active; 'I' for Inactive)
REMARK    1  A    between atoms: C_1  and  C_2
REMARK    2  A    between atoms: C_2  and  O_3
REMARK    3  A    between atoms: O_3  and  C_4
REMARK    4  A    between atoms: C_4  and  C_6
REMARK    5  A    between atoms: C_9  and  N_10
REMARK    6  A    between atoms: C_11  and  C_13
REMARK    7  A    between atoms: C_13  and  S_14
REMARK    8  A    between atoms: S_14  and  C_15
REMARK    9  A    between atoms: N_19  and  C_20
REMARK   10  A    between atoms: C_20  and  C_21
REMARK   11  A    between atoms: C_21  and  N_22
REMARK                            x       y       z     vdW  Elec       q    Type
REMARK                         _______ _______ _______ _____ _____    ______ ____
ROOT
ATOM      1  C   UNL     1      -1.259  11.194  18.913  0.00  0.00    +0.000 A 
ATOM      2  N   UNL     1      -0.729  11.932  19.827  0.00  0.00    +0.000 NA
ATOM      3  C   UNL     1      -1.541  12.810  20.524  0.00  0.00    +0.000 A 
ATOM      4  O   UNL     1      -1.058  13.476  21.443  0.00  0.00    +0.000 OA
ATOM      5  N   UNL     1      -2.897  12.933  20.166  0.00  0.00    +0.000 N 
ATOM      6  C   UNL     1      -3.412  12.108  19.176  0.00  0.00    +0.000 A 
ATOM      7  C   UNL     1      -2.660  11.227  18.525  0.00  0.00    +0.000 A 
ATOM      8  C   UNL     1      -3.423  10.417  17.541  0.00  0.00    +0.000 C 
ATOM      9  C   UNL     1      -4.727  11.209  17.436  0.00  0.00    +0.000 C 
ATOM     10  C   UNL     1      -4.837  12.029  18.726  0.00  0.00    +0.000 C 
ENDROOT
BRANCH   1  11
ATOM     11  S   UNL     1      -0.330  10.044  17.990  0.00  0.00    +0.000 S 
BRANCH  11  12
ATOM     12  C   UNL     1       0.873   9.419  19.181  0.00  0.00    +0.000 C 
BRANCH  12  14
ATOM     13  N   UNL     1       2.288   7.440  18.754  0.00  0.00    +0.000 N 
ATOM     14  C   UNL     1       1.982   8.750  18.378  0.00  0.00    +0.000 C 
ATOM     15  O   UNL     1       2.543   9.377  17.480  0.00  0.00    +0.000 OA
ATOM     16  H   UNL     1       1.685   6.980  19.425  0.00  0.00    +0.000 HD
BRANCH  13  20
ATOM     17  C   UNL     1       5.431   5.158  17.097  0.00  0.00    +0.000 A 
ATOM     18  C   UNL     1       4.482   4.546  17.908  0.00  0.00    +0.000 A 
ATOM     19  C   UNL     1       3.436   5.299  18.431  0.00  0.00    +0.000 A 
ATOM     20  C   UNL     1       3.312   6.666  18.159  0.00  0.00    +0.000 A 
ATOM     21  C   UNL     1       4.224   7.258  17.277  0.00  0.00    +0.000 A 
ATOM     22  C   UNL     1       5.291   6.506  16.758  0.00  0.00    +0.000 A 
BRANCH  17  23
ATOM     23  C   UNL     1       6.526   4.376  16.494  0.00  0.00    +0.000 C 
ATOM     24  O   UNL     1       7.691   4.505  16.825  0.00  0.00    +0.000 OA
BRANCH  23  25
ATOM     25  O   UNL     1       6.037   3.608  15.491  0.00  0.00    +0.000 OA
BRANCH  25  27
ATOM     26  C   UNL     1       5.255   3.913  13.267  0.00  0.00    +0.000 C 
ATOM     27  C   UNL     1       6.475   3.966  14.174  0.00  0.00    +0.000 C 
ENDBRANCH  25  27
ENDBRANCH  23  25
ENDBRANCH  17  23
ENDBRANCH  13  20
ENDBRANCH  12  14
ENDBRANCH  11  12
ENDBRANCH   1  11
BRANCH   5  28
ATOM     28  C   UNL     1      -3.858  13.723  20.961  0.00  0.00    +0.000 C 
BRANCH  28  29
ATOM     29  C   UNL     1      -4.752  13.044  22.034  0.00  0.00    +0.000 C 
BRANCH  29  30
ATOM     30  N   UNL     1      -6.188  13.375  21.862  0.00  0.00    +0.000 NA
ATOM     31  C   UNL     1      -6.606  14.700  22.354  0.00  0.00    +0.000 C 
ATOM     32  C   UNL     1      -6.806  14.800  23.874  0.00  0.00    +0.000 C 
ATOM     33  O   UNL     1      -7.701  13.798  24.363  0.00  0.00    +0.000 OA
ATOM     34  C   UNL     1      -7.287  12.482  23.983  0.00  0.00    +0.000 C 
ATOM     35  C   UNL     1      -7.082  12.357  22.462  0.00  0.00    +0.000 C 
ENDBRANCH  29  30
ENDBRANCH  28  29
ENDBRANCH   5  28
TORSDOF 10
ENDMDL
MODEL 8
REMARK VINA RESULT:      -6.6      1.983      2.485
REMARK  Name = 
REMARK  11 active torsions:
REMARK  status: ('A' for Active; 'I' for Inactive)
REMARK    1  A    between atoms: C_1  and  C_2
REMARK    2  A    between atoms: C_2  and  O_3
REMARK    3  A    between atoms: O_3  and  C_4
REMARK    4  A    between atoms: C_4  and  C_6
REMARK    5  A    between atoms: C_9  and  N_10
REMARK    6  A    between atoms: C_11  and  C_13
REMARK    7  A    between atoms: C_13  and  S_14
REMARK    8  A    between atoms: S_14  and  C_15
REMARK    9  A    between atoms: N_19  and  C_20
REMARK   10  A    between atoms: C_20  and  C_21
REMARK   11  A    between atoms: C_21  and  N_22
REMARK                            x       y       z     vdW  Elec       q    Type
REMARK                         _______ _______ _______ _____ _____    ______ ____
ROOT
ATOM      1  C   UNL     1       1.523   7.353  20.749  0.00  0.00    +0.000 A 
ATOM      2  N   UNL     1       0.709   7.647  21.705  0.00  0.00    +0.000 NA
ATOM      3  C   UNL     1      -0.080   8.777  21.582  0.00  0.00    +0.000 A 
ATOM      4  O   UNL     1      -0.905   9.032  22.462  0.00  0.00    +0.000 OA
ATOM      5  N   UNL     1       0.080   9.616  20.463  0.00  0.00    +0.000 N 
ATOM      6  C   UNL     1       0.969   9.246  19.463  0.00  0.00    +0.000 A 
ATOM      7  C   UNL     1       1.703   8.142  19.539  0.00  0.00    +0.000 A 
ATOM      8  C   UNL     1       2.550   7.915  18.341  0.00  0.00    +0.000 C 
ATOM      9  C   UNL     1       2.481   9.279  17.653  0.00  0.00    +0.000 C 
ATOM     10  C   UNL     1       1.205   9.956  18.167  0.00  0.00    +0.000 C 
ENDROOT
BRANCH   1  11
ATOM     11  S   UNL     1       2.547   5.945  20.796  0.00  0.00    +0.000 S 
BRANCH  11  12
ATOM     12  C   UNL     1       1.602   4.704  19.888  0.00  0.00    +0.000 C 
BRANCH  12  14
ATOM     13  N   UNL     1       3.636   4.719  18.486  0.00  0.00    +0.000 N 
ATOM     14  C   UNL     1       2.247   4.579  18.512  0.00  0.00    +0.000 C 
ATOM     15  O   UNL     1       1.538   4.381  17.526  0.00  0.00    +0.000 OA
ATOM     16  H   UNL     1       4.131   4.760  19.369  0.00  0.00    +0.000 HD
BRANCH  13  20
ATOM     17  C   UNL     1       6.080   4.610  15.045  0.00  0.00    +0.000 A 
ATOM     18  C   UNL     1       5.789   3.434  15.726  0.00  0.00    +0.000 A 
ATOM     19  C   UNL     1       4.964   3.474  16.845  0.00  0.00    +0.000 A 
ATOM     20  C   UNL     1       4.413   4.675  17.305  0.00  0.00    +0.000 A 
ATOM     21  C   UNL     1       4.645   5.843  16.567  0.00  0.00    +0.000 A 
ATOM     22  C   UNL     1       5.489   5.811  15.446  0.00  0.00    +0.000 A 
BRANCH  17  23
ATOM     23  C   UNL     1       6.917   4.592  13.830  0.00  0.00    +0.000 C 
ATOM     24  O   UNL     1       7.590   5.543  13.477  0.00  0.00    +0.000 OA
BRANCH  23  25
ATOM     25  O   UNL     1       6.728   3.427  13.166  0.00  0.00    +0.000 OA
BRANCH  25  27
ATOM     26  C   UNL     1       4.668   3.317  11.985  0.00  0.00    +0.000 C 
ATOM     27  C   UNL     1       6.166   3.552  11.854  0.00  0.00    +0.000 C 
ENDBRANCH  25  27
ENDBRANCH  23  25
ENDBRANCH  17  23
ENDBRANCH  13  20
ENDBRANCH  12  14
ENDBRANCH  11  12
ENDBRANCH   1  11
BRANCH   5  28
ATOM     28  C   UNL     1      -0.830  10.743  20.182  0.00  0.00    +0.000 C 
BRANCH  28  29
ATOM     29  C   UNL     1      -2.087  10.550  19.291  0.00  0.00    +0.000 C 
BRANCH  29  30
ATOM     30  N   UNL     1      -2.541  11.820  18.673  0.00  0.00    +0.000 NA
ATOM     31  C   UNL     1      -3.792  12.386  19.210  0.00  0.00    +0.000 C 
ATOM     32  C   UNL     1      -5.081  11.724  18.700  0.00  0.00    +0.000 C 
ATOM     33  O   UNL     1      -5.138  11.693  17.272  0.00  0.00    +0.000 OA
ATOM     34  C   UNL     1      -3.980  11.071  16.705  0.00  0.00    +0.000 C 
ATOM     35  C   UNL     1      -2.674  11.720  17.200  0.00  0.00    +0.000 C 
ENDBRANCH  29  30
ENDBRANCH  28  29
ENDBRANCH   5  28
TORSDOF 10
ENDMDL
MODEL 9
REMARK VINA RESULT:      -6.5      5.584      7.819
REMARK  Name = 
REMARK  11 active torsions:
REMARK  status: ('A' for Active; 'I' for Inactive)
REMARK    1  A    between atoms: C_1  and  C_2
REMARK    2  A    between atoms: C_2  and  O_3
REMARK    3  A    between atoms: O_3  and  C_4
REMARK    4  A    between atoms: C_4  and  C_6
REMARK    5  A    between atoms: C_9  and  N_10
REMARK    6  A    between atoms: C_11  and  C_13
REMARK    7  A    between atoms: C_13  and  S_14
REMARK    8  A    between atoms: S_14  and  C_15
REMARK    9  A    between atoms: N_19  and  C_20
REMARK   10  A    between atoms: C_20  and  C_21
REMARK   11  A    between atoms: C_21  and  N_22
REMARK                            x       y       z     vdW  Elec       q    Type
REMARK                         _______ _______ _______ _____ _____    ______ ____
ROOT
ATOM      1  C   UNL     1       4.898   6.400  17.646  0.00  0.00    +0.000 A 
ATOM      2  N   UNL     1       4.294   7.500  17.351  0.00  0.00    +0.000 NA
ATOM      3  C   UNL     1       3.115   7.806  18.007  0.00  0.00    +0.000 A 
ATOM      4  O   UNL     1       2.561   8.884  17.778  0.00  0.00    +0.000 OA
ATOM      5  N   UNL     1       2.566   6.881  18.915  0.00  0.00    +0.000 N 
ATOM      6  C   UNL     1       3.264   5.715  19.197  0.00  0.00    +0.000 A 
ATOM      7  C   UNL     1       4.420   5.422  18.612  0.00  0.00    +0.000 A 
ATOM      8  C   UNL     1       5.017   4.151  19.093  0.00  0.00    +0.000 C 
ATOM      9  C   UNL     1       3.836   3.516  19.828  0.00  0.00    +0.000 C 
ATOM     10  C   UNL     1       2.889   4.664  20.194  0.00  0.00    +0.000 C 
ENDROOT
BRANCH   1  11
ATOM     11  S   UNL     1       6.396   5.928  16.892  0.00  0.00    +0.000 S 
BRANCH  11  12
ATOM     12  C   UNL     1       7.642   6.348  18.128  0.00  0.00    +0.000 C 
BRANCH  12  14
ATOM     13  N   UNL     1       8.664   8.426  18.987  0.00  0.00    +0.000 N 
ATOM     14  C   UNL     1       7.977   7.823  17.933  0.00  0.00    +0.000 C 
ATOM     15  O   UNL     1       7.625   8.392  16.900  0.00  0.00    +0.000 OA
ATOM     16  H   UNL     1       9.007   7.837  19.737  0.00  0.00    +0.000 HD
BRANCH  13  20
ATOM     17  C   UNL     1       9.896  12.465  19.045  0.00  0.00    +0.000 A 
ATOM     18  C   UNL     1       9.503  11.877  17.848  0.00  0.00    +0.000 A 
ATOM     19  C   UNL     1       9.075  10.553  17.841  0.00  0.00    +0.000 A 
ATOM     20  C   UNL     1       9.028   9.793  19.014  0.00  0.00    +0.000 A 
ATOM     21  C   UNL     1       9.349  10.415  20.228  0.00  0.00    +0.000 A 
ATOM     22  C   UNL     1       9.795  11.747  20.239  0.00  0.00    +0.000 A 
BRANCH  17  23
ATOM     23  C   UNL     1      10.313  13.879  19.090  0.00  0.00    +0.000 C 
ATOM     24  O   UNL     1      11.373  14.271  18.636  0.00  0.00    +0.000 OA
BRANCH  23  25
ATOM     25  O   UNL     1       9.398  14.600  19.782  0.00  0.00    +0.000 OA
BRANCH  25  27
ATOM     26  C   UNL     1      10.096  14.966  22.025  0.00  0.00    +0.000 C 
ATOM     27  C   UNL     1       9.938  15.602  20.652  0.00  0.00    +0.000 C 
ENDBRANCH  25  27
ENDBRANCH  23  25
ENDBRANCH  17  23
ENDBRANCH  13  20
ENDBRANCH  12  14
ENDBRANCH  11  12
ENDBRANCH   1  11
BRANCH   5  28
ATOM     28  C   UNL     1       1.406   7.203  19.770  0.00  0.00    +0.000 C 
BRANCH  28  29
ATOM     29  C   UNL     1       1.363   8.517  20.595  0.00  0.00    +0.000 C 
BRANCH  29  30
ATOM     30  N   UNL     1      -0.024   8.968  20.866  0.00  0.00    +0.000 NA
ATOM     31  C   UNL     1      -0.290  10.400  20.639  0.00  0.00    +0.000 C 
ATOM     32  C   UNL     1       0.191  11.340  21.754  0.00  0.00    +0.000 C 
ATOM     33  O   UNL     1      -0.312  10.952  23.035  0.00  0.00    +0.000 OA
ATOM     34  C   UNL     1      -0.001   9.589  23.340  0.00  0.00    +0.000 C 
ATOM     35  C   UNL     1      -0.476   8.627  22.235  0.00  0.00    +0.000 C 
ENDBRANCH  29  30
ENDBRANCH  28  29
ENDBRANCH   5  28
TORSDOF 10
ENDMDL
