MODEL 1
REMARK VINA RESULT:      -7.2      0.000      0.000
REMARK  Name = 
REMARK  3 active torsions:
REMARK  status: ('A' for Active; 'I' for Inactive)
REMARK    1  A    between atoms: C_11  and  O_12
REMARK    2  A    between atoms: O_12  and  C_13
REMARK    3  A    between atoms: C_13  and  C_14
REMARK                            x       y       z     vdW  Elec       q    Type
REMARK                         _______ _______ _______ _____ _____    ______ ____
ROOT
ATOM      1  O   UNL     1       2.178   5.275  21.113  0.00  0.00    +0.000 OA
ATOM      2  C   UNL     1       2.220   5.751  19.978  0.00  0.00    +0.000 C 
ATOM      3  N   UNL     1       1.972   7.092  19.711  0.00  0.00    +0.000 N 
ATOM      4  C   UNL     1       1.650   7.968  20.833  0.00  0.00    +0.000 C 
ATOM      5  C   UNL     1       0.667   9.061  20.418  0.00  0.00    +0.000 C 
ATOM      6  C   UNL     1       1.113   9.791  19.152  0.00  0.00    +0.000 C 
ATOM      7  C   UNL     1       1.468   8.807  18.037  0.00  0.00    +0.000 C 
ATOM      8  C   UNL     1       2.483   7.785  18.529  0.00  0.00    +0.000 C 
ATOM      9  N   UNL     1       2.549   4.979  18.893  0.00  0.00    +0.000 N 
ATOM     10  C   UNL     1       2.911   3.561  18.977  0.00  0.00    +0.000 C 
ATOM     11  C   UNL     1       2.669   3.544  17.448  0.00  0.00    +0.000 C 
ATOM     12  C   UNL     1       1.679   4.699  17.738  0.00  0.00    +0.000 C 
ENDROOT
BRANCH  11  13
ATOM     13  O   UNL     1       3.780   3.903  16.579  0.00  0.00    +0.000 OA
BRANCH  13  14
ATOM     14  C   UNL     1       5.072   3.449  16.980  0.00  0.00    +0.000 C 
BRANCH  14  15
ATOM     15  C   UNL     1       5.975   4.607  17.295  0.00  0.00    +0.000 A 
ATOM     16  C   UNL     1       6.340   4.922  18.611  0.00  0.00    +0.000 A 
ATOM     17  C   UNL     1       7.218   5.972  18.863  0.00  0.00    +0.000 A 
ATOM     18  C   UNL     1       7.725   6.677  17.784  0.00  0.00    +0.000 A 
ATOM     19  N   UNL     1       7.426   6.393  16.502  0.00  0.00    +0.000 NA
ATOM     20  C   UNL     1       6.571   5.365  16.290  0.00  0.00    +0.000 A 
ATOM     21 CL   UNL     1       6.317   5.056  14.614  0.00  0.00    +0.000 Cl
ENDBRANCH  14  15
ENDBRANCH  13  14
ENDBRANCH  11  13
TORSDOF 3
ENDMDL
MODEL 2
REMARK VINA RESULT:      -7.1      1.509      2.190
REMARK  Name = 
REMARK  3 active torsions:
REMARK  status: ('A' for Active; 'I' for Inactive)
REMARK    1  A    between atoms: C_11  and  O_12
REMARK    2  A    between atoms: O_12  and  C_13
REMARK    3  A    between atoms: C_13  and  C_14
REMARK                            x       y       z     vdW  Elec       q    Type
REMARK                         _______ _______ _______ _____ _____    ______ ____
ROOT
ATOM      1  O   UNL     1       2.289   5.516  21.188  0.00  0.00    +0.000 OA
ATOM      2  C   UNL     1       2.260   6.021  20.065  0.00  0.00    +0.000 C 
ATOM      3  N   UNL     1       1.870   7.335  19.837  0.00  0.00    +0.000 N 
ATOM      4  C   UNL     1       1.483   8.147  20.985  0.00  0.00    +0.000 C 
ATOM      5  C   UNL     1       0.385   9.142  20.616  0.00  0.00    +0.000 C 
ATOM      6  C   UNL     1       0.729   9.944  19.361  0.00  0.00    +0.000 C 
ATOM      7  C   UNL     1       1.160   9.028  18.216  0.00  0.00    +0.000 C 
ATOM      8  C   UNL     1       2.284   8.104  18.663  0.00  0.00    +0.000 C 
ATOM      9  N   UNL     1       2.644   5.312  18.955  0.00  0.00    +0.000 N 
ATOM     10  C   UNL     1       3.151   3.937  18.997  0.00  0.00    +0.000 C 
ATOM     11  C   UNL     1       2.882   3.931  17.472  0.00  0.00    +0.000 C 
ATOM     12  C   UNL     1       1.785   4.971  17.808  0.00  0.00    +0.000 C 
ENDROOT
BRANCH  11  13
ATOM     13  O   UNL     1       3.933   4.423  16.594  0.00  0.00    +0.000 OA
BRANCH  13  14
ATOM     14  C   UNL     1       5.144   3.668  16.568  0.00  0.00    +0.000 C 
BRANCH  14  15
ATOM     15  C   UNL     1       6.022   4.097  15.427  0.00  0.00    +0.000 A 
ATOM     16  C   UNL     1       5.833   3.610  14.126  0.00  0.00    +0.000 A 
ATOM     17  C   UNL     1       6.634   4.066  13.083  0.00  0.00    +0.000 A 
ATOM     18  C   UNL     1       7.600   5.016  13.366  0.00  0.00    +0.000 A 
ATOM     19  N   UNL     1       7.800   5.534  14.593  0.00  0.00    +0.000 NA
ATOM     20  C   UNL     1       7.005   5.071  15.585  0.00  0.00    +0.000 A 
ATOM     21 CL   UNL     1       7.308   5.853  17.090  0.00  0.00    +0.000 Cl
ENDBRANCH  14  15
ENDBRANCH  13  14
ENDBRANCH  11  13
TORSDOF 3
ENDMDL
MODEL 3
REMARK VINA RESULT:      -7.0      3.137      7.010
REMARK  Name = 
REMARK  3 active torsions:
REMARK  status: ('A' for Active; 'I' for Inactive)
REMARK    1  A    between atoms: C_11  and  O_12
REMARK    2  A    between atoms: O_12  and  C_13
REMARK    3  A    between atoms: C_13  and  C_14
REMARK                            x       y       z     vdW  Elec       q    Type
REMARK                         _______ _______ _______ _____ _____    ______ ____
ROOT
ATOM      1  O   UNL     1       2.865   3.285  17.134  0.00  0.00    +0.000 OA
ATOM      2  C   UNL     1       3.424   4.328  17.475  0.00  0.00    +0.000 C 
ATOM      3  N   UNL     1       4.575   4.805  16.861  0.00  0.00    +0.000 N 
ATOM      4  C   UNL     1       5.139   4.030  15.761  0.00  0.00    +0.000 C 
ATOM      5  C   UNL     1       6.663   4.133  15.735  0.00  0.00    +0.000 C 
ATOM      6  C   UNL     1       7.146   5.582  15.801  0.00  0.00    +0.000 C 
ATOM      7  C   UNL     1       6.484   6.337  16.953  0.00  0.00    +0.000 C 
ATOM      8  C   UNL     1       4.969   6.214  16.873  0.00  0.00    +0.000 C 
ATOM      9  N   UNL     1       2.918   5.112  18.481  0.00  0.00    +0.000 N 
ATOM     10  C   UNL     1       1.677   4.815  19.204  0.00  0.00    +0.000 C 
ATOM     11  C   UNL     1       2.185   5.852  20.236  0.00  0.00    +0.000 C 
ATOM     12  C   UNL     1       3.594   5.428  19.752  0.00  0.00    +0.000 C 
ENDROOT
BRANCH  11  13
ATOM     13  O   UNL     1       1.862   7.253  20.008  0.00  0.00    +0.000 OA
BRANCH  13  14
ATOM     14  C   UNL     1       1.375   7.983  21.133  0.00  0.00    +0.000 C 
BRANCH  14  15
ATOM     15  C   UNL     1       0.693   9.249  20.698  0.00  0.00    +0.000 A 
ATOM     16  C   UNL     1       0.705   9.673  19.363  0.00  0.00    +0.000 A 
ATOM     17  C   UNL     1       0.020  10.826  18.987  0.00  0.00    +0.000 A 
ATOM     18  C   UNL     1      -0.675  11.522  19.960  0.00  0.00    +0.000 A 
ATOM     19  N   UNL     1      -0.739  11.138  21.250  0.00  0.00    +0.000 NA
ATOM     20  C   UNL     1      -0.065  10.013  21.582  0.00  0.00    +0.000 A 
ATOM     21 CL   UNL     1      -0.274   9.587  23.239  0.00  0.00    +0.000 Cl
ENDBRANCH  14  15
ENDBRANCH  13  14
ENDBRANCH  11  13
TORSDOF 3
ENDMDL
MODEL 4
REMARK VINA RESULT:      -7.0      3.812      6.974
REMARK  Name = 
REMARK  3 active torsions:
REMARK  status: ('A' for Active; 'I' for Inactive)
REMARK    1  A    between atoms: C_11  and  O_12
REMARK    2  A    between atoms: O_12  and  C_13
REMARK    3  A    between atoms: C_13  and  C_14
REMARK                            x       y       z     vdW  Elec       q    Type
REMARK                         _______ _______ _______ _____ _____    ______ ____
ROOT
ATOM      1  O   UNL     1       7.545   6.103  16.092  0.00  0.00    +0.000 OA
ATOM      2  C   UNL     1       6.847   5.207  15.615  0.00  0.00    +0.000 C 
ATOM      3  N   UNL     1       6.972   4.769  14.302  0.00  0.00    +0.000 N 
ATOM      4  C   UNL     1       7.980   5.403  13.459  0.00  0.00    +0.000 C 
ATOM      5  C   UNL     1       7.520   5.476  12.005  0.00  0.00    +0.000 C 
ATOM      6  C   UNL     1       7.020   4.128  11.488  0.00  0.00    +0.000 C 
ATOM      7  C   UNL     1       5.997   3.511  12.441  0.00  0.00    +0.000 C 
ATOM      8  C   UNL     1       6.558   3.440  13.855  0.00  0.00    +0.000 C 
ATOM      9  N   UNL     1       5.907   4.556  16.373  0.00  0.00    +0.000 N 
ATOM     10  C   UNL     1       5.672   4.826  17.795  0.00  0.00    +0.000 C 
ATOM     11  C   UNL     1       4.348   4.050  17.588  0.00  0.00    +0.000 C 
ATOM     12  C   UNL     1       4.455   4.545  16.124  0.00  0.00    +0.000 C 
ENDROOT
BRANCH  11  13
ATOM     13  O   UNL     1       4.376   2.602  17.740  0.00  0.00    +0.000 OA
BRANCH  13  14
ATOM     14  C   UNL     1       3.127   1.967  18.010  0.00  0.00    +0.000 C 
BRANCH  14  15
ATOM     15  C   UNL     1       2.561   2.428  19.323  0.00  0.00    +0.000 A 
ATOM     16  C   UNL     1       1.247   2.902  19.435  0.00  0.00    +0.000 A 
ATOM     17  C   UNL     1       0.740   3.275  20.677  0.00  0.00    +0.000 A 
ATOM     18  C   UNL     1       1.560   3.151  21.784  0.00  0.00    +0.000 A 
ATOM     19  N   UNL     1       2.820   2.675  21.730  0.00  0.00    +0.000 NA
ATOM     20  C   UNL     1       3.282   2.319  20.509  0.00  0.00    +0.000 A 
ATOM     21 CL   UNL     1       4.875   1.666  20.575  0.00  0.00    +0.000 Cl
ENDBRANCH  14  15
ENDBRANCH  13  14
ENDBRANCH  11  13
TORSDOF 3
ENDMDL
MODEL 5
REMARK VINA RESULT:      -6.8      2.831      4.627
REMARK  Name = 
REMARK  3 active torsions:
REMARK  status: ('A' for Active; 'I' for Inactive)
REMARK    1  A    between atoms: C_11  and  O_12
REMARK    2  A    between atoms: O_12  and  C_13
REMARK    3  A    between atoms: C_13  and  C_14
REMARK                            x       y       z     vdW  Elec       q    Type
REMARK                         _______ _______ _______ _____ _____    ______ ____
ROOT
ATOM      1  O   UNL     1       1.917   6.018  17.923  0.00  0.00    +0.000 OA
ATOM      2  C   UNL     1       2.813   5.263  18.300  0.00  0.00    +0.000 C 
ATOM      3  N   UNL     1       2.597   4.216  19.189  0.00  0.00    +0.000 N 
ATOM      4  C   UNL     1       1.243   4.009  19.690  0.00  0.00    +0.000 C 
ATOM      5  C   UNL     1       1.257   3.485  21.124  0.00  0.00    +0.000 C 
ATOM      6  C   UNL     1       2.185   2.282  21.292  0.00  0.00    +0.000 C 
ATOM      7  C   UNL     1       3.570   2.562  20.711  0.00  0.00    +0.000 C 
ATOM      8  C   UNL     1       3.459   3.037  19.268  0.00  0.00    +0.000 C 
ATOM      9  N   UNL     1       4.098   5.393  17.835  0.00  0.00    +0.000 N 
ATOM     10  C   UNL     1       4.511   6.390  16.843  0.00  0.00    +0.000 C 
ATOM     11  C   UNL     1       5.952   6.055  17.301  0.00  0.00    +0.000 C 
ATOM     12  C   UNL     1       5.284   5.699  18.653  0.00  0.00    +0.000 C 
ENDROOT
BRANCH  11  13
ATOM     13  O   UNL     1       6.632   4.945  16.651  0.00  0.00    +0.000 OA
BRANCH  13  14
ATOM     14  C   UNL     1       7.495   5.277  15.564  0.00  0.00    +0.000 C 
BRANCH  14  15
ATOM     15  C   UNL     1       7.015   4.653  14.285  0.00  0.00    +0.000 A 
ATOM     16  C   UNL     1       5.861   3.859  14.239  0.00  0.00    +0.000 A 
ATOM     17  C   UNL     1       5.418   3.336  13.027  0.00  0.00    +0.000 A 
ATOM     18  C   UNL     1       6.137   3.634  11.882  0.00  0.00    +0.000 A 
ATOM     19  N   UNL     1       7.235   4.415  11.873  0.00  0.00    +0.000 NA
ATOM     20  C   UNL     1       7.639   4.909  13.066  0.00  0.00    +0.000 A 
ATOM     21 CL   UNL     1       9.010   5.942  12.920  0.00  0.00    +0.000 Cl
ENDBRANCH  14  15
ENDBRANCH  13  14
ENDBRANCH  11  13
TORSDOF 3
ENDMDL
MODEL 6
REMARK VINA RESULT:      -6.7      2.712      4.615
REMARK  Name = 
REMARK  3 active torsions:
REMARK  status: ('A' for Active; 'I' for Inactive)
REMARK    1  A    between atoms: C_11  and  O_12
REMARK    2  A    between atoms: O_12  and  C_13
REMARK    3  A    between atoms: C_13  and  C_14
REMARK                            x       y       z     vdW  Elec       q    Type
REMARK                         _______ _______ _______ _____ _____    ______ ____
ROOT
ATOM      1  O   UNL     1       2.621   6.738  19.576  0.00  0.00    +0.000 OA
ATOM      2  C   UNL     1       3.027   5.808  18.879  0.00  0.00    +0.000 C 
ATOM      3  N   UNL     1       2.380   4.581  18.804  0.00  0.00    +0.000 N 
ATOM      4  C   UNL     1       1.163   4.396  19.588  0.00  0.00    +0.000 C 
ATOM      5  C   UNL     1       1.030   2.954  20.072  0.00  0.00    +0.000 C 
ATOM      6  C   UNL     1       1.213   1.943  18.940  0.00  0.00    +0.000 C 
ATOM      7  C   UNL     1       2.487   2.225  18.143  0.00  0.00    +0.000 C 
ATOM      8  C   UNL     1       2.511   3.671  17.666  0.00  0.00    +0.000 C 
ATOM      9  N   UNL     1       4.147   5.939  18.097  0.00  0.00    +0.000 N 
ATOM     10  C   UNL     1       4.927   7.176  17.988  0.00  0.00    +0.000 C 
ATOM     11  C   UNL     1       6.021   6.274  17.365  0.00  0.00    +0.000 C 
ATOM     12  C   UNL     1       5.388   5.156  18.229  0.00  0.00    +0.000 C 
ENDROOT
BRANCH  11  13
ATOM     13  O   UNL     1       5.970   6.033  15.930  0.00  0.00    +0.000 OA
BRANCH  13  14
ATOM     14  C   UNL     1       7.156   5.514  15.330  0.00  0.00    +0.000 C 
BRANCH  14  15
ATOM     15  C   UNL     1       6.834   4.745  14.080  0.00  0.00    +0.000 A 
ATOM     16  C   UNL     1       5.707   3.917  13.991  0.00  0.00    +0.000 A 
ATOM     17  C   UNL     1       5.413   3.258  12.801  0.00  0.00    +0.000 A 
ATOM     18  C   UNL     1       6.251   3.457  11.717  0.00  0.00    +0.000 A 
ATOM     19  N   UNL     1       7.329   4.265  11.746  0.00  0.00    +0.000 NA
ATOM     20  C   UNL     1       7.586   4.892  12.917  0.00  0.00    +0.000 A 
ATOM     21 CL   UNL     1       8.946   5.945  12.813  0.00  0.00    +0.000 Cl
ENDBRANCH  14  15
ENDBRANCH  13  14
ENDBRANCH  11  13
TORSDOF 3
ENDMDL
MODEL 7
REMARK VINA RESULT:      -6.7      2.833      6.040
REMARK  Name = 
REMARK  3 active torsions:
REMARK  status: ('A' for Active; 'I' for Inactive)
REMARK    1  A    between atoms: C_11  and  O_12
REMARK    2  A    between atoms: O_12  and  C_13
REMARK    3  A    between atoms: C_13  and  C_14
REMARK                            x       y       z     vdW  Elec       q    Type
REMARK                         _______ _______ _______ _____ _____    ______ ____
ROOT
ATOM      1  O   UNL     1       3.891   2.131  17.315  0.00  0.00    +0.000 OA
ATOM      2  C   UNL     1       3.988   3.323  17.608  0.00  0.00    +0.000 C 
ATOM      3  N   UNL     1       4.821   4.203  16.930  0.00  0.00    +0.000 N 
ATOM      4  C   UNL     1       5.611   3.684  15.819  0.00  0.00    +0.000 C 
ATOM      5  C   UNL     1       6.958   4.397  15.716  0.00  0.00    +0.000 C 
ATOM      6  C   UNL     1       6.811   5.918  15.731  0.00  0.00    +0.000 C 
ATOM      7  C   UNL     1       5.941   6.381  16.899  0.00  0.00    +0.000 C 
ATOM      8  C   UNL     1       4.606   5.650  16.895  0.00  0.00    +0.000 C 
ATOM      9  N   UNL     1       3.244   3.870  18.623  0.00  0.00    +0.000 N 
ATOM     10  C   UNL     1       2.259   3.121  19.411  0.00  0.00    +0.000 C 
ATOM     11  C   UNL     1       2.338   4.313  20.397  0.00  0.00    +0.000 C 
ATOM     12  C   UNL     1       3.778   4.481  19.853  0.00  0.00    +0.000 C 
ENDROOT
BRANCH  11  13
ATOM     13  O   UNL     1       1.464   5.452  20.158  0.00  0.00    +0.000 OA
BRANCH  13  14
ATOM     14  C   UNL     1       1.766   6.646  20.879  0.00  0.00    +0.000 C 
BRANCH  14  15
ATOM     15  C   UNL     1       1.700   7.849  19.981  0.00  0.00    +0.000 A 
ATOM     16  C   UNL     1       2.327   7.870  18.728  0.00  0.00    +0.000 A 
ATOM     17  C   UNL     1       2.204   8.983  17.901  0.00  0.00    +0.000 A 
ATOM     18  C   UNL     1       1.439  10.048  18.344  0.00  0.00    +0.000 A 
ATOM     19  N   UNL     1       0.795  10.062  19.528  0.00  0.00    +0.000 NA
ATOM     20  C   UNL     1       0.933   8.965  20.307  0.00  0.00    +0.000 A 
ATOM     21 CL   UNL     1       0.014   9.072  21.761  0.00  0.00    +0.000 Cl
ENDBRANCH  14  15
ENDBRANCH  13  14
ENDBRANCH  11  13
TORSDOF 3
ENDMDL
MODEL 8
REMARK VINA RESULT:      -6.6      3.439      6.636
REMARK  Name = 
REMARK  3 active torsions:
REMARK  status: ('A' for Active; 'I' for Inactive)
REMARK    1  A    between atoms: C_11  and  O_12
REMARK    2  A    between atoms: O_12  and  C_13
REMARK    3  A    between atoms: C_13  and  C_14
REMARK                            x       y       z     vdW  Elec       q    Type
REMARK                         _______ _______ _______ _____ _____    ______ ____
ROOT
ATOM      1  O   UNL     1       7.807   6.558  16.506  0.00  0.00    +0.000 OA
ATOM      2  C   UNL     1       7.068   5.583  16.369  0.00  0.00    +0.000 C 
ATOM      3  N   UNL     1       6.917   4.912  15.162  0.00  0.00    +0.000 N 
ATOM      4  C   UNL     1       7.676   5.390  14.011  0.00  0.00    +0.000 C 
ATOM      5  C   UNL     1       6.898   5.189  12.712  0.00  0.00    +0.000 C 
ATOM      6  C   UNL     1       6.364   3.764  12.571  0.00  0.00    +0.000 C 
ATOM      7  C   UNL     1       5.615   3.323  13.828  0.00  0.00    +0.000 C 
ATOM      8  C   UNL     1       6.482   3.519  15.064  0.00  0.00    +0.000 C 
ATOM      9  N   UNL     1       6.356   5.074  17.426  0.00  0.00    +0.000 N 
ATOM     10  C   UNL     1       6.433   5.598  18.793  0.00  0.00    +0.000 C 
ATOM     11  C   UNL     1       5.138   4.785  19.037  0.00  0.00    +0.000 C 
ATOM     12  C   UNL     1       4.888   5.004  17.524  0.00  0.00    +0.000 C 
ENDROOT
BRANCH  11  13
ATOM     13  O   UNL     1       5.275   3.391  19.433  0.00  0.00    +0.000 OA
BRANCH  13  14
ATOM     14  C   UNL     1       4.407   2.937  20.471  0.00  0.00    +0.000 C 
BRANCH  14  15
ATOM     15  C   UNL     1       2.975   2.943  20.016  0.00  0.00    +0.000 A 
ATOM     16  C   UNL     1       2.005   3.738  20.642  0.00  0.00    +0.000 A 
ATOM     17  C   UNL     1       0.698   3.756  20.163  0.00  0.00    +0.000 A 
ATOM     18  C   UNL     1       0.395   2.985  19.054  0.00  0.00    +0.000 A 
ATOM     19  N   UNL     1       1.299   2.228  18.403  0.00  0.00    +0.000 NA
ATOM     20  C   UNL     1       2.561   2.233  18.892  0.00  0.00    +0.000 A 
ATOM     21 CL   UNL     1       3.638   1.284  17.940  0.00  0.00    +0.000 Cl
ENDBRANCH  14  15
ENDBRANCH  13  14
ENDBRANCH  11  13
TORSDOF 3
ENDMDL
MODEL 9
REMARK VINA RESULT:      -6.6      3.621      7.166
REMARK  Name = 
REMARK  3 active torsions:
REMARK  status: ('A' for Active; 'I' for Inactive)
REMARK    1  A    between atoms: C_11  and  O_12
REMARK    2  A    between atoms: O_12  and  C_13
REMARK    3  A    between atoms: C_13  and  C_14
REMARK                            x       y       z     vdW  Elec       q    Type
REMARK                         _______ _______ _______ _____ _____    ______ ____
ROOT
ATOM      1  O   UNL     1       4.711   5.344  18.023  0.00  0.00    +0.000 OA
ATOM      2  C   UNL     1       3.661   5.556  18.630  0.00  0.00    +0.000 C 
ATOM      3  N   UNL     1       3.076   4.625  19.479  0.00  0.00    +0.000 N 
ATOM      4  C   UNL     1       3.746   3.341  19.656  0.00  0.00    +0.000 C 
ATOM      5  C   UNL     1       2.737   2.214  19.869  0.00  0.00    +0.000 C 
ATOM      6  C   UNL     1       1.714   2.550  20.955  0.00  0.00    +0.000 C 
ATOM      7  C   UNL     1       1.085   3.923  20.721  0.00  0.00    +0.000 C 
ATOM      8  C   UNL     1       2.163   4.986  20.564  0.00  0.00    +0.000 C 
ATOM      9  N   UNL     1       3.007   6.758  18.524  0.00  0.00    +0.000 N 
ATOM     10  C   UNL     1       3.499   7.891  17.733  0.00  0.00    +0.000 C 
ATOM     11  C   UNL     1       2.062   8.448  17.881  0.00  0.00    +0.000 C 
ATOM     12  C   UNL     1       1.650   6.958  17.986  0.00  0.00    +0.000 C 
ENDROOT
BRANCH  11  13
ATOM     13  O   UNL     1       1.758   9.245  19.060  0.00  0.00    +0.000 OA
BRANCH  13  14
ATOM     14  C   UNL     1       0.498   9.914  19.068  0.00  0.00    +0.000 C 
BRANCH  14  15
ATOM     15  C   UNL     1      -0.020  10.071  20.469  0.00  0.00    +0.000 A 
ATOM     16  C   UNL     1       0.261   9.131  21.470  0.00  0.00    +0.000 A 
ATOM     17  C   UNL     1      -0.194   9.334  22.770  0.00  0.00    +0.000 A 
ATOM     18  C   UNL     1      -0.911  10.486  23.042  0.00  0.00    +0.000 A 
ATOM     19  N   UNL     1      -1.181  11.431  22.120  0.00  0.00    +0.000 NA
ATOM     20  C   UNL     1      -0.723  11.206  20.867  0.00  0.00    +0.000 A 
ATOM     21 CL   UNL     1      -1.072  12.509  19.795  0.00  0.00    +0.000 Cl
ENDBRANCH  14  15
ENDBRANCH  13  14
ENDBRANCH  11  13
TORSDOF 3
ENDMDL
