MODEL 1
REMARK VINA RESULT:      -5.0      0.000      0.000
REMARK  Name = 
REMARK  20 active torsions:
REMARK  status: ('A' for Active; 'I' for Inactive)
REMARK    1  A    between atoms: C_1  and  C_2
REMARK    2  A    between atoms: C_2  and  N_3
REMARK    3  A    between atoms: N_3  and  C_4
REMARK    4  A    between atoms: C_4  and  N_6
REMARK    5  A    between atoms: N_6  and  C_7
REMARK    6  A    between atoms: C_7  and  C_8
REMARK    7  A    between atoms: C_8  and  C_9
REMARK    8  A    between atoms: C_9  and  N_10
REMARK    9  A    between atoms: N_10  and  C_11
REMARK   10  A    between atoms: C_11  and  C_12
REMARK   11  A    between atoms: C_12  and  C_13
REMARK   12  A    between atoms: C_13  and  N_14
REMARK   13  A    between atoms: N_14  and  C_15
REMARK   14  A    between atoms: C_15  and  C_16
REMARK   15  A    between atoms: C_16  and  C_17
REMARK   16  A    between atoms: C_17  and  N_18
REMARK   17  A    between atoms: N_18  and  C_19
REMARK   18  A    between atoms: C_19  and  N_21
REMARK   19  A    between atoms: N_21  and  C_22
REMARK   20  A    between atoms: C_22  and  C_23
REMARK                            x       y       z     vdW  Elec       q    Type
REMARK                         _______ _______ _______ _____ _____    ______ ____
ROOT
ATOM      1  C   UNL     1       2.064   5.127  20.812  0.00  0.00    +0.000 C 
ENDROOT
BRANCH   1   2
ATOM      2  C   UNL     1       1.105   3.971  20.512  0.00  0.00    +0.000 C 
BRANCH   2   3
ATOM      3  N   UNL     1       1.220   3.556  19.110  0.00  0.00    +0.000 NA
ATOM      4  H   UNL     1       0.269   3.528  18.682  0.00  0.00    +0.000 HD
BRANCH   3   5
ATOM      5  C   UNL     1       1.715   2.190  19.014  0.00  0.00    +0.000 C 
BRANCH   5   6
ATOM      6  C   UNL     1       3.053   2.198  18.273  0.00  0.00    +0.000 C 
BRANCH   6   7
ATOM      7  C   UNL     1       2.993   3.227  17.163  0.00  0.00    +0.000 C 
BRANCH   7   8
ATOM      8  N   UNL     1       3.901   4.329  17.393  0.00  0.00    +0.000 N 
ATOM      9  H   UNL     1       3.573   5.163  17.910  0.00  0.00    +0.000 HD
BRANCH   8  10
ATOM     10  C   UNL     1       5.271   4.209  17.018  0.00  0.00    +0.000 C 
ATOM     11  S   UNL     1       5.628   4.288  15.621  0.00  0.00    +0.000 S 
BRANCH  10  12
ATOM     12  N   UNL     1       6.276   4.095  18.036  0.00  0.00    +0.000 N 
ATOM     13  H   UNL     1       6.031   3.629  18.921  0.00  0.00    +0.000 HD
BRANCH  12  15
ATOM     14  C   UNL     1       7.618   6.053  18.595  0.00  0.00    +0.000 C 
ATOM     15  C   UNL     1       7.598   4.675  17.938  0.00  0.00    +0.000 C 
ENDBRANCH  12  15
ENDBRANCH  10  12
ENDBRANCH   8  10
ENDBRANCH   7   8
ENDBRANCH   6   7
ENDBRANCH   5   6
ENDBRANCH   3   5
ENDBRANCH   2   3
ENDBRANCH   1   2
BRANCH   1  16
ATOM     16  C   UNL     1       1.362   6.482  20.696  0.00  0.00    +0.000 C 
BRANCH  16  17
ATOM     17  N   UNL     1       2.255   7.486  20.127  0.00  0.00    +0.000 NA
ATOM     18  H   UNL     1       3.139   7.497  20.693  0.00  0.00    +0.000 HD
BRANCH  17  19
ATOM     19  C   UNL     1       2.593   7.083  18.761  0.00  0.00    +0.000 C 
BRANCH  19  20
ATOM     20  C   UNL     1       2.705   8.303  17.862  0.00  0.00    +0.000 C 
BRANCH  20  21
ATOM     21  C   UNL     1       1.333   8.953  17.716  0.00  0.00    +0.000 C 
BRANCH  21  22
ATOM     22  N   UNL     1       1.315  10.267  18.327  0.00  0.00    +0.000 N 
ATOM     23  H   UNL     1       1.999  10.974  18.016  0.00  0.00    +0.000 HD
BRANCH  22  24
ATOM     24  C   UNL     1       0.345  10.660  19.300  0.00  0.00    +0.000 C 
ATOM     25  S   UNL     1       0.731  10.923  20.672  0.00  0.00    +0.000 S 
BRANCH  24  26
ATOM     26  N   UNL     1      -1.024  10.742  18.898  0.00  0.00    +0.000 N 
ATOM     27  H   UNL     1      -1.686  10.057  19.301  0.00  0.00    +0.000 HD
BRANCH  26  28
ATOM     28  C   UNL     1      -1.533  11.787  18.035  0.00  0.00    +0.000 C 
ATOM     29  C   UNL     1      -2.729  11.304  17.226  0.00  0.00    +0.000 C 
ENDBRANCH  26  28
ENDBRANCH  24  26
ENDBRANCH  22  24
ENDBRANCH  21  22
ENDBRANCH  20  21
ENDBRANCH  19  20
ENDBRANCH  17  19
ENDBRANCH  16  17
ENDBRANCH   1  16
TORSDOF 18
ENDMDL
MODEL 2
REMARK VINA RESULT:      -5.0      4.532      7.288
REMARK  Name = 
REMARK  20 active torsions:
REMARK  status: ('A' for Active; 'I' for Inactive)
REMARK    1  A    between atoms: C_1  and  C_2
REMARK    2  A    between atoms: C_2  and  N_3
REMARK    3  A    between atoms: N_3  and  C_4
REMARK    4  A    between atoms: C_4  and  N_6
REMARK    5  A    between atoms: N_6  and  C_7
REMARK    6  A    between atoms: C_7  and  C_8
REMARK    7  A    between atoms: C_8  and  C_9
REMARK    8  A    between atoms: C_9  and  N_10
REMARK    9  A    between atoms: N_10  and  C_11
REMARK   10  A    between atoms: C_11  and  C_12
REMARK   11  A    between atoms: C_12  and  C_13
REMARK   12  A    between atoms: C_13  and  N_14
REMARK   13  A    between atoms: N_14  and  C_15
REMARK   14  A    between atoms: C_15  and  C_16
REMARK   15  A    between atoms: C_16  and  C_17
REMARK   16  A    between atoms: C_17  and  N_18
REMARK   17  A    between atoms: N_18  and  C_19
REMARK   18  A    between atoms: C_19  and  N_21
REMARK   19  A    between atoms: N_21  and  C_22
REMARK   20  A    between atoms: C_22  and  C_23
REMARK                            x       y       z     vdW  Elec       q    Type
REMARK                         _______ _______ _______ _____ _____    ______ ____
ROOT
ATOM      1  C   UNL     1       5.289   5.072  17.225  0.00  0.00    +0.000 C 
ENDROOT
BRANCH   1   2
ATOM      2  C   UNL     1       6.706   5.192  16.653  0.00  0.00    +0.000 C 
BRANCH   2   3
ATOM      3  N   UNL     1       7.065   6.601  16.458  0.00  0.00    +0.000 NA
ATOM      4  H   UNL     1       7.811   6.667  15.731  0.00  0.00    +0.000 HD
BRANCH   3   5
ATOM      5  C   UNL     1       7.665   7.154  17.663  0.00  0.00    +0.000 C 
BRANCH   5   6
ATOM      6  C   UNL     1       7.653   8.680  17.569  0.00  0.00    +0.000 C 
BRANCH   6   7
ATOM      7  C   UNL     1       8.689   9.238  18.522  0.00  0.00    +0.000 C 
BRANCH   7   8
ATOM      8  N   UNL     1       9.300  10.447  18.013  0.00  0.00    +0.000 N 
ATOM      9  H   UNL     1       9.620  10.484  17.030  0.00  0.00    +0.000 HD
BRANCH   8  10
ATOM     10  C   UNL     1       9.346  11.616  18.828  0.00  0.00    +0.000 C 
ATOM     11  S   UNL     1       9.690  11.488  20.224  0.00  0.00    +0.000 S 
BRANCH  10  12
ATOM     12  N   UNL     1       9.131  12.903  18.231  0.00  0.00    +0.000 N 
ATOM     13  H   UNL     1       8.189  13.137  17.889  0.00  0.00    +0.000 HD
BRANCH  12  15
ATOM     14  C   UNL     1      11.131  13.359  16.912  0.00  0.00    +0.000 C 
ATOM     15  C   UNL     1      10.181  13.870  17.991  0.00  0.00    +0.000 C 
ENDBRANCH  12  15
ENDBRANCH  10  12
ENDBRANCH   8  10
ENDBRANCH   7   8
ENDBRANCH   6   7
ENDBRANCH   5   6
ENDBRANCH   3   5
ENDBRANCH   2   3
ENDBRANCH   1   2
BRANCH   1  16
ATOM     16  C   UNL     1       5.236   4.074  18.384  0.00  0.00    +0.000 C 
BRANCH  16  17
ATOM     17  N   UNL     1       3.861   3.676  18.668  0.00  0.00    +0.000 NA
ATOM     18  H   UNL     1       3.433   4.400  19.296  0.00  0.00    +0.000 HD
BRANCH  17  19
ATOM     19  C   UNL     1       3.114   3.664  17.409  0.00  0.00    +0.000 C 
BRANCH  19  20
ATOM     20  C   UNL     1       1.652   3.996  17.657  0.00  0.00    +0.000 C 
BRANCH  20  21
ATOM     21  C   UNL     1       1.084   3.035  18.698  0.00  0.00    +0.000 C 
BRANCH  21  22
ATOM     22  N   UNL     1       0.787   3.728  19.935  0.00  0.00    +0.000 N 
ATOM     23  H   UNL     1      -0.172   4.076  20.096  0.00  0.00    +0.000 HD
BRANCH  22  24
ATOM     24  C   UNL     1       1.743   3.896  20.983  0.00  0.00    +0.000 C 
ATOM     25  S   UNL     1       2.153   2.774  21.803  0.00  0.00    +0.000 S 
BRANCH  24  26
ATOM     26  N   UNL     1       2.251   5.208  21.234  0.00  0.00    +0.000 N 
ATOM     27  H   UNL     1       3.068   5.296  21.861  0.00  0.00    +0.000 HD
BRANCH  26  28
ATOM     28  C   UNL     1       1.732   6.393  20.584  0.00  0.00    +0.000 C 
ATOM     29  C   UNL     1       2.648   6.854  19.458  0.00  0.00    +0.000 C 
ENDBRANCH  26  28
ENDBRANCH  24  26
ENDBRANCH  22  24
ENDBRANCH  21  22
ENDBRANCH  20  21
ENDBRANCH  19  20
ENDBRANCH  17  19
ENDBRANCH  16  17
ENDBRANCH   1  16
TORSDOF 18
ENDMDL
MODEL 3
REMARK VINA RESULT:      -5.0      1.823      1.975
REMARK  Name = 
REMARK  20 active torsions:
REMARK  status: ('A' for Active; 'I' for Inactive)
REMARK    1  A    between atoms: C_1  and  C_2
REMARK    2  A    between atoms: C_2  and  N_3
REMARK    3  A    between atoms: N_3  and  C_4
REMARK    4  A    between atoms: C_4  and  N_6
REMARK    5  A    between atoms: N_6  and  C_7
REMARK    6  A    between atoms: C_7  and  C_8
REMARK    7  A    between atoms: C_8  and  C_9
REMARK    8  A    between atoms: C_9  and  N_10
REMARK    9  A    between atoms: N_10  and  C_11
REMARK   10  A    between atoms: C_11  and  C_12
REMARK   11  A    between atoms: C_12  and  C_13
REMARK   12  A    between atoms: C_13  and  N_14
REMARK   13  A    between atoms: N_14  and  C_15
REMARK   14  A    between atoms: C_15  and  C_16
REMARK   15  A    between atoms: C_16  and  C_17
REMARK   16  A    between atoms: C_17  and  N_18
REMARK   17  A    between atoms: N_18  and  C_19
REMARK   18  A    between atoms: C_19  and  N_21
REMARK   19  A    between atoms: N_21  and  C_22
REMARK   20  A    between atoms: C_22  and  C_23
REMARK                            x       y       z     vdW  Elec       q    Type
REMARK                         _______ _______ _______ _____ _____    ______ ____
ROOT
ATOM      1  C   UNL     1       2.102   5.121  20.804  0.00  0.00    +0.000 C 
ENDROOT
BRANCH   1   2
ATOM      2  C   UNL     1       0.801   4.471  20.322  0.00  0.00    +0.000 C 
BRANCH   2   3
ATOM      3  N   UNL     1       0.942   3.011  20.272  0.00  0.00    +0.000 NA
ATOM      4  H   UNL     1       1.896   2.748  20.604  0.00  0.00    +0.000 HD
BRANCH   3   5
ATOM      5  C   UNL     1       0.876   2.532  18.899  0.00  0.00    +0.000 C 
BRANCH   5   6
ATOM      6  C   UNL     1       1.359   3.641  17.963  0.00  0.00    +0.000 C 
BRANCH   6   7
ATOM      7  C   UNL     1       2.685   3.230  17.358  0.00  0.00    +0.000 C 
BRANCH   7   8
ATOM      8  N   UNL     1       3.379   2.262  18.178  0.00  0.00    +0.000 N 
ATOM      9  H   UNL     1       3.195   1.253  18.046  0.00  0.00    +0.000 HD
BRANCH   8  10
ATOM     10  C   UNL     1       4.400   2.695  19.075  0.00  0.00    +0.000 C 
ATOM     11  S   UNL     1       4.424   2.170  20.420  0.00  0.00    +0.000 S 
BRANCH  10  12
ATOM     12  N   UNL     1       5.428   3.578  18.604  0.00  0.00    +0.000 N 
ATOM     13  H   UNL     1       6.137   3.208  17.955  0.00  0.00    +0.000 HD
BRANCH  12  15
ATOM     14  C   UNL     1       5.198   5.914  17.945  0.00  0.00    +0.000 C 
ATOM     15  C   UNL     1       5.592   4.943  19.055  0.00  0.00    +0.000 C 
ENDBRANCH  12  15
ENDBRANCH  10  12
ENDBRANCH   8  10
ENDBRANCH   7   8
ENDBRANCH   6   7
ENDBRANCH   5   6
ENDBRANCH   3   5
ENDBRANCH   2   3
ENDBRANCH   1   2
BRANCH   1  16
ATOM     16  C   UNL     1       2.308   6.499  20.170  0.00  0.00    +0.000 C 
BRANCH  16  17
ATOM     17  N   UNL     1       1.739   7.550  21.008  0.00  0.00    +0.000 NA
ATOM     18  H   UNL     1       2.479   7.871  21.679  0.00  0.00    +0.000 HD
BRANCH  17  19
ATOM     19  C   UNL     1       1.377   8.679  20.150  0.00  0.00    +0.000 C 
BRANCH  19  20
ATOM     20  C   UNL     1       1.973   8.503  18.764  0.00  0.00    +0.000 C 
BRANCH  20  21
ATOM     21  C   UNL     1       1.052   9.145  17.730  0.00  0.00    +0.000 C 
BRANCH  21  22
ATOM     22  N   UNL     1       0.709  10.500  18.114  0.00  0.00    +0.000 N 
ATOM     23  H   UNL     1       1.452  11.216  18.142  0.00  0.00    +0.000 HD
BRANCH  22  24
ATOM     24  C   UNL     1      -0.629  10.915  18.393  0.00  0.00    +0.000 C 
ATOM     25  S   UNL     1      -0.900  11.934  19.387  0.00  0.00    +0.000 S 
BRANCH  24  26
ATOM     26  N   UNL     1      -1.698  10.267  17.701  0.00  0.00    +0.000 N 
ATOM     27  H   UNL     1      -1.905   9.284  17.948  0.00  0.00    +0.000 HD
BRANCH  26  28
ATOM     28  C   UNL     1      -2.551  10.947  16.750  0.00  0.00    +0.000 C 
ATOM     29  C   UNL     1      -2.701  10.142  15.466  0.00  0.00    +0.000 C 
ENDBRANCH  26  28
ENDBRANCH  24  26
ENDBRANCH  22  24
ENDBRANCH  21  22
ENDBRANCH  20  21
ENDBRANCH  19  20
ENDBRANCH  17  19
ENDBRANCH  16  17
ENDBRANCH   1  16
TORSDOF 18
ENDMDL
MODEL 4
REMARK VINA RESULT:      -4.9      1.663      2.076
REMARK  Name = 
REMARK  20 active torsions:
REMARK  status: ('A' for Active; 'I' for Inactive)
REMARK    1  A    between atoms: C_1  and  C_2
REMARK    2  A    between atoms: C_2  and  N_3
REMARK    3  A    between atoms: N_3  and  C_4
REMARK    4  A    between atoms: C_4  and  N_6
REMARK    5  A    between atoms: N_6  and  C_7
REMARK    6  A    between atoms: C_7  and  C_8
REMARK    7  A    between atoms: C_8  and  C_9
REMARK    8  A    between atoms: C_9  and  N_10
REMARK    9  A    between atoms: N_10  and  C_11
REMARK   10  A    between atoms: C_11  and  C_12
REMARK   11  A    between atoms: C_12  and  C_13
REMARK   12  A    between atoms: C_13  and  N_14
REMARK   13  A    between atoms: N_14  and  C_15
REMARK   14  A    between atoms: C_15  and  C_16
REMARK   15  A    between atoms: C_16  and  C_17
REMARK   16  A    between atoms: C_17  and  N_18
REMARK   17  A    between atoms: N_18  and  C_19
REMARK   18  A    between atoms: C_19  and  N_21
REMARK   19  A    between atoms: N_21  and  C_22
REMARK   20  A    between atoms: C_22  and  C_23
REMARK                            x       y       z     vdW  Elec       q    Type
REMARK                         _______ _______ _______ _____ _____    ______ ____
ROOT
ATOM      1  C   UNL     1       1.377   4.742  19.963  0.00  0.00    +0.000 C 
ENDROOT
BRANCH   1   2
ATOM      2  C   UNL     1       1.482   3.305  20.484  0.00  0.00    +0.000 C 
BRANCH   2   3
ATOM      3  N   UNL     1       2.258   2.475  19.557  0.00  0.00    +0.000 NA
ATOM      4  H   UNL     1       1.942   1.484  19.638  0.00  0.00    +0.000 HD
BRANCH   3   5
ATOM      5  C   UNL     1       3.664   2.453  19.935  0.00  0.00    +0.000 C 
BRANCH   5   6
ATOM      6  C   UNL     1       4.503   2.950  18.757  0.00  0.00    +0.000 C 
BRANCH   6   7
ATOM      7  C   UNL     1       5.026   4.334  19.077  0.00  0.00    +0.000 C 
BRANCH   7   8
ATOM      8  N   UNL     1       6.471   4.387  19.054  0.00  0.00    +0.000 N 
ATOM      9  H   UNL     1       7.013   3.888  19.780  0.00  0.00    +0.000 HD
BRANCH   8  10
ATOM     10  C   UNL     1       7.141   5.023  17.968  0.00  0.00    +0.000 C 
ATOM     11  S   UNL     1       7.581   6.390  18.114  0.00  0.00    +0.000 S 
BRANCH  10  12
ATOM     12  N   UNL     1       7.437   4.270  16.782  0.00  0.00    +0.000 N 
ATOM     13  H   UNL     1       8.049   3.446  16.861  0.00  0.00    +0.000 HD
BRANCH  12  15
ATOM     14  C   UNL     1       5.567   4.185  15.219  0.00  0.00    +0.000 C 
ATOM     15  C   UNL     1       7.003   4.647  15.454  0.00  0.00    +0.000 C 
ENDBRANCH  12  15
ENDBRANCH  10  12
ENDBRANCH   8  10
ENDBRANCH   7   8
ENDBRANCH   6   7
ENDBRANCH   5   6
ENDBRANCH   3   5
ENDBRANCH   2   3
ENDBRANCH   1   2
BRANCH   1  16
ATOM     16  C   UNL     1       2.254   5.698  20.775  0.00  0.00    +0.000 C 
BRANCH  16  17
ATOM     17  N   UNL     1       2.112   7.069  20.297  0.00  0.00    +0.000 NA
ATOM     18  H   UNL     1       3.036   7.554  20.411  0.00  0.00    +0.000 HD
BRANCH  17  19
ATOM     19  C   UNL     1       1.788   7.031  18.870  0.00  0.00    +0.000 C 
BRANCH  19  20
ATOM     20  C   UNL     1       2.754   7.902  18.085  0.00  0.00    +0.000 C 
BRANCH  20  21
ATOM     21  C   UNL     1       2.219   9.329  18.028  0.00  0.00    +0.000 C 
BRANCH  21  22
ATOM     22  N   UNL     1       0.843   9.348  17.576  0.00  0.00    +0.000 N 
ATOM     23  H   UNL     1       0.572   8.765  16.768  0.00  0.00    +0.000 HD
BRANCH  22  24
ATOM     24  C   UNL     1      -0.185  10.087  18.239  0.00  0.00    +0.000 C 
ATOM     25  S   UNL     1      -0.192  10.222  19.682  0.00  0.00    +0.000 S 
BRANCH  24  26
ATOM     26  N   UNL     1      -1.233  10.650  17.448  0.00  0.00    +0.000 N 
ATOM     27  H   UNL     1      -1.207  11.668  17.268  0.00  0.00    +0.000 HD
BRANCH  26  28
ATOM     28  C   UNL     1      -2.266   9.852  16.821  0.00  0.00    +0.000 C 
ATOM     29  C   UNL     1      -2.758  10.496  15.532  0.00  0.00    +0.000 C 
ENDBRANCH  26  28
ENDBRANCH  24  26
ENDBRANCH  22  24
ENDBRANCH  21  22
ENDBRANCH  20  21
ENDBRANCH  19  20
ENDBRANCH  17  19
ENDBRANCH  16  17
ENDBRANCH   1  16
TORSDOF 18
ENDMDL
MODEL 5
REMARK VINA RESULT:      -4.9      2.184      7.064
REMARK  Name = 
REMARK  20 active torsions:
REMARK  status: ('A' for Active; 'I' for Inactive)
REMARK    1  A    between atoms: C_1  and  C_2
REMARK    2  A    between atoms: C_2  and  N_3
REMARK    3  A    between atoms: N_3  and  C_4
REMARK    4  A    between atoms: C_4  and  N_6
REMARK    5  A    between atoms: N_6  and  C_7
REMARK    6  A    between atoms: C_7  and  C_8
REMARK    7  A    between atoms: C_8  and  C_9
REMARK    8  A    between atoms: C_9  and  N_10
REMARK    9  A    between atoms: N_10  and  C_11
REMARK   10  A    between atoms: C_11  and  C_12
REMARK   11  A    between atoms: C_12  and  C_13
REMARK   12  A    between atoms: C_13  and  N_14
REMARK   13  A    between atoms: N_14  and  C_15
REMARK   14  A    between atoms: C_15  and  C_16
REMARK   15  A    between atoms: C_16  and  C_17
REMARK   16  A    between atoms: C_17  and  N_18
REMARK   17  A    between atoms: N_18  and  C_19
REMARK   18  A    between atoms: C_19  and  N_21
REMARK   19  A    between atoms: N_21  and  C_22
REMARK   20  A    between atoms: C_22  and  C_23
REMARK                            x       y       z     vdW  Elec       q    Type
REMARK                         _______ _______ _______ _____ _____    ______ ____
ROOT
ATOM      1  C   UNL     1       1.043   2.107  18.843  0.00  0.00    +0.000 C 
ENDROOT
BRANCH   1   2
ATOM      2  C   UNL     1       0.955   2.867  20.171  0.00  0.00    +0.000 C 
BRANCH   2   3
ATOM      3  N   UNL     1       1.237   4.292  19.969  0.00  0.00    +0.000 NA
ATOM      4  H   UNL     1       1.567   4.440  18.990  0.00  0.00    +0.000 HD
BRANCH   3   5
ATOM      5  C   UNL     1       2.345   4.724  20.809  0.00  0.00    +0.000 C 
BRANCH   5   6
ATOM      6  C   UNL     1       2.808   6.106  20.346  0.00  0.00    +0.000 C 
BRANCH   6   7
ATOM      7  C   UNL     1       1.803   6.654  19.354  0.00  0.00    +0.000 C 
BRANCH   7   8
ATOM      8  N   UNL     1       2.144   7.990  18.918  0.00  0.00    +0.000 N 
ATOM      9  H   UNL     1       2.894   8.125  18.218  0.00  0.00    +0.000 HD
BRANCH   8  10
ATOM     10  C   UNL     1       1.367   9.101  19.360  0.00  0.00    +0.000 C 
ATOM     11  S   UNL     1       0.817  10.010  18.383  0.00  0.00    +0.000 S 
BRANCH  10  12
ATOM     12  N   UNL     1       1.079   9.251  20.758  0.00  0.00    +0.000 N 
ATOM     13  H   UNL     1       1.716   8.820  21.443  0.00  0.00    +0.000 HD
BRANCH  12  15
ATOM     14  C   UNL     1      -0.396   9.409  22.694  0.00  0.00    +0.000 C 
ATOM     15  C   UNL     1      -0.110   9.894  21.276  0.00  0.00    +0.000 C 
ENDBRANCH  12  15
ENDBRANCH  10  12
ENDBRANCH   8  10
ENDBRANCH   7   8
ENDBRANCH   6   7
ENDBRANCH   5   6
ENDBRANCH   3   5
ENDBRANCH   2   3
ENDBRANCH   1   2
BRANCH   1  16
ATOM     16  C   UNL     1       2.356   2.404  18.113  0.00  0.00    +0.000 C 
BRANCH  16  17
ATOM     17  N   UNL     1       2.213   3.557  17.231  0.00  0.00    +0.000 NA
ATOM     18  H   UNL     1       1.528   4.221  17.668  0.00  0.00    +0.000 HD
BRANCH  17  19
ATOM     19  C   UNL     1       3.509   4.232  17.140  0.00  0.00    +0.000 C 
BRANCH  19  20
ATOM     20  C   UNL     1       4.593   3.385  17.785  0.00  0.00    +0.000 C 
BRANCH  20  21
ATOM     21  C   UNL     1       5.490   4.274  18.641  0.00  0.00    +0.000 C 
BRANCH  21  22
ATOM     22  N   UNL     1       6.813   4.384  18.062  0.00  0.00    +0.000 N 
ATOM     23  H   UNL     1       7.439   3.563  18.081  0.00  0.00    +0.000 HD
BRANCH  22  24
ATOM     24  C   UNL     1       7.278   5.561  17.398  0.00  0.00    +0.000 C 
ATOM     25  S   UNL     1       7.633   6.749  18.151  0.00  0.00    +0.000 S 
BRANCH  24  26
ATOM     26  N   UNL     1       7.339   5.555  15.971  0.00  0.00    +0.000 N 
ATOM     27  H   UNL     1       7.732   6.390  15.502  0.00  0.00    +0.000 HD
BRANCH  26  28
ATOM     28  C   UNL     1       6.965   4.410  15.169  0.00  0.00    +0.000 C 
ATOM     29  C   UNL     1       5.724   4.699  14.335  0.00  0.00    +0.000 C 
ENDBRANCH  26  28
ENDBRANCH  24  26
ENDBRANCH  22  24
ENDBRANCH  21  22
ENDBRANCH  20  21
ENDBRANCH  19  20
ENDBRANCH  17  19
ENDBRANCH  16  17
ENDBRANCH   1  16
TORSDOF 18
ENDMDL
MODEL 6
REMARK VINA RESULT:      -4.8      1.517      7.226
REMARK  Name = 
REMARK  20 active torsions:
REMARK  status: ('A' for Active; 'I' for Inactive)
REMARK    1  A    between atoms: C_1  and  C_2
REMARK    2  A    between atoms: C_2  and  N_3
REMARK    3  A    between atoms: N_3  and  C_4
REMARK    4  A    between atoms: C_4  and  N_6
REMARK    5  A    between atoms: N_6  and  C_7
REMARK    6  A    between atoms: C_7  and  C_8
REMARK    7  A    between atoms: C_8  and  C_9
REMARK    8  A    between atoms: C_9  and  N_10
REMARK    9  A    between atoms: N_10  and  C_11
REMARK   10  A    between atoms: C_11  and  C_12
REMARK   11  A    between atoms: C_12  and  C_13
REMARK   12  A    between atoms: C_13  and  N_14
REMARK   13  A    between atoms: N_14  and  C_15
REMARK   14  A    between atoms: C_15  and  C_16
REMARK   15  A    between atoms: C_16  and  C_17
REMARK   16  A    between atoms: C_17  and  N_18
REMARK   17  A    between atoms: N_18  and  C_19
REMARK   18  A    between atoms: C_19  and  N_21
REMARK   19  A    between atoms: N_21  and  C_22
REMARK   20  A    between atoms: C_22  and  C_23
REMARK                            x       y       z     vdW  Elec       q    Type
REMARK                         _______ _______ _______ _____ _____    ______ ____
ROOT
ATOM      1  C   UNL     1       1.381   3.756  20.909  0.00  0.00    +0.000 C 
ENDROOT
BRANCH   1   2
ATOM      2  C   UNL     1       1.296   5.022  20.050  0.00  0.00    +0.000 C 
BRANCH   2   3
ATOM      3  N   UNL     1       2.141   6.082  20.610  0.00  0.00    +0.000 NA
ATOM      4  H   UNL     1       1.539   6.886  20.894  0.00  0.00    +0.000 HD
BRANCH   3   5
ATOM      5  C   UNL     1       3.034   6.622  19.595  0.00  0.00    +0.000 C 
BRANCH   5   6
ATOM      6  C   UNL     1       2.267   6.753  18.279  0.00  0.00    +0.000 C 
BRANCH   6   7
ATOM      7  C   UNL     1       1.993   8.218  18.014  0.00  0.00    +0.000 C 
BRANCH   7   8
ATOM      8  N   UNL     1       1.479   8.895  19.184  0.00  0.00    +0.000 N 
ATOM      9  H   UNL     1       1.766   8.579  20.126  0.00  0.00    +0.000 HD
BRANCH   8  10
ATOM     10  C   UNL     1       0.678  10.065  19.032  0.00  0.00    +0.000 C 
ATOM     11  S   UNL     1       0.802  11.133  19.996  0.00  0.00    +0.000 S 
BRANCH  10  12
ATOM     12  N   UNL     1      -0.173  10.196  17.885  0.00  0.00    +0.000 N 
ATOM     13  H   UNL     1       0.261  10.272  16.954  0.00  0.00    +0.000 HD
BRANCH  12  15
ATOM     14  C   UNL     1      -2.239   9.945  16.614  0.00  0.00    +0.000 C 
ATOM     15  C   UNL     1      -1.614  10.320  17.955  0.00  0.00    +0.000 C 
ENDBRANCH  12  15
ENDBRANCH  10  12
ENDBRANCH   8  10
ENDBRANCH   7   8
ENDBRANCH   6   7
ENDBRANCH   5   6
ENDBRANCH   3   5
ENDBRANCH   2   3
ENDBRANCH   1   2
BRANCH   1  16
ATOM     16  C   UNL     1       2.338   2.728  20.299  0.00  0.00    +0.000 C 
BRANCH  16  17
ATOM     17  N   UNL     1       3.671   3.295  20.125  0.00  0.00    +0.000 NA
ATOM     18  H   UNL     1       4.263   2.996  20.938  0.00  0.00    +0.000 HD
BRANCH  17  19
ATOM     19  C   UNL     1       4.255   2.737  18.904  0.00  0.00    +0.000 C 
BRANCH  19  20
ATOM     20  C   UNL     1       3.410   3.109  17.697  0.00  0.00    +0.000 C 
BRANCH  20  21
ATOM     21  C   UNL     1       4.307   3.698  16.612  0.00  0.00    +0.000 C 
BRANCH  21  22
ATOM     22  N   UNL     1       4.722   5.042  16.957  0.00  0.00    +0.000 N 
ATOM     23  H   UNL     1       4.004   5.740  17.207  0.00  0.00    +0.000 HD
BRANCH  22  24
ATOM     24  C   UNL     1       6.093   5.438  17.038  0.00  0.00    +0.000 C 
ATOM     25  S   UNL     1       7.155   4.518  16.680  0.00  0.00    +0.000 S 
BRANCH  24  26
ATOM     26  N   UNL     1       6.393   6.747  17.525  0.00  0.00    +0.000 N 
ATOM     27  H   UNL     1       5.611   7.416  17.623  0.00  0.00    +0.000 HD
BRANCH  26  28
ATOM     28  C   UNL     1       7.714   7.141  17.968  0.00  0.00    +0.000 C 
ATOM     29  C   UNL     1       7.955   8.627  17.740  0.00  0.00    +0.000 C 
ENDBRANCH  26  28
ENDBRANCH  24  26
ENDBRANCH  22  24
ENDBRANCH  21  22
ENDBRANCH  20  21
ENDBRANCH  19  20
ENDBRANCH  17  19
ENDBRANCH  16  17
ENDBRANCH   1  16
TORSDOF 18
ENDMDL
MODEL 7
REMARK VINA RESULT:      -4.8      2.221      3.092
REMARK  Name = 
REMARK  20 active torsions:
REMARK  status: ('A' for Active; 'I' for Inactive)
REMARK    1  A    between atoms: C_1  and  C_2
REMARK    2  A    between atoms: C_2  and  N_3
REMARK    3  A    between atoms: N_3  and  C_4
REMARK    4  A    between atoms: C_4  and  N_6
REMARK    5  A    between atoms: N_6  and  C_7
REMARK    6  A    between atoms: C_7  and  C_8
REMARK    7  A    between atoms: C_8  and  C_9
REMARK    8  A    between atoms: C_9  and  N_10
REMARK    9  A    between atoms: N_10  and  C_11
REMARK   10  A    between atoms: C_11  and  C_12
REMARK   11  A    between atoms: C_12  and  C_13
REMARK   12  A    between atoms: C_13  and  N_14
REMARK   13  A    between atoms: N_14  and  C_15
REMARK   14  A    between atoms: C_15  and  C_16
REMARK   15  A    between atoms: C_16  and  C_17
REMARK   16  A    between atoms: C_17  and  N_18
REMARK   17  A    between atoms: N_18  and  C_19
REMARK   18  A    between atoms: C_19  and  N_21
REMARK   19  A    between atoms: N_21  and  C_22
REMARK   20  A    between atoms: C_22  and  C_23
REMARK                            x       y       z     vdW  Elec       q    Type
REMARK                         _______ _______ _______ _____ _____    ______ ____
ROOT
ATOM      1  C   UNL     1       2.251   2.582  20.315  0.00  0.00    +0.000 C 
ENDROOT
BRANCH   1   2
ATOM      2  C   UNL     1       3.756   2.526  20.038  0.00  0.00    +0.000 C 
BRANCH   2   3
ATOM      3  N   UNL     1       4.013   2.030  18.681  0.00  0.00    +0.000 NA
ATOM      4  H   UNL     1       5.043   1.962  18.531  0.00  0.00    +0.000 HD
BRANCH   3   5
ATOM      5  C   UNL     1       3.549   2.985  17.685  0.00  0.00    +0.000 C 
BRANCH   5   6
ATOM      6  C   UNL     1       4.747   3.781  17.166  0.00  0.00    +0.000 C 
BRANCH   6   7
ATOM      7  C   UNL     1       4.376   5.249  17.116  0.00  0.00    +0.000 C 
BRANCH   7   8
ATOM      8  N   UNL     1       5.223   5.992  16.210  0.00  0.00    +0.000 N 
ATOM      9  H   UNL     1       4.795   6.622  15.509  0.00  0.00    +0.000 HD
BRANCH   8  10
ATOM     10  C   UNL     1       6.640   5.949  16.365  0.00  0.00    +0.000 C 
ATOM     11  S   UNL     1       7.244   6.609  17.498  0.00  0.00    +0.000 S 
BRANCH  10  12
ATOM     12  N   UNL     1       7.429   5.185  15.442  0.00  0.00    +0.000 N 
ATOM     13  H   UNL     1       8.308   4.764  15.774  0.00  0.00    +0.000 HD
BRANCH  12  15
ATOM     14  C   UNL     1       6.230   3.817  13.818  0.00  0.00    +0.000 C 
ATOM     15  C   UNL     1       7.117   5.040  14.036  0.00  0.00    +0.000 C 
ENDBRANCH  12  15
ENDBRANCH  10  12
ENDBRANCH   8  10
ENDBRANCH   7   8
ENDBRANCH   6   7
ENDBRANCH   5   6
ENDBRANCH   3   5
ENDBRANCH   2   3
ENDBRANCH   1   2
BRANCH   1  16
ATOM     16  C   UNL     1       1.944   3.372  21.590  0.00  0.00    +0.000 C 
BRANCH  16  17
ATOM     17  N   UNL     1       2.478   4.727  21.506  0.00  0.00    +0.000 NA
ATOM     18  H   UNL     1       3.464   4.669  21.150  0.00  0.00    +0.000 HD
BRANCH  17  19
ATOM     19  C   UNL     1       1.683   5.477  20.532  0.00  0.00    +0.000 C 
BRANCH  19  20
ATOM     20  C   UNL     1       2.525   6.567  19.890  0.00  0.00    +0.000 C 
BRANCH  20  21
ATOM     21  C   UNL     1       1.745   7.878  19.892  0.00  0.00    +0.000 C 
BRANCH  21  22
ATOM     22  N   UNL     1       1.512   8.340  21.246  0.00  0.00    +0.000 N 
ATOM     23  H   UNL     1       2.153   8.035  21.997  0.00  0.00    +0.000 HD
BRANCH  22  24
ATOM     24  C   UNL     1       0.473   9.258  21.588  0.00  0.00    +0.000 C 
ATOM     25  S   UNL     1       0.063   9.438  22.967  0.00  0.00    +0.000 S 
BRANCH  24  26
ATOM     26  N   UNL     1      -0.187   9.960  20.532  0.00  0.00    +0.000 N 
ATOM     27  H   UNL     1      -0.947   9.470  20.030  0.00  0.00    +0.000 HD
BRANCH  26  28
ATOM     28  C   UNL     1       0.098  11.340  20.203  0.00  0.00    +0.000 C 
ATOM     29  C   UNL     1       1.160  11.444  19.117  0.00  0.00    +0.000 C 
ENDBRANCH  26  28
ENDBRANCH  24  26
ENDBRANCH  22  24
ENDBRANCH  21  22
ENDBRANCH  20  21
ENDBRANCH  19  20
ENDBRANCH  17  19
ENDBRANCH  16  17
ENDBRANCH   1  16
TORSDOF 18
ENDMDL
MODEL 8
REMARK VINA RESULT:      -4.8      2.019      3.507
REMARK  Name = 
REMARK  20 active torsions:
REMARK  status: ('A' for Active; 'I' for Inactive)
REMARK    1  A    between atoms: C_1  and  C_2
REMARK    2  A    between atoms: C_2  and  N_3
REMARK    3  A    between atoms: N_3  and  C_4
REMARK    4  A    between atoms: C_4  and  N_6
REMARK    5  A    between atoms: N_6  and  C_7
REMARK    6  A    between atoms: C_7  and  C_8
REMARK    7  A    between atoms: C_8  and  C_9
REMARK    8  A    between atoms: C_9  and  N_10
REMARK    9  A    between atoms: N_10  and  C_11
REMARK   10  A    between atoms: C_11  and  C_12
REMARK   11  A    between atoms: C_12  and  C_13
REMARK   12  A    between atoms: C_13  and  N_14
REMARK   13  A    between atoms: N_14  and  C_15
REMARK   14  A    between atoms: C_15  and  C_16
REMARK   15  A    between atoms: C_16  and  C_17
REMARK   16  A    between atoms: C_17  and  N_18
REMARK   17  A    between atoms: N_18  and  C_19
REMARK   18  A    between atoms: C_19  and  N_21
REMARK   19  A    between atoms: N_21  and  C_22
REMARK   20  A    between atoms: C_22  and  C_23
REMARK                            x       y       z     vdW  Elec       q    Type
REMARK                         _______ _______ _______ _____ _____    ______ ____
ROOT
ATOM      1  C   UNL     1       2.206   2.746  17.810  0.00  0.00    +0.000 C 
ENDROOT
BRANCH   1   2
ATOM      2  C   UNL     1       2.925   1.909  18.873  0.00  0.00    +0.000 C 
BRANCH   2   3
ATOM      3  N   UNL     1       4.374   2.131  18.811  0.00  0.00    +0.000 NA
ATOM      4  H   UNL     1       4.859   1.375  19.341  0.00  0.00    +0.000 HD
BRANCH   3   5
ATOM      5  C   UNL     1       4.738   3.363  19.495  0.00  0.00    +0.000 C 
BRANCH   5   6
ATOM      6  C   UNL     1       5.267   4.364  18.467  0.00  0.00    +0.000 C 
BRANCH   6   7
ATOM      7  C   UNL     1       6.321   5.231  19.124  0.00  0.00    +0.000 C 
BRANCH   7   8
ATOM      8  N   UNL     1       7.477   5.416  18.275  0.00  0.00    +0.000 N 
ATOM      9  H   UNL     1       8.280   4.768  18.354  0.00  0.00    +0.000 HD
BRANCH   8  10
ATOM     10  C   UNL     1       7.456   6.411  17.254  0.00  0.00    +0.000 C 
ATOM     11  S   UNL     1       7.579   7.801  17.622  0.00  0.00    +0.000 S 
BRANCH  10  12
ATOM     12  N   UNL     1       7.395   6.010  15.878  0.00  0.00    +0.000 N 
ATOM     13  H   UNL     1       7.570   6.716  15.149  0.00  0.00    +0.000 HD
BRANCH  12  15
ATOM     14  C   UNL     1       5.651   4.735  14.746  0.00  0.00    +0.000 C 
ATOM     15  C   UNL     1       7.012   4.686  15.436  0.00  0.00    +0.000 C 
ENDBRANCH  12  15
ENDBRANCH  10  12
ENDBRANCH   8  10
ENDBRANCH   7   8
ENDBRANCH   6   7
ENDBRANCH   5   6
ENDBRANCH   3   5
ENDBRANCH   2   3
ENDBRANCH   1   2
BRANCH   1  16
ATOM     16  C   UNL     1       1.553   3.988  18.421  0.00  0.00    +0.000 C 
BRANCH  16  17
ATOM     17  N   UNL     1       0.864   3.656  19.664  0.00  0.00    +0.000 NA
ATOM     18  H   UNL     1       1.085   2.659  19.905  0.00  0.00    +0.000 HD
BRANCH  17  19
ATOM     19  C   UNL     1       1.390   4.513  20.728  0.00  0.00    +0.000 C 
BRANCH  19  20
ATOM     20  C   UNL     1       1.941   5.803  20.143  0.00  0.00    +0.000 C 
BRANCH  20  21
ATOM     21  C   UNL     1       1.402   6.990  20.936  0.00  0.00    +0.000 C 
BRANCH  21  22
ATOM     22  N   UNL     1       1.947   8.236  20.437  0.00  0.00    +0.000 N 
ATOM     23  H   UNL     1       2.857   8.566  20.797  0.00  0.00    +0.000 HD
BRANCH  22  24
ATOM     24  C   UNL     1       1.317   9.006  19.411  0.00  0.00    +0.000 C 
ATOM     25  S   UNL     1       1.891   9.087  18.083  0.00  0.00    +0.000 S 
BRANCH  24  26
ATOM     26  N   UNL     1       0.132   9.734  19.741  0.00  0.00    +0.000 N 
ATOM     27  H   UNL     1      -0.680   9.198  20.091  0.00  0.00    +0.000 HD
BRANCH  26  28
ATOM     28  C   UNL     1       0.053  11.179  19.693  0.00  0.00    +0.000 C 
ATOM     29  C   UNL     1       0.989  11.819  20.709  0.00  0.00    +0.000 C 
ENDBRANCH  26  28
ENDBRANCH  24  26
ENDBRANCH  22  24
ENDBRANCH  21  22
ENDBRANCH  20  21
ENDBRANCH  19  20
ENDBRANCH  17  19
ENDBRANCH  16  17
ENDBRANCH   1  16
TORSDOF 18
ENDMDL
MODEL 9
REMARK VINA RESULT:      -4.8      1.183      1.296
REMARK  Name = 
REMARK  20 active torsions:
REMARK  status: ('A' for Active; 'I' for Inactive)
REMARK    1  A    between atoms: C_1  and  C_2
REMARK    2  A    between atoms: C_2  and  N_3
REMARK    3  A    between atoms: N_3  and  C_4
REMARK    4  A    between atoms: C_4  and  N_6
REMARK    5  A    between atoms: N_6  and  C_7
REMARK    6  A    between atoms: C_7  and  C_8
REMARK    7  A    between atoms: C_8  and  C_9
REMARK    8  A    between atoms: C_9  and  N_10
REMARK    9  A    between atoms: N_10  and  C_11
REMARK   10  A    between atoms: C_11  and  C_12
REMARK   11  A    between atoms: C_12  and  C_13
REMARK   12  A    between atoms: C_13  and  N_14
REMARK   13  A    between atoms: N_14  and  C_15
REMARK   14  A    between atoms: C_15  and  C_16
REMARK   15  A    between atoms: C_16  and  C_17
REMARK   16  A    between atoms: C_17  and  N_18
REMARK   17  A    between atoms: N_18  and  C_19
REMARK   18  A    between atoms: C_19  and  N_21
REMARK   19  A    between atoms: N_21  and  C_22
REMARK   20  A    between atoms: C_22  and  C_23
REMARK                            x       y       z     vdW  Elec       q    Type
REMARK                         _______ _______ _______ _____ _____    ______ ____
ROOT
ATOM      1  C   UNL     1       2.076   4.041  20.538  0.00  0.00    +0.000 C 
ENDROOT
BRANCH   1   2
ATOM      2  C   UNL     1       0.718   3.372  20.303  0.00  0.00    +0.000 C 
BRANCH   2   3
ATOM      3  N   UNL     1       0.772   2.494  19.129  0.00  0.00    +0.000 NA
ATOM      4  H   UNL     1       1.220   1.590  19.398  0.00  0.00    +0.000 HD
BRANCH   3   5
ATOM      5  C   UNL     1       1.641   3.053  18.104  0.00  0.00    +0.000 C 
BRANCH   5   6
ATOM      6  C   UNL     1       2.754   2.051  17.796  0.00  0.00    +0.000 C 
BRANCH   6   7
ATOM      7  C   UNL     1       4.026   2.812  17.483  0.00  0.00    +0.000 C 
BRANCH   7   8
ATOM      8  N   UNL     1       3.786   4.229  17.322  0.00  0.00    +0.000 N 
ATOM      9  H   UNL     1       2.885   4.634  17.628  0.00  0.00    +0.000 HD
BRANCH   8  10
ATOM     10  C   UNL     1       4.833   5.078  16.856  0.00  0.00    +0.000 C 
ATOM     11  S   UNL     1       5.375   4.868  15.534  0.00  0.00    +0.000 S 
BRANCH  10  12
ATOM     12  N   UNL     1       5.272   6.172  17.673  0.00  0.00    +0.000 N 
ATOM     13  H   UNL     1       4.729   6.408  18.516  0.00  0.00    +0.000 HD
BRANCH  12  15
ATOM     14  C   UNL     1       7.617   6.637  18.152  0.00  0.00    +0.000 C 
ATOM     15  C   UNL     1       6.386   7.035  17.342  0.00  0.00    +0.000 C 
ENDBRANCH  12  15
ENDBRANCH  10  12
ENDBRANCH   8  10
ENDBRANCH   7   8
ENDBRANCH   6   7
ENDBRANCH   5   6
ENDBRANCH   3   5
ENDBRANCH   2   3
ENDBRANCH   1   2
BRANCH   1  16
ATOM     16  C   UNL     1       1.938   5.559  20.673  0.00  0.00    +0.000 C 
BRANCH  16  17
ATOM     17  N   UNL     1       2.505   6.240  19.513  0.00  0.00    +0.000 NA
ATOM     18  H   UNL     1       2.093   5.811  18.648  0.00  0.00    +0.000 HD
BRANCH  17  19
ATOM     19  C   UNL     1       2.105   7.647  19.562  0.00  0.00    +0.000 C 
BRANCH  19  20
ATOM     20  C   UNL     1       2.566   8.371  18.308  0.00  0.00    +0.000 C 
BRANCH  20  21
ATOM     21  C   UNL     1       1.350   8.881  17.541  0.00  0.00    +0.000 C 
BRANCH  21  22
ATOM     22  N   UNL     1       0.992  10.218  17.967  0.00  0.00    +0.000 N 
ATOM     23  H   UNL     1       1.694  10.972  17.895  0.00  0.00    +0.000 HD
BRANCH  22  24
ATOM     24  C   UNL     1      -0.316  10.566  18.424  0.00  0.00    +0.000 C 
ATOM     25  S   UNL     1      -0.592  10.733  19.838  0.00  0.00    +0.000 S 
BRANCH  24  26
ATOM     26  N   UNL     1      -1.359  10.700  17.456  0.00  0.00    +0.000 N 
ATOM     27  H   UNL     1      -1.220  11.380  16.689  0.00  0.00    +0.000 HD
BRANCH  26  28
ATOM     28  C   UNL     1      -2.545   9.869  17.453  0.00  0.00    +0.000 C 
ATOM     29  C   UNL     1      -3.809  10.706  17.590  0.00  0.00    +0.000 C 
ENDBRANCH  26  28
ENDBRANCH  24  26
ENDBRANCH  22  24
ENDBRANCH  21  22
ENDBRANCH  20  21
ENDBRANCH  19  20
ENDBRANCH  17  19
ENDBRANCH  16  17
ENDBRANCH   1  16
TORSDOF 18
ENDMDL
