MODEL 1
REMARK VINA RESULT:      -6.1      0.000      0.000
REMARK  Name = 
REMARK  7 active torsions:
REMARK  status: ('A' for Active; 'I' for Inactive)
REMARK    1  A    between atoms: C_1  and  C_2
REMARK    2  A    between atoms: C_4  and  C_5
REMARK    3  A    between atoms: N_7  and  C_8
REMARK    4  A    between atoms: C_8  and  C_9
REMARK    5  A    between atoms: C_9  and  C_10
REMARK    6  A    between atoms: C_10  and  O_11
REMARK    7  A    between atoms: N_20  and  C_21
REMARK                            x       y       z     vdW  Elec       q    Type
REMARK                         _______ _______ _______ _____ _____    ______ ____
ROOT
ATOM      1  C   UNL     1       6.276  11.595  24.448  0.00  0.00    +0.000 C 
ATOM      2  C   UNL     1       7.027  12.809  23.922  0.00  0.00    +0.000 C 
ATOM      3  C   UNL     1       7.863  12.443  22.619  0.00  0.00    +0.000 C 
ATOM      4  C   UNL     1       8.172  13.701  21.549  0.00  0.00    +0.000 C 
ATOM      5  C   UNL     1       6.806  14.436  21.334  0.00  0.00    +0.000 C 
ATOM      6  C   UNL     1       8.845  14.476  20.334  0.00  0.00    +0.000 C 
ATOM      7  N   UNL     1      10.290  15.029  20.325  0.00  0.00    +0.000 N 
ATOM      8  N   UNL     1       8.472  13.796  19.347  0.00  0.00    +0.000 NA
ATOM      9  C   UNL     1       9.519  12.992  18.980  0.00  0.00    +0.000 A 
ATOM     10  C   UNL     1       9.919  13.204  17.653  0.00  0.00    +0.000 A 
ATOM     11  C   UNL     1      11.128  12.768  17.168  0.00  0.00    +0.000 A 
ATOM     12  C   UNL     1      11.773  11.885  17.981  0.00  0.00    +0.000 A 
ATOM     13  C   UNL     1      11.289  11.556  19.309  0.00  0.00    +0.000 A 
ATOM     14  C   UNL     1      10.143  12.473  20.172  0.00  0.00    +0.000 A 
ATOM     15  C   UNL     1       9.456  13.648  22.029  0.00  0.00    +0.000 C 
ATOM     16  N   UNL     1       8.801  14.870  23.170  0.00  0.00    +0.000 N 
ATOM     17  C   UNL     1       7.922  16.207  23.100  0.00  0.00    +0.000 C 
ATOM     18  C   UNL     1       8.623  14.615  24.629  0.00  0.00    +0.000 A 
ATOM     19  C   UNL     1       9.036  15.518  25.726  0.00  0.00    +0.000 A 
ATOM     20  C   UNL     1       8.971  15.097  27.083  0.00  0.00    +0.000 A 
ATOM     21  C   UNL     1       8.440  13.858  27.391  0.00  0.00    +0.000 A 
ATOM     22  C   UNL     1       7.835  13.107  26.385  0.00  0.00    +0.000 A 
ATOM     23  C   UNL     1       7.867  13.505  25.012  0.00  0.00    +0.000 A 
ATOM     24  H   UNL     1      11.190  14.450  20.341  0.00  0.00    +0.000 HD
ENDROOT
BRANCH   7  25
ATOM     25  C   UNL     1      10.646  16.068  19.532  0.00  0.00    +0.000 C 
BRANCH  25  26
ATOM     26  C   UNL     1      11.994  15.963  18.980  0.00  0.00    +0.000 C 
BRANCH  26  27
ATOM     27  C   UNL     1      11.746  16.501  17.564  0.00  0.00    +0.000 C 
BRANCH  27  28
ATOM     28  O   UNL     1      10.391  16.631  17.336  0.00  0.00    +0.000 OA
ATOM     29  H   UNL     1      10.123  17.363  17.943  0.00  0.00    +0.000 HD
ENDBRANCH  27  28
ENDBRANCH  26  27
ENDBRANCH  25  26
ENDBRANCH   7  25
TORSDOF 4
ENDMDL
MODEL 2
REMARK VINA RESULT:      -6.0     13.233     14.820
REMARK  Name = 
REMARK  7 active torsions:
REMARK  status: ('A' for Active; 'I' for Inactive)
REMARK    1  A    between atoms: C_1  and  C_2
REMARK    2  A    between atoms: C_4  and  C_5
REMARK    3  A    between atoms: N_7  and  C_8
REMARK    4  A    between atoms: C_8  and  C_9
REMARK    5  A    between atoms: C_9  and  C_10
REMARK    6  A    between atoms: C_10  and  O_11
REMARK    7  A    between atoms: N_20  and  C_21
REMARK                            x       y       z     vdW  Elec       q    Type
REMARK                         _______ _______ _______ _____ _____    ______ ____
ROOT
ATOM      1  C   UNL     1      -4.282  12.650  24.656  0.00  0.00    +0.000 C 
ATOM      2  C   UNL     1      -5.028  13.200  23.449  0.00  0.00    +0.000 C 
ATOM      3  C   UNL     1      -4.461  12.581  22.097  0.00  0.00    +0.000 C 
ATOM      4  C   UNL     1      -5.527  12.514  20.800  0.00  0.00    +0.000 C 
ATOM      5  C   UNL     1      -6.857  11.904  21.358  0.00  0.00    +0.000 C 
ATOM      6  C   UNL     1      -6.015  12.344  19.295  0.00  0.00    +0.000 C 
ATOM      7  N   UNL     1      -5.786  13.376  18.166  0.00  0.00    +0.000 N 
ATOM      8  N   UNL     1      -5.731  11.144  19.059  0.00  0.00    +0.000 NA
ATOM      9  C   UNL     1      -4.569  11.130  18.334  0.00  0.00    +0.000 A 
ATOM     10  C   UNL     1      -4.719  10.492  17.094  0.00  0.00    +0.000 A 
ATOM     11  C   UNL     1      -3.809  10.637  16.074  0.00  0.00    +0.000 A 
ATOM     12  C   UNL     1      -2.632  11.211  16.451  0.00  0.00    +0.000 A 
ATOM     13  C   UNL     1      -2.423  11.754  17.780  0.00  0.00    +0.000 A 
ATOM     14  C   UNL     1      -3.670  12.115  18.881  0.00  0.00    +0.000 A 
ATOM     15  C   UNL     1      -4.794  13.553  20.285  0.00  0.00    +0.000 C 
ATOM     16  N   UNL     1      -6.030  14.515  21.163  0.00  0.00    +0.000 N 
ATOM     17  C   UNL     1      -7.623  14.533  21.326  0.00  0.00    +0.000 C 
ATOM     18  C   UNL     1      -5.718  15.353  22.356  0.00  0.00    +0.000 A 
ATOM     19  C   UNL     1      -6.162  16.748  22.579  0.00  0.00    +0.000 A 
ATOM     20  C   UNL     1      -5.664  17.508  23.674  0.00  0.00    +0.000 A 
ATOM     21  C   UNL     1      -4.817  16.913  24.591  0.00  0.00    +0.000 A 
ATOM     22  C   UNL     1      -4.588  15.540  24.516  0.00  0.00    +0.000 A 
ATOM     23  C   UNL     1      -5.083  14.742  23.439  0.00  0.00    +0.000 A 
ATOM     24  H   UNL     1      -4.843  13.648  17.738  0.00  0.00    +0.000 HD
ENDROOT
BRANCH   7  25
ATOM     25  C   UNL     1      -6.605  13.442  17.089  0.00  0.00    +0.000 C 
BRANCH  25  26
ATOM     26  C   UNL     1      -6.776  14.788  16.549  0.00  0.00    +0.000 C 
BRANCH  26  27
ATOM     27  C   UNL     1      -7.116  15.552  17.836  0.00  0.00    +0.000 C 
BRANCH  27  28
ATOM     28  O   UNL     1      -6.029  16.296  18.248  0.00  0.00    +0.000 OA
ATOM     29  H   UNL     1      -5.912  16.958  17.523  0.00  0.00    +0.000 HD
ENDBRANCH  27  28
ENDBRANCH  26  27
ENDBRANCH  25  26
ENDBRANCH   7  25
TORSDOF 4
ENDMDL
MODEL 3
REMARK VINA RESULT:      -6.0     10.647     13.681
REMARK  Name = 
REMARK  7 active torsions:
REMARK  status: ('A' for Active; 'I' for Inactive)
REMARK    1  A    between atoms: C_1  and  C_2
REMARK    2  A    between atoms: C_4  and  C_5
REMARK    3  A    between atoms: N_7  and  C_8
REMARK    4  A    between atoms: C_8  and  C_9
REMARK    5  A    between atoms: C_9  and  C_10
REMARK    6  A    between atoms: C_10  and  O_11
REMARK    7  A    between atoms: N_20  and  C_21
REMARK                            x       y       z     vdW  Elec       q    Type
REMARK                         _______ _______ _______ _____ _____    ______ ____
ROOT
ATOM      1  C   UNL     1      -0.229   9.774  23.419  0.00  0.00    +0.000 C 
ATOM      2  C   UNL     1      -0.581  11.001  22.592  0.00  0.00    +0.000 C 
ATOM      3  C   UNL     1      -2.040  11.527  22.945  0.00  0.00    +0.000 C 
ATOM      4  C   UNL     1      -2.330  13.162  22.686  0.00  0.00    +0.000 C 
ATOM      5  C   UNL     1      -1.124  13.926  23.328  0.00  0.00    +0.000 C 
ATOM      6  C   UNL     1      -3.163  14.507  22.513  0.00  0.00    +0.000 C 
ATOM      7  N   UNL     1      -4.029  14.863  21.282  0.00  0.00    +0.000 N 
ATOM      8  N   UNL     1      -3.675  14.648  23.651  0.00  0.00    +0.000 NA
ATOM      9  C   UNL     1      -4.975  14.225  23.574  0.00  0.00    +0.000 A 
ATOM     10  C   UNL     1      -5.887  15.228  23.932  0.00  0.00    +0.000 A 
ATOM     11  C   UNL     1      -7.225  15.153  23.625  0.00  0.00    +0.000 A 
ATOM     12  C   UNL     1      -7.635  13.923  23.204  0.00  0.00    +0.000 A 
ATOM     13  C   UNL     1      -6.706  12.835  22.961  0.00  0.00    +0.000 A 
ATOM     14  C   UNL     1      -5.025  13.027  22.773  0.00  0.00    +0.000 A 
ATOM     15  C   UNL     1      -3.062  12.749  21.602  0.00  0.00    +0.000 C 
ATOM     16  N   UNL     1      -1.480  12.968  20.780  0.00  0.00    +0.000 N 
ATOM     17  C   UNL     1      -0.321  14.071  20.713  0.00  0.00    +0.000 C 
ATOM     18  C   UNL     1      -0.683  11.836  20.226  0.00  0.00    +0.000 A 
ATOM     19  C   UNL     1      -0.053  11.790  18.887  0.00  0.00    +0.000 A 
ATOM     20  C   UNL     1       0.540  10.593  18.398  0.00  0.00    +0.000 A 
ATOM     21  C   UNL     1       0.603   9.478  19.214  0.00  0.00    +0.000 A 
ATOM     22  C   UNL     1       0.226   9.590  20.551  0.00  0.00    +0.000 A 
ATOM     23  C   UNL     1      -0.360  10.781  21.081  0.00  0.00    +0.000 A 
ATOM     24  H   UNL     1      -4.928  14.368  20.977  0.00  0.00    +0.000 HD
ENDROOT
BRANCH   7  25
ATOM     25  C   UNL     1      -4.296  16.148  20.952  0.00  0.00    +0.000 C 
BRANCH  25  26
ATOM     26  C   UNL     1      -5.649  16.367  20.447  0.00  0.00    +0.000 C 
BRANCH  26  27
ATOM     27  C   UNL     1      -5.983  14.953  19.953  0.00  0.00    +0.000 C 
BRANCH  27  28
ATOM     28  O   UNL     1      -5.960  14.913  18.574  0.00  0.00    +0.000 OA
ATOM     29  H   UNL     1      -6.743  15.456  18.312  0.00  0.00    +0.000 HD
ENDBRANCH  27  28
ENDBRANCH  26  27
ENDBRANCH  25  26
ENDBRANCH   7  25
TORSDOF 4
ENDMDL
MODEL 4
REMARK VINA RESULT:      -6.0      8.500     10.176
REMARK  Name = 
REMARK  7 active torsions:
REMARK  status: ('A' for Active; 'I' for Inactive)
REMARK    1  A    between atoms: C_1  and  C_2
REMARK    2  A    between atoms: C_4  and  C_5
REMARK    3  A    between atoms: N_7  and  C_8
REMARK    4  A    between atoms: C_8  and  C_9
REMARK    5  A    between atoms: C_9  and  C_10
REMARK    6  A    between atoms: C_10  and  O_11
REMARK    7  A    between atoms: N_20  and  C_21
REMARK                            x       y       z     vdW  Elec       q    Type
REMARK                         _______ _______ _______ _____ _____    ______ ____
ROOT
ATOM      1  C   UNL     1      -4.154  12.581  24.516  0.00  0.00    +0.000 C 
ATOM      2  C   UNL     1      -3.220  13.259  23.524  0.00  0.00    +0.000 C 
ATOM      3  C   UNL     1      -2.411  12.183  22.677  0.00  0.00    +0.000 C 
ATOM      4  C   UNL     1      -1.892  12.665  21.153  0.00  0.00    +0.000 C 
ATOM      5  C   UNL     1      -3.129  13.330  20.461  0.00  0.00    +0.000 C 
ATOM      6  C   UNL     1      -1.079  12.623  19.787  0.00  0.00    +0.000 C 
ATOM      7  N   UNL     1       0.430  12.928  19.641  0.00  0.00    +0.000 N 
ATOM      8  N   UNL     1      -1.520  11.576  19.250  0.00  0.00    +0.000 NA
ATOM      9  C   UNL     1      -0.592  10.589  19.447  0.00  0.00    +0.000 A 
ATOM     10  C   UNL     1      -0.129  10.040  18.242  0.00  0.00    +0.000 A 
ATOM     11  C   UNL     1       1.018   9.285  18.168  0.00  0.00    +0.000 A 
ATOM     12  C   UNL     1       1.504   8.883  19.376  0.00  0.00    +0.000 A 
ATOM     13  C   UNL     1       0.941   9.343  20.631  0.00  0.00    +0.000 A 
ATOM     14  C   UNL     1      -0.083  10.694  20.792  0.00  0.00    +0.000 A 
ATOM     15  C   UNL     1      -0.643  12.726  21.718  0.00  0.00    +0.000 C 
ATOM     16  N   UNL     1      -1.145  14.425  22.011  0.00  0.00    +0.000 N 
ATOM     17  C   UNL     1      -1.817  15.622  21.186  0.00  0.00    +0.000 C 
ATOM     18  C   UNL     1      -1.398  14.980  23.371  0.00  0.00    +0.000 A 
ATOM     19  C   UNL     1      -0.889  16.268  23.894  0.00  0.00    +0.000 A 
ATOM     20  C   UNL     1      -1.052  16.618  25.263  0.00  0.00    +0.000 A 
ATOM     21  C   UNL     1      -1.767  15.783  26.102  0.00  0.00    +0.000 A 
ATOM     22  C   UNL     1      -2.446  14.693  25.562  0.00  0.00    +0.000 A 
ATOM     23  C   UNL     1      -2.318  14.319  24.188  0.00  0.00    +0.000 A 
ATOM     24  H   UNL     1       1.235  12.344  20.038  0.00  0.00    +0.000 HD
ENDROOT
BRANCH   7  25
ATOM     25  C   UNL     1       0.956  13.362  18.471  0.00  0.00    +0.000 C 
BRANCH  25  26
ATOM     26  C   UNL     1       2.314  12.889  18.214  0.00  0.00    +0.000 C 
BRANCH  26  27
ATOM     27  C   UNL     1       3.066  14.226  18.210  0.00  0.00    +0.000 C 
BRANCH  27  28
ATOM     28  O   UNL     1       2.638  15.016  19.258  0.00  0.00    +0.000 OA
ATOM     29  H   UNL     1       3.422  15.584  19.456  0.00  0.00    +0.000 HD
ENDBRANCH  27  28
ENDBRANCH  26  27
ENDBRANCH  25  26
ENDBRANCH   7  25
TORSDOF 4
ENDMDL
MODEL 5
REMARK VINA RESULT:      -5.9      8.098     11.060
REMARK  Name = 
REMARK  7 active torsions:
REMARK  status: ('A' for Active; 'I' for Inactive)
REMARK    1  A    between atoms: C_1  and  C_2
REMARK    2  A    between atoms: C_4  and  C_5
REMARK    3  A    between atoms: N_7  and  C_8
REMARK    4  A    between atoms: C_8  and  C_9
REMARK    5  A    between atoms: C_9  and  C_10
REMARK    6  A    between atoms: C_10  and  O_11
REMARK    7  A    between atoms: N_20  and  C_21
REMARK                            x       y       z     vdW  Elec       q    Type
REMARK                         _______ _______ _______ _____ _____    ______ ____
ROOT
ATOM      1  C   UNL     1       4.011  16.658  18.534  0.00  0.00    +0.000 C 
ATOM      2  C   UNL     1       2.605  16.316  19.001  0.00  0.00    +0.000 C 
ATOM      3  C   UNL     1       2.426  14.744  19.168  0.00  0.00    +0.000 C 
ATOM      4  C   UNL     1       1.264  14.235  20.271  0.00  0.00    +0.000 C 
ATOM      5  C   UNL     1       1.509  15.065  21.576  0.00  0.00    +0.000 C 
ATOM      6  C   UNL     1       0.272  13.243  21.021  0.00  0.00    +0.000 C 
ATOM      7  N   UNL     1      -1.040  12.682  20.425  0.00  0.00    +0.000 N 
ATOM      8  N   UNL     1       1.066  12.431  21.558  0.00  0.00    +0.000 NA
ATOM      9  C   UNL     1       1.083  11.300  20.787  0.00  0.00    +0.000 A 
ATOM     10  C   UNL     1       0.708  10.156  21.506  0.00  0.00    +0.000 A 
ATOM     11  C   UNL     1       0.338   8.985  20.888  0.00  0.00    +0.000 A 
ATOM     12  C   UNL     1       0.631   8.936  19.558  0.00  0.00    +0.000 A 
ATOM     13  C   UNL     1       1.150  10.081  18.834  0.00  0.00    +0.000 A 
ATOM     14  C   UNL     1       1.089  11.686  19.398  0.00  0.00    +0.000 A 
ATOM     15  C   UNL     1       0.518  13.905  19.168  0.00  0.00    +0.000 C 
ATOM     16  N   UNL     1      -0.089  15.579  19.404  0.00  0.00    +0.000 N 
ATOM     17  C   UNL     1      -0.622  16.489  20.609  0.00  0.00    +0.000 C 
ATOM     18  C   UNL     1       0.184  16.690  18.447  0.00  0.00    +0.000 A 
ATOM     19  C   UNL     1      -0.814  17.648  17.920  0.00  0.00    +0.000 A 
ATOM     20  C   UNL     1      -0.475  18.561  16.883  0.00  0.00    +0.000 A 
ATOM     21  C   UNL     1       0.825  18.611  16.414  0.00  0.00    +0.000 A 
ATOM     22  C   UNL     1       1.815  17.881  17.069  0.00  0.00    +0.000 A 
ATOM     23  C   UNL     1       1.514  16.965  18.124  0.00  0.00    +0.000 A 
ATOM     24  H   UNL     1      -1.123  12.004  19.601  0.00  0.00    +0.000 HD
ENDROOT
BRANCH   7  25
ATOM     25  C   UNL     1      -2.062  12.278  21.217  0.00  0.00    +0.000 C 
BRANCH  25  26
ATOM     26  C   UNL     1      -2.182  13.025  22.466  0.00  0.00    +0.000 C 
BRANCH  26  27
ATOM     27  C   UNL     1      -3.681  13.349  22.443  0.00  0.00    +0.000 C 
BRANCH  27  28
ATOM     28  O   UNL     1      -4.411  12.256  22.864  0.00  0.00    +0.000 OA
ATOM     29  H   UNL     1      -4.370  11.639  22.092  0.00  0.00    +0.000 HD
ENDBRANCH  27  28
ENDBRANCH  26  27
ENDBRANCH  25  26
ENDBRANCH   7  25
TORSDOF 4
ENDMDL
MODEL 6
REMARK VINA RESULT:      -5.8     10.277     13.112
REMARK  Name = 
REMARK  7 active torsions:
REMARK  status: ('A' for Active; 'I' for Inactive)
REMARK    1  A    between atoms: C_1  and  C_2
REMARK    2  A    between atoms: C_4  and  C_5
REMARK    3  A    between atoms: N_7  and  C_8
REMARK    4  A    between atoms: C_8  and  C_9
REMARK    5  A    between atoms: C_9  and  C_10
REMARK    6  A    between atoms: C_10  and  O_11
REMARK    7  A    between atoms: N_20  and  C_21
REMARK                            x       y       z     vdW  Elec       q    Type
REMARK                         _______ _______ _______ _____ _____    ______ ____
ROOT
ATOM      1  C   UNL     1       0.520   9.876  19.775  0.00  0.00    +0.000 C 
ATOM      2  C   UNL     1       0.097  11.232  20.321  0.00  0.00    +0.000 C 
ATOM      3  C   UNL     1      -1.485  11.393  20.282  0.00  0.00    +0.000 C 
ATOM      4  C   UNL     1      -2.159  12.444  21.408  0.00  0.00    +0.000 C 
ATOM      5  C   UNL     1      -1.515  12.075  22.788  0.00  0.00    +0.000 C 
ATOM      6  C   UNL     1      -3.259  13.359  22.102  0.00  0.00    +0.000 C 
ATOM      7  N   UNL     1      -3.749  14.723  21.561  0.00  0.00    +0.000 N 
ATOM      8  N   UNL     1      -4.127  12.518  22.443  0.00  0.00    +0.000 NA
ATOM      9  C   UNL     1      -5.139  12.574  21.523  0.00  0.00    +0.000 A 
ATOM     10  C   UNL     1      -6.377  12.879  22.106  0.00  0.00    +0.000 A 
ATOM     11  C   UNL     1      -7.456  13.306  21.369  0.00  0.00    +0.000 A 
ATOM     12  C   UNL     1      -7.315  13.142  20.023  0.00  0.00    +0.000 A 
ATOM     13  C   UNL     1      -6.073  12.695  19.421  0.00  0.00    +0.000 A 
ATOM     14  C   UNL     1      -4.563  12.702  20.207  0.00  0.00    +0.000 A 
ATOM     15  C   UNL     1      -2.341  13.292  20.346  0.00  0.00    +0.000 C 
ATOM     16  N   UNL     1      -0.726  13.875  20.870  0.00  0.00    +0.000 N 
ATOM     17  C   UNL     1       0.000  14.289  22.236  0.00  0.00    +0.000 C 
ATOM     18  C   UNL     1       0.512  13.695  20.057  0.00  0.00    +0.000 A 
ATOM     19  C   UNL     1       1.520  14.738  19.766  0.00  0.00    +0.000 A 
ATOM     20  C   UNL     1       2.573  14.500  18.840  0.00  0.00    +0.000 A 
ATOM     21  C   UNL     1       2.706  13.251  18.261  0.00  0.00    +0.000 A 
ATOM     22  C   UNL     1       1.905  12.203  18.710  0.00  0.00    +0.000 A 
ATOM     23  C   UNL     1       0.848  12.402  19.651  0.00  0.00    +0.000 A 
ATOM     24  H   UNL     1      -4.307  14.884  20.662  0.00  0.00    +0.000 HD
ENDROOT
BRANCH   7  25
ATOM     25  C   UNL     1      -4.273  15.664  22.381  0.00  0.00    +0.000 C 
BRANCH  25  26
ATOM     26  C   UNL     1      -3.321  16.219  23.340  0.00  0.00    +0.000 C 
BRANCH  26  27
ATOM     27  C   UNL     1      -4.105  16.019  24.643  0.00  0.00    +0.000 C 
BRANCH  27  28
ATOM     28  O   UNL     1      -4.926  14.914  24.540  0.00  0.00    +0.000 OA
ATOM     29  H   UNL     1      -5.324  14.835  25.441  0.00  0.00    +0.000 HD
ENDBRANCH  27  28
ENDBRANCH  26  27
ENDBRANCH  25  26
ENDBRANCH   7  25
TORSDOF 4
ENDMDL
MODEL 7
REMARK VINA RESULT:      -5.8      9.031     11.060
REMARK  Name = 
REMARK  7 active torsions:
REMARK  status: ('A' for Active; 'I' for Inactive)
REMARK    1  A    between atoms: C_1  and  C_2
REMARK    2  A    between atoms: C_4  and  C_5
REMARK    3  A    between atoms: N_7  and  C_8
REMARK    4  A    between atoms: C_8  and  C_9
REMARK    5  A    between atoms: C_9  and  C_10
REMARK    6  A    between atoms: C_10  and  O_11
REMARK    7  A    between atoms: N_20  and  C_21
REMARK                            x       y       z     vdW  Elec       q    Type
REMARK                         _______ _______ _______ _____ _____    ______ ____
ROOT
ATOM      1  C   UNL     1      -5.724  13.561  23.535  0.00  0.00    +0.000 C 
ATOM      2  C   UNL     1      -4.409  13.975  22.891  0.00  0.00    +0.000 C 
ATOM      3  C   UNL     1      -3.423  12.734  22.760  0.00  0.00    +0.000 C 
ATOM      4  C   UNL     1      -2.284  12.809  21.526  0.00  0.00    +0.000 C 
ATOM      5  C   UNL     1      -3.064  13.236  20.237  0.00  0.00    +0.000 C 
ATOM      6  C   UNL     1      -0.990  12.426  20.684  0.00  0.00    +0.000 C 
ATOM      7  N   UNL     1       0.467  12.720  21.112  0.00  0.00    +0.000 N 
ATOM      8  N   UNL     1      -1.263  11.265  20.292  0.00  0.00    +0.000 NA
ATOM      9  C   UNL     1      -0.589  10.388  21.101  0.00  0.00    +0.000 A 
ATOM     10  C   UNL     1       0.276   9.552  20.380  0.00  0.00    +0.000 A 
ATOM     11  C   UNL     1       1.280   8.833  20.984  0.00  0.00    +0.000 A 
ATOM     12  C   UNL     1       1.190   8.777  22.343  0.00  0.00    +0.000 A 
ATOM     13  C   UNL     1       0.205   9.538  23.088  0.00  0.00    +0.000 A 
ATOM     14  C   UNL     1      -0.670  10.857  22.461  0.00  0.00    +0.000 A 
ATOM     15  C   UNL     1      -1.376  13.048  22.527  0.00  0.00    +0.000 C 
ATOM     16  N   UNL     1      -1.800  14.751  22.147  0.00  0.00    +0.000 N 
ATOM     17  C   UNL     1      -1.966  15.670  20.846  0.00  0.00    +0.000 C 
ATOM     18  C   UNL     1      -2.539  15.640  23.090  0.00  0.00    +0.000 A 
ATOM     19  C   UNL     1      -2.176  17.032  23.437  0.00  0.00    +0.000 A 
ATOM     20  C   UNL     1      -2.854  17.727  24.476  0.00  0.00    +0.000 A 
ATOM     21  C   UNL     1      -3.921  17.126  25.119  0.00  0.00    +0.000 A 
ATOM     22  C   UNL     1      -4.414  15.915  24.635  0.00  0.00    +0.000 A 
ATOM     23  C   UNL     1      -3.767  15.195  23.583  0.00  0.00    +0.000 A 
ATOM     24  H   UNL     1       0.983  12.282  21.942  0.00  0.00    +0.000 HD
ENDROOT
BRANCH   7  25
ATOM     25  C   UNL     1       1.463  12.841  20.203  0.00  0.00    +0.000 C 
BRANCH  25  26
ATOM     26  C   UNL     1       1.053  13.465  18.947  0.00  0.00    +0.000 C 
BRANCH  26  27
ATOM     27  C   UNL     1       2.399  13.503  18.214  0.00  0.00    +0.000 C 
BRANCH  27  28
ATOM     28  O   UNL     1       2.524  12.399  17.393  0.00  0.00    +0.000 OA
ATOM     29  H   UNL     1       2.397  12.769  16.486  0.00  0.00    +0.000 HD
ENDBRANCH  27  28
ENDBRANCH  26  27
ENDBRANCH  25  26
ENDBRANCH   7  25
TORSDOF 4
ENDMDL
MODEL 8
REMARK VINA RESULT:      -5.8      9.368     11.431
REMARK  Name = 
REMARK  7 active torsions:
REMARK  status: ('A' for Active; 'I' for Inactive)
REMARK    1  A    between atoms: C_1  and  C_2
REMARK    2  A    between atoms: C_4  and  C_5
REMARK    3  A    between atoms: N_7  and  C_8
REMARK    4  A    between atoms: C_8  and  C_9
REMARK    5  A    between atoms: C_9  and  C_10
REMARK    6  A    between atoms: C_10  and  O_11
REMARK    7  A    between atoms: N_20  and  C_21
REMARK                            x       y       z     vdW  Elec       q    Type
REMARK                         _______ _______ _______ _____ _____    ______ ____
ROOT
ATOM      1  C   UNL     1      -1.691  15.269  25.726  0.00  0.00    +0.000 C 
ATOM      2  C   UNL     1      -2.179  14.675  24.413  0.00  0.00    +0.000 C 
ATOM      3  C   UNL     1      -1.023  14.679  23.320  0.00  0.00    +0.000 C 
ATOM      4  C   UNL     1      -1.125  13.510  22.117  0.00  0.00    +0.000 C 
ATOM      5  C   UNL     1      -1.406  12.155  22.850  0.00  0.00    +0.000 C 
ATOM      6  C   UNL     1      -0.808  12.768  20.746  0.00  0.00    +0.000 C 
ATOM      7  N   UNL     1      -1.252  13.259  19.348  0.00  0.00    +0.000 N 
ATOM      8  N   UNL     1       0.394  12.436  20.897  0.00  0.00    +0.000 NA
ATOM      9  C   UNL     1       1.160  13.335  20.204  0.00  0.00    +0.000 A 
ATOM     10  C   UNL     1       1.958  12.720  19.229  0.00  0.00    +0.000 A 
ATOM     11  C   UNL     1       2.550  13.423  18.208  0.00  0.00    +0.000 A 
ATOM     12  C   UNL     1       2.534  14.776  18.376  0.00  0.00    +0.000 A 
ATOM     13  C   UNL     1       1.820  15.414  19.465  0.00  0.00    +0.000 A 
ATOM     14  C   UNL     1       0.620  14.657  20.407  0.00  0.00    +0.000 A 
ATOM     15  C   UNL     1      -1.500  14.543  21.297  0.00  0.00    +0.000 C 
ATOM     16  N   UNL     1      -3.135  14.032  21.837  0.00  0.00    +0.000 N 
ATOM     17  C   UNL     1      -3.959  12.668  21.998  0.00  0.00    +0.000 C 
ATOM     18  C   UNL     1      -4.009  14.874  22.704  0.00  0.00    +0.000 A 
ATOM     19  C   UNL     1      -5.446  15.152  22.481  0.00  0.00    +0.000 A 
ATOM     20  C   UNL     1      -6.139  16.105  23.278  0.00  0.00    +0.000 A 
ATOM     21  C   UNL     1      -5.486  16.723  24.328  0.00  0.00    +0.000 A 
ATOM     22  C   UNL     1      -4.211  16.290  24.687  0.00  0.00    +0.000 A 
ATOM     23  C   UNL     1      -3.490  15.324  23.919  0.00  0.00    +0.000 A 
ATOM     24  H   UNL     1      -0.910  14.143  18.850  0.00  0.00    +0.000 HD
ENDROOT
BRANCH   7  25
ATOM     25  C   UNL     1      -1.407  12.401  18.312  0.00  0.00    +0.000 C 
BRANCH  25  26
ATOM     26  C   UNL     1      -2.273  11.262  18.603  0.00  0.00    +0.000 C 
BRANCH  26  27
ATOM     27  C   UNL     1      -1.542  10.162  17.822  0.00  0.00    +0.000 C 
BRANCH  27  28
ATOM     28  O   UNL     1      -0.189  10.428  17.781  0.00  0.00    +0.000 OA
ATOM     29  H   UNL     1      -0.051  10.792  16.872  0.00  0.00    +0.000 HD
ENDBRANCH  27  28
ENDBRANCH  26  27
ENDBRANCH  25  26
ENDBRANCH   7  25
TORSDOF 4
ENDMDL
MODEL 9
REMARK VINA RESULT:      -5.7      8.175     11.231
REMARK  Name = 
REMARK  7 active torsions:
REMARK  status: ('A' for Active; 'I' for Inactive)
REMARK    1  A    between atoms: C_1  and  C_2
REMARK    2  A    between atoms: C_4  and  C_5
REMARK    3  A    between atoms: N_7  and  C_8
REMARK    4  A    between atoms: C_8  and  C_9
REMARK    5  A    between atoms: C_9  and  C_10
REMARK    6  A    between atoms: C_10  and  O_11
REMARK    7  A    between atoms: N_20  and  C_21
REMARK                            x       y       z     vdW  Elec       q    Type
REMARK                         _______ _______ _______ _____ _____    ______ ____
ROOT
ATOM      1  C   UNL     1       3.840  16.485  18.520  0.00  0.00    +0.000 C 
ATOM      2  C   UNL     1       2.427  16.284  19.047  0.00  0.00    +0.000 C 
ATOM      3  C   UNL     1       2.133  14.744  19.319  0.00  0.00    +0.000 C 
ATOM      4  C   UNL     1       0.972  14.398  20.485  0.00  0.00    +0.000 C 
ATOM      5  C   UNL     1       1.323  15.285  21.727  0.00  0.00    +0.000 C 
ATOM      6  C   UNL     1      -0.069  13.536  21.323  0.00  0.00    +0.000 C 
ATOM      7  N   UNL     1      -1.440  13.045  20.802  0.00  0.00    +0.000 N 
ATOM      8  N   UNL     1       0.677  12.698  21.890  0.00  0.00    +0.000 NA
ATOM      9  C   UNL     1       0.582  11.524  21.192  0.00  0.00    +0.000 A 
ATOM     10  C   UNL     1       0.142  10.460  21.992  0.00  0.00    +0.000 A 
ATOM     11  C   UNL     1      -0.337   9.286  21.462  0.00  0.00    +0.000 A 
ATOM     12  C   UNL     1      -0.092   9.132  20.130  0.00  0.00    +0.000 A 
ATOM     13  C   UNL     1       0.490  10.185  19.320  0.00  0.00    +0.000 A 
ATOM     14  C   UNL     1       0.572  11.823  19.782  0.00  0.00    +0.000 A 
ATOM     15  C   UNL     1       0.167  14.061  19.426  0.00  0.00    +0.000 C 
ATOM     16  N   UNL     1      -0.302  15.789  19.571  0.00  0.00    +0.000 N 
ATOM     17  C   UNL     1      -0.723  16.810  20.730  0.00  0.00    +0.000 C 
ATOM     18  C   UNL     1       0.025  16.814  18.538  0.00  0.00    +0.000 A 
ATOM     19  C   UNL     1      -0.912  17.813  17.979  0.00  0.00    +0.000 A 
ATOM     20  C   UNL     1      -0.538  18.631  16.876  0.00  0.00    +0.000 A 
ATOM     21  C   UNL     1       0.746  18.550  16.369  0.00  0.00    +0.000 A 
ATOM     22  C   UNL     1       1.697  17.785  17.041  0.00  0.00    +0.000 A 
ATOM     23  C   UNL     1       1.361  16.963  18.162  0.00  0.00    +0.000 A 
ATOM     24  H   UNL     1      -1.601  12.326  20.025  0.00  0.00    +0.000 HD
ENDROOT
BRANCH   7  25
ATOM     25  C   UNL     1      -2.463  12.773  21.645  0.00  0.00    +0.000 C 
BRANCH  25  26
ATOM     26  C   UNL     1      -3.775  13.168  21.141  0.00  0.00    +0.000 C 
BRANCH  26  27
ATOM     27  C   UNL     1      -3.706  14.683  21.370  0.00  0.00    +0.000 C 
BRANCH  27  28
ATOM     28  O   UNL     1      -3.791  15.351  20.165  0.00  0.00    +0.000 OA
ATOM     29  H   UNL     1      -4.188  16.222  20.409  0.00  0.00    +0.000 HD
ENDBRANCH  27  28
ENDBRANCH  26  27
ENDBRANCH  25  26
ENDBRANCH   7  25
TORSDOF 4
ENDMDL
