MODEL 1
REMARK VINA RESULT:      -7.6      0.000      0.000
REMARK  Name = 
REMARK  5 active torsions:
REMARK  status: ('A' for Active; 'I' for Inactive)
REMARK    1  A    between atoms: C_1  and  O_2
REMARK    2  A    between atoms: O_2  and  C_3
REMARK    3  A    between atoms: C_5  and  N_6
REMARK    4  A    between atoms: C_13  and  C_14
REMARK    5  A    between atoms: N_20  and  C_21
REMARK                            x       y       z     vdW  Elec       q    Type
REMARK                         _______ _______ _______ _____ _____    ______ ____
ROOT
ATOM      1  C   UNL     1       7.022   5.859  17.331  0.00  0.00    +0.000 A 
ATOM      2  C   UNL     1       7.455   5.770  16.001  0.00  0.00    +0.000 A 
ATOM      3  C   UNL     1       6.765   4.972  15.087  0.00  0.00    +0.000 A 
ATOM      4  C   UNL     1       5.618   4.258  15.464  0.00  0.00    +0.000 A 
ATOM      5  C   UNL     1       5.176   4.374  16.794  0.00  0.00    +0.000 A 
ATOM      6  C   UNL     1       5.856   5.157  17.736  0.00  0.00    +0.000 A 
ATOM      7  C   UNL     1       5.112   5.035  18.938  0.00  0.00    +0.000 A 
ATOM      8  C   UNL     1       4.038   4.175  18.756  0.00  0.00    +0.000 A 
ATOM      9  N   UNL     1       4.060   3.831  17.419  0.00  0.00    +0.000 N 
ATOM     10  C   UNL     1       3.064   3.074  16.684  0.00  0.00    +0.000 C 
ENDROOT
BRANCH   8  11
ATOM     11  C   UNL     1       3.071   3.754  19.782  0.00  0.00    +0.000 A 
ATOM     12  C   UNL     1       3.430   2.758  20.706  0.00  0.00    +0.000 A 
ATOM     13  C   UNL     1       2.516   2.277  21.645  0.00  0.00    +0.000 A 
ATOM     14  C   UNL     1       1.230   2.804  21.693  0.00  0.00    +0.000 A 
ATOM     15  C   UNL     1       0.853   3.792  20.786  0.00  0.00    +0.000 A 
ATOM     16  C   UNL     1       1.760   4.248  19.824  0.00  0.00    +0.000 A 
ENDBRANCH   8  11
BRANCH   3  17
ATOM     17  N   UNL     1       7.239   4.881  13.702  0.00  0.00    +0.000 N 
ATOM     18  O   UNL     1       6.692   4.059  12.952  0.00  0.00    +0.000 OA
ATOM     19  O   UNL     1       8.163   5.634  13.356  0.00  0.00    +0.000 OA
ENDBRANCH   3  17
BRANCH   1  21
ATOM     20  C   UNL     1       7.780   8.094  17.640  0.00  0.00    +0.000 C 
ATOM     21  O   UNL     1       7.764   6.749  18.098  0.00  0.00    +0.000 OA
ENDBRANCH   1  21
TORSDOF 3
ENDMDL
MODEL 2
REMARK VINA RESULT:      -7.5      0.308      1.094
REMARK  Name = 
REMARK  5 active torsions:
REMARK  status: ('A' for Active; 'I' for Inactive)
REMARK    1  A    between atoms: C_1  and  O_2
REMARK    2  A    between atoms: O_2  and  C_3
REMARK    3  A    between atoms: C_5  and  N_6
REMARK    4  A    between atoms: C_13  and  C_14
REMARK    5  A    between atoms: N_20  and  C_21
REMARK                            x       y       z     vdW  Elec       q    Type
REMARK                         _______ _______ _______ _____ _____    ______ ____
ROOT
ATOM      1  C   UNL     1       7.082   5.604  17.041  0.00  0.00    +0.000 A 
ATOM      2  C   UNL     1       7.452   5.528  15.692  0.00  0.00    +0.000 A 
ATOM      3  C   UNL     1       6.687   4.785  14.791  0.00  0.00    +0.000 A 
ATOM      4  C   UNL     1       5.526   4.115  15.202  0.00  0.00    +0.000 A 
ATOM      5  C   UNL     1       5.147   4.218  16.553  0.00  0.00    +0.000 A 
ATOM      6  C   UNL     1       5.903   4.946  17.482  0.00  0.00    +0.000 A 
ATOM      7  C   UNL     1       5.205   4.829  18.712  0.00  0.00    +0.000 A 
ATOM      8  C   UNL     1       4.085   4.024  18.558  0.00  0.00    +0.000 A 
ATOM      9  N   UNL     1       4.034   3.712  17.213  0.00  0.00    +0.000 N 
ATOM     10  C   UNL     1       2.974   3.020  16.506  0.00  0.00    +0.000 C 
ENDROOT
BRANCH   8  11
ATOM     11  C   UNL     1       3.145   3.623  19.615  0.00  0.00    +0.000 A 
ATOM     12  C   UNL     1       1.896   4.261  19.709  0.00  0.00    +0.000 A 
ATOM     13  C   UNL     1       1.007   3.964  20.745  0.00  0.00    +0.000 A 
ATOM     14  C   UNL     1       1.342   3.003  21.691  0.00  0.00    +0.000 A 
ATOM     15  C   UNL     1       2.575   2.359  21.617  0.00  0.00    +0.000 A 
ATOM     16  C   UNL     1       3.478   2.682  20.598  0.00  0.00    +0.000 A 
ENDBRANCH   8  11
BRANCH   3  17
ATOM     17  N   UNL     1       7.097   4.706  13.386  0.00  0.00    +0.000 N 
ATOM     18  O   UNL     1       6.587   3.825  12.679  0.00  0.00    +0.000 OA
ATOM     19  O   UNL     1       7.934   5.528  12.979  0.00  0.00    +0.000 OA
ENDBRANCH   3  17
BRANCH   1  21
ATOM     20  C   UNL     1       7.684   7.834  17.617  0.00  0.00    +0.000 C 
ATOM     21  O   UNL     1       7.896   6.440  17.795  0.00  0.00    +0.000 OA
ENDBRANCH   1  21
TORSDOF 3
ENDMDL
MODEL 3
REMARK VINA RESULT:      -7.0      5.659      7.925
REMARK  Name = 
REMARK  5 active torsions:
REMARK  status: ('A' for Active; 'I' for Inactive)
REMARK    1  A    between atoms: C_1  and  O_2
REMARK    2  A    between atoms: O_2  and  C_3
REMARK    3  A    between atoms: C_5  and  N_6
REMARK    4  A    between atoms: C_13  and  C_14
REMARK    5  A    between atoms: N_20  and  C_21
REMARK                            x       y       z     vdW  Elec       q    Type
REMARK                         _______ _______ _______ _____ _____    ______ ____
ROOT
ATOM      1  C   UNL     1       0.994  10.328  19.330  0.00  0.00    +0.000 A 
ATOM      2  C   UNL     1       0.400  10.694  20.545  0.00  0.00    +0.000 A 
ATOM      3  C   UNL     1       0.343   9.786  21.604  0.00  0.00    +0.000 A 
ATOM      4  C   UNL     1       0.891   8.500  21.491  0.00  0.00    +0.000 A 
ATOM      5  C   UNL     1       1.509   8.150  20.276  0.00  0.00    +0.000 A 
ATOM      6  C   UNL     1       1.569   9.036  19.192  0.00  0.00    +0.000 A 
ATOM      7  C   UNL     1       2.268   8.340  18.172  0.00  0.00    +0.000 A 
ATOM      8  C   UNL     1       2.588   7.057  18.595  0.00  0.00    +0.000 A 
ATOM      9  N   UNL     1       2.169   6.984  19.909  0.00  0.00    +0.000 N 
ATOM     10  C   UNL     1       2.407   5.909  20.854  0.00  0.00    +0.000 C 
ENDROOT
BRANCH   8  11
ATOM     11  C   UNL     1       3.263   6.018  17.802  0.00  0.00    +0.000 A 
ATOM     12  C   UNL     1       2.724   4.721  17.759  0.00  0.00    +0.000 A 
ATOM     13  C   UNL     1       3.375   3.688  17.081  0.00  0.00    +0.000 A 
ATOM     14  C   UNL     1       4.567   3.943  16.411  0.00  0.00    +0.000 A 
ATOM     15  C   UNL     1       5.119   5.221  16.442  0.00  0.00    +0.000 A 
ATOM     16  C   UNL     1       4.482   6.246  17.150  0.00  0.00    +0.000 A 
ENDBRANCH   8  11
BRANCH   3  17
ATOM     17  N   UNL     1      -0.294  10.182  22.864  0.00  0.00    +0.000 N 
ATOM     18  O   UNL     1      -1.252  10.966  22.811  0.00  0.00    +0.000 OA
ATOM     19  O   UNL     1       0.161   9.707  23.917  0.00  0.00    +0.000 OA
ENDBRANCH   3  17
BRANCH   1  21
ATOM     20  C   UNL     1       2.127  12.268  18.542  0.00  0.00    +0.000 C 
ATOM     21  O   UNL     1       1.043  11.361  18.402  0.00  0.00    +0.000 OA
ENDBRANCH   1  21
TORSDOF 3
ENDMDL
MODEL 4
REMARK VINA RESULT:      -6.9      5.672      7.956
REMARK  Name = 
REMARK  5 active torsions:
REMARK  status: ('A' for Active; 'I' for Inactive)
REMARK    1  A    between atoms: C_1  and  O_2
REMARK    2  A    between atoms: O_2  and  C_3
REMARK    3  A    between atoms: C_5  and  N_6
REMARK    4  A    between atoms: C_13  and  C_14
REMARK    5  A    between atoms: N_20  and  C_21
REMARK                            x       y       z     vdW  Elec       q    Type
REMARK                         _______ _______ _______ _____ _____    ______ ____
ROOT
ATOM      1  C   UNL     1       1.092  10.220  19.394  0.00  0.00    +0.000 A 
ATOM      2  C   UNL     1       0.480  10.585  20.600  0.00  0.00    +0.000 A 
ATOM      3  C   UNL     1       0.387   9.669  21.649  0.00  0.00    +0.000 A 
ATOM      4  C   UNL     1       0.916   8.375  21.535  0.00  0.00    +0.000 A 
ATOM      5  C   UNL     1       1.553   8.026  20.330  0.00  0.00    +0.000 A 
ATOM      6  C   UNL     1       1.648   8.921  19.256  0.00  0.00    +0.000 A 
ATOM      7  C   UNL     1       2.357   8.222  18.243  0.00  0.00    +0.000 A 
ATOM      8  C   UNL     1       2.648   6.931  18.661  0.00  0.00    +0.000 A 
ATOM      9  N   UNL     1       2.202   6.853  19.966  0.00  0.00    +0.000 N 
ATOM     10  C   UNL     1       2.403   5.766  20.905  0.00  0.00    +0.000 C 
ENDROOT
BRANCH   8  11
ATOM     11  C   UNL     1       3.322   5.889  17.872  0.00  0.00    +0.000 A 
ATOM     12  C   UNL     1       4.485   6.208  17.151  0.00  0.00    +0.000 A 
ATOM     13  C   UNL     1       5.109   5.268  16.329  0.00  0.00    +0.000 A 
ATOM     14  C   UNL     1       4.594   3.980  16.234  0.00  0.00    +0.000 A 
ATOM     15  C   UNL     1       3.441   3.642  16.940  0.00  0.00    +0.000 A 
ATOM     16  C   UNL     1       2.798   4.596  17.736  0.00  0.00    +0.000 A 
ENDBRANCH   8  11
BRANCH   3  17
ATOM     17  N   UNL     1      -0.269  10.064  22.900  0.00  0.00    +0.000 N 
ATOM     18  O   UNL     1      -1.290  10.762  22.827  0.00  0.00    +0.000 OA
ATOM     19  O   UNL     1       0.235   9.674  23.966  0.00  0.00    +0.000 OA
ENDBRANCH   3  17
BRANCH   1  21
ATOM     20  C   UNL     1       0.499  12.457  18.835  0.00  0.00    +0.000 C 
ATOM     21  O   UNL     1       1.176  11.260  18.477  0.00  0.00    +0.000 OA
ENDBRANCH   1  21
TORSDOF 3
ENDMDL
MODEL 5
REMARK VINA RESULT:      -6.7      5.232      7.658
REMARK  Name = 
REMARK  5 active torsions:
REMARK  status: ('A' for Active; 'I' for Inactive)
REMARK    1  A    between atoms: C_1  and  O_2
REMARK    2  A    between atoms: O_2  and  C_3
REMARK    3  A    between atoms: C_5  and  N_6
REMARK    4  A    between atoms: C_13  and  C_14
REMARK    5  A    between atoms: N_20  and  C_21
REMARK                            x       y       z     vdW  Elec       q    Type
REMARK                         _______ _______ _______ _____ _____    ______ ____
ROOT
ATOM      1  C   UNL     1       1.356   9.823  19.132  0.00  0.00    +0.000 A 
ATOM      2  C   UNL     1       0.703   9.986  20.361  0.00  0.00    +0.000 A 
ATOM      3  C   UNL     1       0.698   8.953  21.299  0.00  0.00    +0.000 A 
ATOM      4  C   UNL     1       1.357   7.740  21.051  0.00  0.00    +0.000 A 
ATOM      5  C   UNL     1       2.032   7.595  19.825  0.00  0.00    +0.000 A 
ATOM      6  C   UNL     1       2.042   8.610  18.859  0.00  0.00    +0.000 A 
ATOM      7  C   UNL     1       2.823   8.104  17.787  0.00  0.00    +0.000 A 
ATOM      8  C   UNL     1       3.242   6.810  18.063  0.00  0.00    +0.000 A 
ATOM      9  N   UNL     1       2.799   6.541  19.343  0.00  0.00    +0.000 N 
ATOM     10  C   UNL     1       3.104   5.381  20.159  0.00  0.00    +0.000 C 
ENDROOT
BRANCH   8  11
ATOM     11  C   UNL     1       4.023   5.936  17.174  0.00  0.00    +0.000 A 
ATOM     12  C   UNL     1       3.840   4.544  17.237  0.00  0.00    +0.000 A 
ATOM     13  C   UNL     1       4.616   3.676  16.465  0.00  0.00    +0.000 A 
ATOM     14  C   UNL     1       5.572   4.189  15.596  0.00  0.00    +0.000 A 
ATOM     15  C   UNL     1       5.770   5.566  15.519  0.00  0.00    +0.000 A 
ATOM     16  C   UNL     1       5.015   6.431  16.318  0.00  0.00    +0.000 A 
ENDBRANCH   8  11
BRANCH   3  17
ATOM     17  N   UNL     1      -0.001   9.137  22.575  0.00  0.00    +0.000 N 
ATOM     18  O   UNL     1      -1.052   8.505  22.759  0.00  0.00    +0.000 OA
ATOM     19  O   UNL     1       0.499   9.915  23.403  0.00  0.00    +0.000 OA
ENDBRANCH   3  17
BRANCH   1  21
ATOM     20  C   UNL     1       0.438  11.985  18.742  0.00  0.00    +0.000 C 
ATOM     21  O   UNL     1       1.338  10.963  18.337  0.00  0.00    +0.000 OA
ENDBRANCH   1  21
TORSDOF 3
ENDMDL
MODEL 6
REMARK VINA RESULT:      -6.6      4.287      5.420
REMARK  Name = 
REMARK  5 active torsions:
REMARK  status: ('A' for Active; 'I' for Inactive)
REMARK    1  A    between atoms: C_1  and  O_2
REMARK    2  A    between atoms: O_2  and  C_3
REMARK    3  A    between atoms: C_5  and  N_6
REMARK    4  A    between atoms: C_13  and  C_14
REMARK    5  A    between atoms: N_20  and  C_21
REMARK                            x       y       z     vdW  Elec       q    Type
REMARK                         _______ _______ _______ _____ _____    ______ ____
ROOT
ATOM      1  C   UNL     1       3.394   4.778  19.254  0.00  0.00    +0.000 A 
ATOM      2  C   UNL     1       4.155   4.540  18.102  0.00  0.00    +0.000 A 
ATOM      3  C   UNL     1       4.281   5.528  17.124  0.00  0.00    +0.000 A 
ATOM      4  C   UNL     1       3.670   6.782  17.273  0.00  0.00    +0.000 A 
ATOM      5  C   UNL     1       2.929   7.021  18.444  0.00  0.00    +0.000 A 
ATOM      6  C   UNL     1       2.776   6.043  19.437  0.00  0.00    +0.000 A 
ATOM      7  C   UNL     1       1.990   6.652  20.449  0.00  0.00    +0.000 A 
ATOM      8  C   UNL     1       1.636   7.941  20.076  0.00  0.00    +0.000 A 
ATOM      9  N   UNL     1       2.274   8.169  18.873  0.00  0.00    +0.000 N 
ATOM     10  C   UNL     1       2.354   9.415  18.136  0.00  0.00    +0.000 C 
ENDROOT
BRANCH   8  11
ATOM     11  C   UNL     1       0.781   8.867  20.835  0.00  0.00    +0.000 A 
ATOM     12  C   UNL     1       0.003   9.813  20.147  0.00  0.00    +0.000 A 
ATOM     13  C   UNL     1      -0.762  10.760  20.833  0.00  0.00    +0.000 A 
ATOM     14  C   UNL     1      -0.781  10.759  22.223  0.00  0.00    +0.000 A 
ATOM     15  C   UNL     1      -0.015   9.830  22.925  0.00  0.00    +0.000 A 
ATOM     16  C   UNL     1       0.776   8.905  22.236  0.00  0.00    +0.000 A 
ENDBRANCH   8  11
BRANCH   3  17
ATOM     17  N   UNL     1       5.071   5.258  15.919  0.00  0.00    +0.000 N 
ATOM     18  O   UNL     1       5.252   4.075  15.594  0.00  0.00    +0.000 OA
ATOM     19  O   UNL     1       5.515   6.230  15.287  0.00  0.00    +0.000 OA
ENDBRANCH   3  17
BRANCH   1  21
ATOM     20  C   UNL     1       4.058   2.539  19.720  0.00  0.00    +0.000 C 
ATOM     21  O   UNL     1       3.427   3.731  20.167  0.00  0.00    +0.000 OA
ENDBRANCH   1  21
TORSDOF 3
ENDMDL
MODEL 7
REMARK VINA RESULT:      -6.6      4.484      5.565
REMARK  Name = 
REMARK  5 active torsions:
REMARK  status: ('A' for Active; 'I' for Inactive)
REMARK    1  A    between atoms: C_1  and  O_2
REMARK    2  A    between atoms: O_2  and  C_3
REMARK    3  A    between atoms: C_5  and  N_6
REMARK    4  A    between atoms: C_13  and  C_14
REMARK    5  A    between atoms: N_20  and  C_21
REMARK                            x       y       z     vdW  Elec       q    Type
REMARK                         _______ _______ _______ _____ _____    ______ ____
ROOT
ATOM      1  C   UNL     1       3.189   5.001  19.405  0.00  0.00    +0.000 A 
ATOM      2  C   UNL     1       3.953   4.730  18.262  0.00  0.00    +0.000 A 
ATOM      3  C   UNL     1       4.107   5.700  17.271  0.00  0.00    +0.000 A 
ATOM      4  C   UNL     1       3.525   6.970  17.397  0.00  0.00    +0.000 A 
ATOM      5  C   UNL     1       2.782   7.242  18.560  0.00  0.00    +0.000 A 
ATOM      6  C   UNL     1       2.599   6.283  19.566  0.00  0.00    +0.000 A 
ATOM      7  C   UNL     1       1.821   6.925  20.564  0.00  0.00    +0.000 A 
ATOM      8  C   UNL     1       1.499   8.216  20.170  0.00  0.00    +0.000 A 
ATOM      9  N   UNL     1       2.150   8.411  18.968  0.00  0.00    +0.000 N 
ATOM     10  C   UNL     1       2.263   9.645  18.213  0.00  0.00    +0.000 C 
ENDROOT
BRANCH   8  11
ATOM     11  C   UNL     1       0.661   9.172  20.910  0.00  0.00    +0.000 A 
ATOM     12  C   UNL     1       0.558   9.066  22.307  0.00  0.00    +0.000 A 
ATOM     13  C   UNL     1      -0.287   9.905  23.037  0.00  0.00    +0.000 A 
ATOM     14  C   UNL     1      -1.025  10.884  22.382  0.00  0.00    +0.000 A 
ATOM     15  C   UNL     1      -0.938  11.006  20.997  0.00  0.00    +0.000 A 
ATOM     16  C   UNL     1      -0.117  10.142  20.264  0.00  0.00    +0.000 A 
ENDBRANCH   8  11
BRANCH   3  17
ATOM     17  N   UNL     1       4.898   5.394  16.074  0.00  0.00    +0.000 N 
ATOM     18  O   UNL     1       5.046   4.204  15.762  0.00  0.00    +0.000 OA
ATOM     19  O   UNL     1       5.377   6.346  15.438  0.00  0.00    +0.000 OA
ENDBRANCH   3  17
BRANCH   1  21
ATOM     20  C   UNL     1       3.826   2.765  19.918  0.00  0.00    +0.000 C 
ATOM     21  O   UNL     1       3.193   3.968  20.334  0.00  0.00    +0.000 OA
ENDBRANCH   1  21
TORSDOF 3
ENDMDL
MODEL 8
REMARK VINA RESULT:      -6.6      4.798      6.303
REMARK  Name = 
REMARK  5 active torsions:
REMARK  status: ('A' for Active; 'I' for Inactive)
REMARK    1  A    between atoms: C_1  and  O_2
REMARK    2  A    between atoms: O_2  and  C_3
REMARK    3  A    between atoms: C_5  and  N_6
REMARK    4  A    between atoms: C_13  and  C_14
REMARK    5  A    between atoms: N_20  and  C_21
REMARK                            x       y       z     vdW  Elec       q    Type
REMARK                         _______ _______ _______ _____ _____    ______ ____
ROOT
ATOM      1  C   UNL     1       2.580   5.081  20.444  0.00  0.00    +0.000 A 
ATOM      2  C   UNL     1       3.444   4.453  19.537  0.00  0.00    +0.000 A 
ATOM      3  C   UNL     1       3.824   5.102  18.361  0.00  0.00    +0.000 A 
ATOM      4  C   UNL     1       3.374   6.396  18.065  0.00  0.00    +0.000 A 
ATOM      5  C   UNL     1       2.527   7.030  18.994  0.00  0.00    +0.000 A 
ATOM      6  C   UNL     1       2.118   6.397  20.176  0.00  0.00    +0.000 A 
ATOM      7  C   UNL     1       1.298   7.342  20.846  0.00  0.00    +0.000 A 
ATOM      8  C   UNL     1       1.171   8.496  20.085  0.00  0.00    +0.000 A 
ATOM      9  N   UNL     1       1.983   8.307  18.984  0.00  0.00    +0.000 N 
ATOM     10  C   UNL     1       2.322   9.277  17.960  0.00  0.00    +0.000 C 
ENDROOT
BRANCH   8  11
ATOM     11  C   UNL     1       0.358   9.676  20.418  0.00  0.00    +0.000 A 
ATOM     12  C   UNL     1       0.360  10.170  21.734  0.00  0.00    +0.000 A 
ATOM     13  C   UNL     1      -0.457  11.240  22.108  0.00  0.00    +0.000 A 
ATOM     14  C   UNL     1      -1.272  11.852  21.162  0.00  0.00    +0.000 A 
ATOM     15  C   UNL     1      -1.289  11.377  19.852  0.00  0.00    +0.000 A 
ATOM     16  C   UNL     1      -0.496  10.284  19.488  0.00  0.00    +0.000 A 
ENDBRANCH   8  11
BRANCH   3  17
ATOM     17  N   UNL     1       4.719   4.424  17.417  0.00  0.00    +0.000 N 
ATOM     18  O   UNL     1       4.218   3.912  16.405  0.00  0.00    +0.000 OA
ATOM     19  O   UNL     1       5.931   4.402  17.683  0.00  0.00    +0.000 OA
ENDBRANCH   3  17
BRANCH   1  21
ATOM     20  C   UNL     1       1.658   3.117  21.425  0.00  0.00    +0.000 C 
ATOM     21  O   UNL     1       2.355   4.343  21.599  0.00  0.00    +0.000 OA
ENDBRANCH   1  21
TORSDOF 3
ENDMDL
MODEL 9
REMARK VINA RESULT:      -6.5      4.585      6.025
REMARK  Name = 
REMARK  5 active torsions:
REMARK  status: ('A' for Active; 'I' for Inactive)
REMARK    1  A    between atoms: C_1  and  O_2
REMARK    2  A    between atoms: O_2  and  C_3
REMARK    3  A    between atoms: C_5  and  N_6
REMARK    4  A    between atoms: C_13  and  C_14
REMARK    5  A    between atoms: N_20  and  C_21
REMARK                            x       y       z     vdW  Elec       q    Type
REMARK                         _______ _______ _______ _____ _____    ______ ____
ROOT
ATOM      1  C   UNL     1       2.826   4.817  19.882  0.00  0.00    +0.000 A 
ATOM      2  C   UNL     1       3.621   4.462  18.783  0.00  0.00    +0.000 A 
ATOM      3  C   UNL     1       3.854   5.379  17.757  0.00  0.00    +0.000 A 
ATOM      4  C   UNL     1       3.322   6.675  17.803  0.00  0.00    +0.000 A 
ATOM      5  C   UNL     1       2.547   7.032  18.922  0.00  0.00    +0.000 A 
ATOM      6  C   UNL     1       2.285   6.128  19.961  0.00  0.00    +0.000 A 
ATOM      7  C   UNL     1       1.497   6.846  20.897  0.00  0.00    +0.000 A 
ATOM      8  C   UNL     1       1.246   8.130  20.433  0.00  0.00    +0.000 A 
ATOM      9  N   UNL     1       1.951   8.242  19.251  0.00  0.00    +0.000 N 
ATOM     10  C   UNL     1       2.144   9.434  18.447  0.00  0.00    +0.000 C 
ENDROOT
BRANCH   8  11
ATOM     11  C   UNL     1       0.421   9.152  21.095  0.00  0.00    +0.000 A 
ATOM     12  C   UNL     1      -0.167  10.172  20.327  0.00  0.00    +0.000 A 
ATOM     13  C   UNL     1      -0.892  11.204  20.926  0.00  0.00    +0.000 A 
ATOM     14  C   UNL     1      -1.063  11.220  22.306  0.00  0.00    +0.000 A 
ATOM     15  C   UNL     1      -0.488  10.219  23.086  0.00  0.00    +0.000 A 
ATOM     16  C   UNL     1       0.267   9.205  22.487  0.00  0.00    +0.000 A 
ENDBRANCH   8  11
BRANCH   3  17
ATOM     17  N   UNL     1       4.678   4.986  16.609  0.00  0.00    +0.000 N 
ATOM     18  O   UNL     1       5.102   5.880  15.863  0.00  0.00    +0.000 OA
ATOM     19  O   UNL     1       4.907   3.777  16.447  0.00  0.00    +0.000 OA
ENDBRANCH   3  17
BRANCH   1  21
ATOM     20  C   UNL     1       1.518   3.122  20.924  0.00  0.00    +0.000 C 
ATOM     21  O   UNL     1       2.750   3.828  20.855  0.00  0.00    +0.000 OA
ENDBRANCH   1  21
TORSDOF 3
ENDMDL
