MODEL 1
REMARK VINA RESULT:      -7.9      0.000      0.000
REMARK  Name = 
REMARK  8 active torsions:
REMARK  status: ('A' for Active; 'I' for Inactive)
REMARK    1  A    between atoms: C_1  and  C_2
REMARK    2  A    between atoms: C_2  and  C_3
REMARK    3  A    between atoms: C_7  and  C_8
REMARK    4  A    between atoms: C_11  and  C_12
REMARK    5  A    between atoms: C_17  and  O_18
REMARK    6  A    between atoms: C_20  and  C_21
REMARK    7  A    between atoms: C_23  and  C_24
REMARK    8  A    between atoms: C_25  and  C_26
REMARK                            x       y       z     vdW  Elec       q    Type
REMARK                         _______ _______ _______ _____ _____    ______ ____
ROOT
ATOM      1  C   UNL     1      -0.459  10.657  22.036  0.00  0.00    +0.000 A 
ATOM      2  N   UNL     1       0.070  10.528  23.275  0.00  0.00    +0.000 NA
ATOM      3  C   UNL     1       0.933   9.520  23.464  0.00  0.00    +0.000 A 
ATOM      4  N   UNL     1       1.349   8.661  22.528  0.00  0.00    +0.000 NA
ATOM      5  C   UNL     1       0.824   8.821  21.287  0.00  0.00    +0.000 A 
ATOM      6  C   UNL     1      -0.143   9.798  20.996  0.00  0.00    +0.000 A 
ENDROOT
BRANCH   5   7
ATOM      7  C   UNL     1       1.354   7.875  20.293  0.00  0.00    +0.000 A 
ATOM      8  C   UNL     1       1.320   6.510  20.534  0.00  0.00    +0.000 A 
ATOM      9  C   UNL     1       2.090   5.646  19.785  0.00  0.00    +0.000 A 
ATOM     10  C   UNL     1       2.763   6.043  18.626  0.00  0.00    +0.000 A 
ATOM     11  C   UNL     1       2.707   7.403  18.272  0.00  0.00    +0.000 A 
ATOM     12  C   UNL     1       3.441   8.048  17.127  0.00  0.00    +0.000 C 
ATOM     13  C   UNL     1       1.993   8.295  19.112  0.00  0.00    +0.000 A 
BRANCH  10  14
ATOM     14  C   UNL     1       3.637   5.023  17.955  0.00  0.00    +0.000 C 
ATOM     15  O   UNL     1       3.149   4.233  17.151  0.00  0.00    +0.000 OA
ATOM     16  N   UNL     1       5.011   5.068  18.153  0.00  0.00    +0.000 N 
ATOM     17  C   UNL     1       5.897   4.341  17.258  0.00  0.00    +0.000 C 
ATOM     18  C   UNL     1       7.313   4.683  17.726  0.00  0.00    +0.000 C 
ATOM     19  C   UNL     1       7.126   5.860  18.678  0.00  0.00    +0.000 C 
ATOM     20  C   UNL     1       5.771   5.552  19.296  0.00  0.00    +0.000 C 
BRANCH  19  21
ATOM     21  O   UNL     1       8.152   5.957  19.645  0.00  0.00    +0.000 OA
ATOM     22  H   UNL     1       8.778   5.228  19.494  0.00  0.00    +0.000 HD
ENDBRANCH  19  21
ENDBRANCH  10  14
ENDBRANCH   5   7
BRANCH   1  24
ATOM     23  C   UNL     1      -2.003  12.287  23.127  0.00  0.00    +0.000 C 
ATOM     24  C   UNL     1      -1.366  11.841  21.817  0.00  0.00    +0.000 C 
ENDBRANCH   1  24
BRANCH   6  25
ATOM     25  C   UNL     1      -0.787   9.941  19.710  0.00  0.00    +0.000 C 
ATOM     26  C   UNL     1      -1.389  10.037  18.655  0.00  0.00    +0.000 C 
BRANCH  26  27
ATOM     27  C   UNL     1      -2.168  10.140  17.461  0.00  0.00    +0.000 A 
ATOM     28  C   UNL     1      -3.296  10.951  17.399  0.00  0.00    +0.000 A 
ATOM     29  C   UNL     1      -4.009  11.043  16.202  0.00  0.00    +0.000 A 
ATOM     30  C   UNL     1      -3.605  10.289  15.109  0.00  0.00    +0.000 A 
ATOM     31  N   UNL     1      -4.263  10.415  13.890  0.00  0.00    +0.000 N 
ATOM     32  N   UNL     1      -2.531   9.481  15.149  0.00  0.00    +0.000 NA
ATOM     33  C   UNL     1      -1.835   9.425  16.316  0.00  0.00    +0.000 A 
ATOM     34  H   UNL     1      -5.270  10.366  13.975  0.00  0.00    +0.000 HD
ATOM     35  H   UNL     1      -3.888   9.715  13.256  0.00  0.00    +0.000 HD
ENDBRANCH  26  27
ENDBRANCH   6  25
TORSDOF 6
ENDMDL
MODEL 2
REMARK VINA RESULT:      -7.3      3.292      8.604
REMARK  Name = 
REMARK  8 active torsions:
REMARK  status: ('A' for Active; 'I' for Inactive)
REMARK    1  A    between atoms: C_1  and  C_2
REMARK    2  A    between atoms: C_2  and  C_3
REMARK    3  A    between atoms: C_7  and  C_8
REMARK    4  A    between atoms: C_11  and  C_12
REMARK    5  A    between atoms: C_17  and  O_18
REMARK    6  A    between atoms: C_20  and  C_21
REMARK    7  A    between atoms: C_23  and  C_24
REMARK    8  A    between atoms: C_25  and  C_26
REMARK                            x       y       z     vdW  Elec       q    Type
REMARK                         _______ _______ _______ _____ _____    ______ ____
ROOT
ATOM      1  C   UNL     1       2.664   2.451  19.700  0.00  0.00    +0.000 A 
ATOM      2  N   UNL     1       1.844   2.015  20.685  0.00  0.00    +0.000 NA
ATOM      3  C   UNL     1       1.204   2.951  21.398  0.00  0.00    +0.000 A 
ATOM      4  N   UNL     1       1.269   4.271  21.195  0.00  0.00    +0.000 NA
ATOM      5  C   UNL     1       2.079   4.686  20.188  0.00  0.00    +0.000 A 
ATOM      6  C   UNL     1       2.853   3.795  19.425  0.00  0.00    +0.000 A 
ENDROOT
BRANCH   5   7
ATOM      7  C   UNL     1       2.073   6.143  19.986  0.00  0.00    +0.000 A 
ATOM      8  C   UNL     1       1.574   6.986  20.967  0.00  0.00    +0.000 A 
ATOM      9  C   UNL     1       1.261   8.297  20.672  0.00  0.00    +0.000 A 
ATOM     10  C   UNL     1       1.623   8.909  19.469  0.00  0.00    +0.000 A 
ATOM     11  C   UNL     1       2.258   8.114  18.497  0.00  0.00    +0.000 A 
ATOM     12  C   UNL     1       2.634   8.553  17.108  0.00  0.00    +0.000 C 
ATOM     13  C   UNL     1       2.480   6.743  18.780  0.00  0.00    +0.000 A 
BRANCH  10  14
ATOM     14  C   UNL     1       1.144  10.313  19.241  0.00  0.00    +0.000 C 
ATOM     15  O   UNL     1       1.910  11.257  19.414  0.00  0.00    +0.000 OA
ATOM     16  N   UNL     1      -0.123  10.522  18.713  0.00  0.00    +0.000 N 
ATOM     17  C   UNL     1      -0.472  11.820  18.156  0.00  0.00    +0.000 C 
ATOM     18  C   UNL     1      -1.891  11.657  17.607  0.00  0.00    +0.000 C 
ATOM     19  C   UNL     1      -2.128  10.150  17.608  0.00  0.00    +0.000 C 
ATOM     20  C   UNL     1      -1.323   9.706  18.820  0.00  0.00    +0.000 C 
BRANCH  19  21
ATOM     21  O   UNL     1      -3.495   9.807  17.712  0.00  0.00    +0.000 OA
ATOM     22  H   UNL     1      -3.567   9.015  18.271  0.00  0.00    +0.000 HD
ENDBRANCH  19  21
ENDBRANCH  10  14
ENDBRANCH   5   7
BRANCH   1  24
ATOM     23  C   UNL     1       4.694   1.031  19.397  0.00  0.00    +0.000 C 
ATOM     24  C   UNL     1       3.316   1.386  18.855  0.00  0.00    +0.000 C 
ENDBRANCH   1  24
BRANCH   6  25
ATOM     25  C   UNL     1       3.791   4.208  18.405  0.00  0.00    +0.000 C 
ATOM     26  C   UNL     1       4.581   4.489  17.522  0.00  0.00    +0.000 C 
BRANCH  26  27
ATOM     27  C   UNL     1       5.490   4.745  16.449  0.00  0.00    +0.000 A 
ATOM     28  C   UNL     1       5.344   4.126  15.213  0.00  0.00    +0.000 A 
ATOM     29  C   UNL     1       6.239   4.429  14.184  0.00  0.00    +0.000 A 
ATOM     30  C   UNL     1       7.284   5.309  14.429  0.00  0.00    +0.000 A 
ATOM     31  N   UNL     1       8.147   5.673  13.401  0.00  0.00    +0.000 N 
ATOM     32  N   UNL     1       7.460   5.905  15.622  0.00  0.00    +0.000 NA
ATOM     33  C   UNL     1       6.563   5.616  16.602  0.00  0.00    +0.000 A 
ATOM     34  H   UNL     1       8.493   4.882  12.874  0.00  0.00    +0.000 HD
ATOM     35  H   UNL     1       8.893   6.235  13.800  0.00  0.00    +0.000 HD
ENDBRANCH  26  27
ENDBRANCH   6  25
TORSDOF 6
ENDMDL
MODEL 3
REMARK VINA RESULT:      -7.2      1.582      2.492
REMARK  Name = 
REMARK  8 active torsions:
REMARK  status: ('A' for Active; 'I' for Inactive)
REMARK    1  A    between atoms: C_1  and  C_2
REMARK    2  A    between atoms: C_2  and  C_3
REMARK    3  A    between atoms: C_7  and  C_8
REMARK    4  A    between atoms: C_11  and  C_12
REMARK    5  A    between atoms: C_17  and  O_18
REMARK    6  A    between atoms: C_20  and  C_21
REMARK    7  A    between atoms: C_23  and  C_24
REMARK    8  A    between atoms: C_25  and  C_26
REMARK                            x       y       z     vdW  Elec       q    Type
REMARK                         _______ _______ _______ _____ _____    ______ ____
ROOT
ATOM      1  C   UNL     1      -1.145  11.381  21.925  0.00  0.00    +0.000 A 
ATOM      2  N   UNL     1      -0.768  11.355  23.224  0.00  0.00    +0.000 NA
ATOM      3  C   UNL     1       0.063  10.371  23.594  0.00  0.00    +0.000 A 
ATOM      4  N   UNL     1       0.584   9.442  22.787  0.00  0.00    +0.000 NA
ATOM      5  C   UNL     1       0.211   9.498  21.484  0.00  0.00    +0.000 A 
ATOM      6  C   UNL     1      -0.711  10.443  21.002  0.00  0.00    +0.000 A 
ENDROOT
BRANCH   5   7
ATOM      7  C   UNL     1       0.852   8.478  20.639  0.00  0.00    +0.000 A 
ATOM      8  C   UNL     1       0.953   7.167  21.077  0.00  0.00    +0.000 A 
ATOM      9  C   UNL     1       1.820   6.287  20.464  0.00  0.00    +0.000 A 
ATOM     10  C   UNL     1       2.469   6.580  19.260  0.00  0.00    +0.000 A 
ATOM     11  C   UNL     1       2.281   7.862  18.712  0.00  0.00    +0.000 A 
ATOM     12  C   UNL     1       2.965   8.406  17.487  0.00  0.00    +0.000 C 
ATOM     13  C   UNL     1       1.465   8.787  19.411  0.00  0.00    +0.000 A 
BRANCH  10  14
ATOM     14  C   UNL     1       3.453   5.570  18.747  0.00  0.00    +0.000 C 
ATOM     15  O   UNL     1       4.634   5.880  18.610  0.00  0.00    +0.000 OA
ATOM     16  N   UNL     1       3.043   4.257  18.554  0.00  0.00    +0.000 N 
ATOM     17  C   UNL     1       4.033   3.201  18.407  0.00  0.00    +0.000 C 
ATOM     18  C   UNL     1       3.229   1.905  18.296  0.00  0.00    +0.000 C 
ATOM     19  C   UNL     1       1.816   2.296  18.717  0.00  0.00    +0.000 C 
ATOM     20  C   UNL     1       1.727   3.732  18.223  0.00  0.00    +0.000 C 
BRANCH  19  21
ATOM     21  O   UNL     1       0.821   1.467  18.151  0.00  0.00    +0.000 OA
ATOM     22  H   UNL     1       0.337   1.037  18.876  0.00  0.00    +0.000 HD
ENDBRANCH  19  21
ENDBRANCH  10  14
ENDBRANCH   5   7
BRANCH   1  24
ATOM     23  C   UNL     1      -3.234  12.658  22.411  0.00  0.00    +0.000 C 
ATOM     24  C   UNL     1      -2.015  12.538  21.505  0.00  0.00    +0.000 C 
ENDBRANCH   1  24
BRANCH   6  25
ATOM     25  C   UNL     1      -1.197  10.478  19.641  0.00  0.00    +0.000 C 
ATOM     26  C   UNL     1      -1.657  10.461  18.513  0.00  0.00    +0.000 C 
BRANCH  26  27
ATOM     27  C   UNL     1      -2.265  10.402  17.221  0.00  0.00    +0.000 A 
ATOM     28  C   UNL     1      -3.301  11.257  16.867  0.00  0.00    +0.000 A 
ATOM     29  C   UNL     1      -3.844  11.183  15.583  0.00  0.00    +0.000 A 
ATOM     30  C   UNL     1      -3.369  10.226  14.697  0.00  0.00    +0.000 A 
ATOM     31  N   UNL     1      -3.852  10.177  13.394  0.00  0.00    +0.000 N 
ATOM     32  N   UNL     1      -2.382   9.372  15.021  0.00  0.00    +0.000 NA
ATOM     33  C   UNL     1      -1.849   9.478  16.268  0.00  0.00    +0.000 A 
ATOM     34  H   UNL     1      -4.862  10.207  13.343  0.00  0.00    +0.000 HD
ATOM     35  H   UNL     1      -3.460   9.356  12.943  0.00  0.00    +0.000 HD
ENDBRANCH  26  27
ENDBRANCH   6  25
TORSDOF 6
ENDMDL
MODEL 4
REMARK VINA RESULT:      -7.0      5.665      7.851
REMARK  Name = 
REMARK  8 active torsions:
REMARK  status: ('A' for Active; 'I' for Inactive)
REMARK    1  A    between atoms: C_1  and  C_2
REMARK    2  A    between atoms: C_2  and  C_3
REMARK    3  A    between atoms: C_7  and  C_8
REMARK    4  A    between atoms: C_11  and  C_12
REMARK    5  A    between atoms: C_17  and  O_18
REMARK    6  A    between atoms: C_20  and  C_21
REMARK    7  A    between atoms: C_23  and  C_24
REMARK    8  A    between atoms: C_25  and  C_26
REMARK                            x       y       z     vdW  Elec       q    Type
REMARK                         _______ _______ _______ _____ _____    ______ ____
ROOT
ATOM      1  C   UNL     1      -1.287  13.447  22.963  0.00  0.00    +0.000 A 
ATOM      2  N   UNL     1      -1.648  14.433  23.816  0.00  0.00    +0.000 NA
ATOM      3  C   UNL     1      -0.871  15.524  23.847  0.00  0.00    +0.000 A 
ATOM      4  N   UNL     1       0.202  15.742  23.079  0.00  0.00    +0.000 NA
ATOM      5  C   UNL     1       0.535  14.751  22.214  0.00  0.00    +0.000 A 
ATOM      6  C   UNL     1      -0.167  13.535  22.152  0.00  0.00    +0.000 A 
ENDROOT
BRANCH   5   7
ATOM      7  C   UNL     1       1.695  15.069  21.368  0.00  0.00    +0.000 A 
ATOM      8  C   UNL     1       2.983  14.955  21.869  0.00  0.00    +0.000 A 
ATOM      9  C   UNL     1       4.044  15.549  21.219  0.00  0.00    +0.000 A 
ATOM     10  C   UNL     1       3.935  16.097  19.937  0.00  0.00    +0.000 A 
ATOM     11  C   UNL     1       2.663  16.107  19.337  0.00  0.00    +0.000 A 
ATOM     12  C   UNL     1       2.316  16.737  18.016  0.00  0.00    +0.000 C 
ATOM     13  C   UNL     1       1.565  15.582  20.065  0.00  0.00    +0.000 A 
BRANCH  10  14
ATOM     14  C   UNL     1       5.145  16.790  19.382  0.00  0.00    +0.000 C 
ATOM     15  O   UNL     1       5.327  17.983  19.611  0.00  0.00    +0.000 OA
ATOM     16  N   UNL     1       6.113  16.045  18.721  0.00  0.00    +0.000 N 
ATOM     17  C   UNL     1       7.434  16.610  18.493  0.00  0.00    +0.000 C 
ATOM     18  C   UNL     1       8.241  15.495  17.824  0.00  0.00    +0.000 C 
ATOM     19  C   UNL     1       7.391  14.243  18.015  0.00  0.00    +0.000 C 
ATOM     20  C   UNL     1       5.981  14.810  17.963  0.00  0.00    +0.000 C 
BRANCH  19  21
ATOM     21  O   UNL     1       7.619  13.265  17.020  0.00  0.00    +0.000 OA
ATOM     22  H   UNL     1       7.149  13.539  16.214  0.00  0.00    +0.000 HD
ENDBRANCH  19  21
ENDBRANCH  10  14
ENDBRANCH   5   7
BRANCH   1  24
ATOM     23  C   UNL     1      -3.474  12.608  22.101  0.00  0.00    +0.000 C 
ATOM     24  C   UNL     1      -2.213  12.261  22.882  0.00  0.00    +0.000 C 
ENDBRANCH   1  24
BRANCH   6  25
ATOM     25  C   UNL     1       0.212  12.425  21.306  0.00  0.00    +0.000 C 
ATOM     26  C   UNL     1       0.587  11.480  20.636  0.00  0.00    +0.000 C 
BRANCH  26  27
ATOM     27  C   UNL     1       1.081  10.351  19.911  0.00  0.00    +0.000 A 
ATOM     28  C   UNL     1       1.389  10.436  18.559  0.00  0.00    +0.000 A 
ATOM     29  C   UNL     1       1.898   9.316  17.899  0.00  0.00    +0.000 A 
ATOM     30  C   UNL     1       2.045   8.124  18.596  0.00  0.00    +0.000 A 
ATOM     31  N   UNL     1       2.609   7.015  17.975  0.00  0.00    +0.000 N 
ATOM     32  N   UNL     1       1.734   8.009  19.900  0.00  0.00    +0.000 NA
ATOM     33  C   UNL     1       1.264   9.119  20.530  0.00  0.00    +0.000 A 
ATOM     34  H   UNL     1       2.209   6.823  17.066  0.00  0.00    +0.000 HD
ATOM     35  H   UNL     1       2.535   6.226  18.611  0.00  0.00    +0.000 HD
ENDBRANCH  26  27
ENDBRANCH   6  25
TORSDOF 6
ENDMDL
MODEL 5
REMARK VINA RESULT:      -7.0      4.156      5.979
REMARK  Name = 
REMARK  8 active torsions:
REMARK  status: ('A' for Active; 'I' for Inactive)
REMARK    1  A    between atoms: C_1  and  C_2
REMARK    2  A    between atoms: C_2  and  C_3
REMARK    3  A    between atoms: C_7  and  C_8
REMARK    4  A    between atoms: C_11  and  C_12
REMARK    5  A    between atoms: C_17  and  O_18
REMARK    6  A    between atoms: C_20  and  C_21
REMARK    7  A    between atoms: C_23  and  C_24
REMARK    8  A    between atoms: C_25  and  C_26
REMARK                            x       y       z     vdW  Elec       q    Type
REMARK                         _______ _______ _______ _____ _____    ______ ____
ROOT
ATOM      1  C   UNL     1      -1.197  12.706  19.254  0.00  0.00    +0.000 A 
ATOM      2  N   UNL     1      -2.422  12.161  19.069  0.00  0.00    +0.000 NA
ATOM      3  C   UNL     1      -2.465  10.853  18.779  0.00  0.00    +0.000 A 
ATOM      4  N   UNL     1      -1.412  10.034  18.700  0.00  0.00    +0.000 NA
ATOM      5  C   UNL     1      -0.195  10.596  18.911  0.00  0.00    +0.000 A 
ATOM      6  C   UNL     1      -0.028  11.970  19.150  0.00  0.00    +0.000 A 
ENDROOT
BRANCH   5   7
ATOM      7  C   UNL     1       0.919   9.635  18.854  0.00  0.00    +0.000 A 
ATOM      8  C   UNL     1       1.743   9.580  17.742  0.00  0.00    +0.000 A 
ATOM      9  C   UNL     1       2.566   8.494  17.531  0.00  0.00    +0.000 A 
ATOM     10  C   UNL     1       2.786   7.512  18.501  0.00  0.00    +0.000 A 
ATOM     11  C   UNL     1       2.064   7.610  19.705  0.00  0.00    +0.000 A 
ATOM     12  C   UNL     1       2.080   6.608  20.827  0.00  0.00    +0.000 C 
ATOM     13  C   UNL     1       1.147   8.680  19.862  0.00  0.00    +0.000 A 
BRANCH  10  14
ATOM     14  C   UNL     1       3.634   6.337  18.110  0.00  0.00    +0.000 C 
ATOM     15  O   UNL     1       4.831   6.495  17.885  0.00  0.00    +0.000 OA
ATOM     16  N   UNL     1       3.084   5.062  18.132  0.00  0.00    +0.000 N 
ATOM     17  C   UNL     1       3.953   3.896  18.110  0.00  0.00    +0.000 C 
ATOM     18  C   UNL     1       3.017   2.691  18.224  0.00  0.00    +0.000 C 
ATOM     19  C   UNL     1       1.675   3.290  18.633  0.00  0.00    +0.000 C 
ATOM     20  C   UNL     1       1.706   4.640  17.933  0.00  0.00    +0.000 C 
BRANCH  19  21
ATOM     21  O   UNL     1       0.573   2.499  18.235  0.00  0.00    +0.000 OA
ATOM     22  H   UNL     1       0.744   1.583  18.510  0.00  0.00    +0.000 HD
ENDBRANCH  19  21
ENDBRANCH  10  14
ENDBRANCH   5   7
BRANCH   1  24
ATOM     23  C   UNL     1      -1.628  14.332  21.099  0.00  0.00    +0.000 C 
ATOM     24  C   UNL     1      -1.167  14.158  19.657  0.00  0.00    +0.000 C 
ENDBRANCH   1  24
BRANCH   6  25
ATOM     25  C   UNL     1       1.257  12.617  19.292  0.00  0.00    +0.000 C 
ATOM     26  C   UNL     1       2.315  13.216  19.374  0.00  0.00    +0.000 C 
BRANCH  26  27
ATOM     27  C   UNL     1       3.515  13.988  19.443  0.00  0.00    +0.000 A 
ATOM     28  C   UNL     1       4.005  14.459  20.656  0.00  0.00    +0.000 A 
ATOM     29  C   UNL     1       5.197  15.185  20.679  0.00  0.00    +0.000 A 
ATOM     30  C   UNL     1       5.850  15.459  19.485  0.00  0.00    +0.000 A 
ATOM     31  N   UNL     1       7.072  16.125  19.491  0.00  0.00    +0.000 N 
ATOM     32  N   UNL     1       5.387  15.033  18.296  0.00  0.00    +0.000 NA
ATOM     33  C   UNL     1       4.237  14.307  18.298  0.00  0.00    +0.000 A 
ATOM     34  H   UNL     1       7.069  16.955  20.069  0.00  0.00    +0.000 HD
ATOM     35  H   UNL     1       7.331  16.317  18.528  0.00  0.00    +0.000 HD
ENDBRANCH  26  27
ENDBRANCH   6  25
TORSDOF 6
ENDMDL
MODEL 6
REMARK VINA RESULT:      -6.9      3.890      6.098
REMARK  Name = 
REMARK  8 active torsions:
REMARK  status: ('A' for Active; 'I' for Inactive)
REMARK    1  A    between atoms: C_1  and  C_2
REMARK    2  A    between atoms: C_2  and  C_3
REMARK    3  A    between atoms: C_7  and  C_8
REMARK    4  A    between atoms: C_11  and  C_12
REMARK    5  A    between atoms: C_17  and  O_18
REMARK    6  A    between atoms: C_20  and  C_21
REMARK    7  A    between atoms: C_23  and  C_24
REMARK    8  A    between atoms: C_25  and  C_26
REMARK                            x       y       z     vdW  Elec       q    Type
REMARK                         _______ _______ _______ _____ _____    ______ ____
ROOT
ATOM      1  C   UNL     1      -1.318  12.633  19.212  0.00  0.00    +0.000 A 
ATOM      2  N   UNL     1      -2.505  12.107  18.833  0.00  0.00    +0.000 NA
ATOM      3  C   UNL     1      -2.500  10.832  18.422  0.00  0.00    +0.000 A 
ATOM      4  N   UNL     1      -1.436  10.023  18.394  0.00  0.00    +0.000 NA
ATOM      5  C   UNL     1      -0.259  10.563  18.800  0.00  0.00    +0.000 A 
ATOM      6  C   UNL     1      -0.137  11.910  19.181  0.00  0.00    +0.000 A 
ENDROOT
BRANCH   5   7
ATOM      7  C   UNL     1       0.864   9.611  18.789  0.00  0.00    +0.000 A 
ATOM      8  C   UNL     1       1.707   9.532  17.691  0.00  0.00    +0.000 A 
ATOM      9  C   UNL     1       2.542   8.447  17.526  0.00  0.00    +0.000 A 
ATOM     10  C   UNL     1       2.755   7.496  18.528  0.00  0.00    +0.000 A 
ATOM     11  C   UNL     1       2.013   7.623  19.717  0.00  0.00    +0.000 A 
ATOM     12  C   UNL     1       2.020   6.654  20.868  0.00  0.00    +0.000 C 
ATOM     13  C   UNL     1       1.085   8.688  19.827  0.00  0.00    +0.000 A 
BRANCH  10  14
ATOM     14  C   UNL     1       3.620   6.318  18.185  0.00  0.00    +0.000 C 
ATOM     15  O   UNL     1       4.822   6.478  17.990  0.00  0.00    +0.000 OA
ATOM     16  N   UNL     1       3.075   5.041  18.218  0.00  0.00    +0.000 N 
ATOM     17  C   UNL     1       3.951   3.879  18.244  0.00  0.00    +0.000 C 
ATOM     18  C   UNL     1       3.018   2.672  18.358  0.00  0.00    +0.000 C 
ATOM     19  C   UNL     1       1.662   3.272  18.717  0.00  0.00    +0.000 C 
ATOM     20  C   UNL     1       1.705   4.607  17.990  0.00  0.00    +0.000 C 
BRANCH  19  21
ATOM     21  O   UNL     1       0.576   2.467  18.305  0.00  0.00    +0.000 OA
ATOM     22  H   UNL     1       0.298   1.924  19.063  0.00  0.00    +0.000 HD
ENDBRANCH  19  21
ENDBRANCH  10  14
ENDBRANCH   5   7
BRANCH   1  24
ATOM     23  C   UNL     1      -1.688  14.051  21.233  0.00  0.00    +0.000 C 
ATOM     24  C   UNL     1      -1.352  14.042  19.747  0.00  0.00    +0.000 C 
ENDBRANCH   1  24
BRANCH   6  25
ATOM     25  C   UNL     1       1.116  12.540  19.534  0.00  0.00    +0.000 C 
ATOM     26  C   UNL     1       2.144  13.132  19.810  0.00  0.00    +0.000 C 
BRANCH  26  27
ATOM     27  C   UNL     1       3.308  13.900  20.123  0.00  0.00    +0.000 A 
ATOM     28  C   UNL     1       4.043  14.540  19.132  0.00  0.00    +0.000 A 
ATOM     29  C   UNL     1       5.155  15.304  19.489  0.00  0.00    +0.000 A 
ATOM     30  C   UNL     1       5.533  15.376  20.823  0.00  0.00    +0.000 A 
ATOM     31  N   UNL     1       6.599  16.182  21.207  0.00  0.00    +0.000 N 
ATOM     32  N   UNL     1       4.852  14.749  21.799  0.00  0.00    +0.000 NA
ATOM     33  C   UNL     1       3.757  14.031  21.433  0.00  0.00    +0.000 A 
ATOM     34  H   UNL     1       7.422  16.052  20.633  0.00  0.00    +0.000 HD
ATOM     35  H   UNL     1       6.779  16.020  22.193  0.00  0.00    +0.000 HD
ENDBRANCH  26  27
ENDBRANCH   6  25
TORSDOF 6
ENDMDL
MODEL 7
REMARK VINA RESULT:      -6.9      3.656      8.382
REMARK  Name = 
REMARK  8 active torsions:
REMARK  status: ('A' for Active; 'I' for Inactive)
REMARK    1  A    between atoms: C_1  and  C_2
REMARK    2  A    between atoms: C_2  and  C_3
REMARK    3  A    between atoms: C_7  and  C_8
REMARK    4  A    between atoms: C_11  and  C_12
REMARK    5  A    between atoms: C_17  and  O_18
REMARK    6  A    between atoms: C_20  and  C_21
REMARK    7  A    between atoms: C_23  and  C_24
REMARK    8  A    between atoms: C_25  and  C_26
REMARK                            x       y       z     vdW  Elec       q    Type
REMARK                         _______ _______ _______ _____ _____    ______ ____
ROOT
ATOM      1  C   UNL     1       3.488   2.693  20.340  0.00  0.00    +0.000 A 
ATOM      2  N   UNL     1       2.823   2.302  21.452  0.00  0.00    +0.000 NA
ATOM      3  C   UNL     1       2.077   3.229  22.069  0.00  0.00    +0.000 A 
ATOM      4  N   UNL     1       1.897   4.489  21.659  0.00  0.00    +0.000 NA
ATOM      5  C   UNL     1       2.555   4.854  20.530  0.00  0.00    +0.000 A 
ATOM      6  C   UNL     1       3.421   3.985  19.845  0.00  0.00    +0.000 A 
ENDROOT
BRANCH   5   7
ATOM      7  C   UNL     1       2.282   6.237  20.107  0.00  0.00    +0.000 A 
ATOM      8  C   UNL     1       1.418   7.037  20.838  0.00  0.00    +0.000 A 
ATOM      9  C   UNL     1       0.903   8.194  20.293  0.00  0.00    +0.000 A 
ATOM     10  C   UNL     1       1.373   8.741  19.095  0.00  0.00    +0.000 A 
ATOM     11  C   UNL     1       2.354   8.020  18.390  0.00  0.00    +0.000 A 
ATOM     12  C   UNL     1       2.914   8.382  17.041  0.00  0.00    +0.000 C 
ATOM     13  C   UNL     1       2.798   6.781  18.917  0.00  0.00    +0.000 A 
BRANCH  10  14
ATOM     14  C   UNL     1       0.665   9.955  18.570  0.00  0.00    +0.000 C 
ATOM     15  O   UNL     1      -0.114   9.850  17.626  0.00  0.00    +0.000 OA
ATOM     16  N   UNL     1       0.801  11.165  19.239  0.00  0.00    +0.000 N 
ATOM     17  C   UNL     1      -0.132  12.249  18.975  0.00  0.00    +0.000 C 
ATOM     18  C   UNL     1       0.271  13.372  19.933  0.00  0.00    +0.000 C 
ATOM     19  C   UNL     1       1.229  12.707  20.917  0.00  0.00    +0.000 C 
ATOM     20  C   UNL     1       1.907  11.666  20.041  0.00  0.00    +0.000 C 
BRANCH  19  21
ATOM     21  O   UNL     1       2.148  13.614  21.491  0.00  0.00    +0.000 OA
ATOM     22  H   UNL     1       1.763  14.505  21.442  0.00  0.00    +0.000 HD
ENDBRANCH  19  21
ENDBRANCH  10  14
ENDBRANCH   5   7
BRANCH   1  24
ATOM     23  C   UNL     1       3.547   1.218  18.327  0.00  0.00    +0.000 C 
ATOM     24  C   UNL     1       4.259   1.622  19.612  0.00  0.00    +0.000 C 
ENDBRANCH   1  24
BRANCH   6  25
ATOM     25  C   UNL     1       4.204   4.367  18.691  0.00  0.00    +0.000 C 
ATOM     26  C   UNL     1       4.882   4.621  17.712  0.00  0.00    +0.000 C 
BRANCH  26  27
ATOM     27  C   UNL     1       5.683   4.836  16.548  0.00  0.00    +0.000 A 
ATOM     28  C   UNL     1       5.374   4.232  15.334  0.00  0.00    +0.000 A 
ATOM     29  C   UNL     1       6.168   4.494  14.216  0.00  0.00    +0.000 A 
ATOM     30  C   UNL     1       7.276   5.319  14.347  0.00  0.00    +0.000 A 
ATOM     31  N   UNL     1       8.042   5.644  13.232  0.00  0.00    +0.000 N 
ATOM     32  N   UNL     1       7.609   5.899  15.514  0.00  0.00    +0.000 NA
ATOM     33  C   UNL     1       6.809   5.651  16.585  0.00  0.00    +0.000 A 
ATOM     34  H   UNL     1       8.289   4.839  12.671  0.00  0.00    +0.000 HD
ATOM     35  H   UNL     1       8.854   6.166  13.549  0.00  0.00    +0.000 HD
ENDBRANCH  26  27
ENDBRANCH   6  25
TORSDOF 6
ENDMDL
MODEL 8
REMARK VINA RESULT:      -6.8      3.509      8.603
REMARK  Name = 
REMARK  8 active torsions:
REMARK  status: ('A' for Active; 'I' for Inactive)
REMARK    1  A    between atoms: C_1  and  C_2
REMARK    2  A    between atoms: C_2  and  C_3
REMARK    3  A    between atoms: C_7  and  C_8
REMARK    4  A    between atoms: C_11  and  C_12
REMARK    5  A    between atoms: C_17  and  O_18
REMARK    6  A    between atoms: C_20  and  C_21
REMARK    7  A    between atoms: C_23  and  C_24
REMARK    8  A    between atoms: C_25  and  C_26
REMARK                            x       y       z     vdW  Elec       q    Type
REMARK                         _______ _______ _______ _____ _____    ______ ____
ROOT
ATOM      1  C   UNL     1       2.836   2.354  19.731  0.00  0.00    +0.000 A 
ATOM      2  N   UNL     1       2.074   1.901  20.753  0.00  0.00    +0.000 NA
ATOM      3  C   UNL     1       1.441   2.822  21.493  0.00  0.00    +0.000 A 
ATOM      4  N   UNL     1       1.461   4.142  21.283  0.00  0.00    +0.000 NA
ATOM      5  C   UNL     1       2.213   4.575  20.239  0.00  0.00    +0.000 A 
ATOM      6  C   UNL     1       2.976   3.702  19.445  0.00  0.00    +0.000 A 
ENDROOT
BRANCH   5   7
ATOM      7  C   UNL     1       2.159   6.030  20.034  0.00  0.00    +0.000 A 
ATOM      8  C   UNL     1       1.527   6.847  20.959  0.00  0.00    +0.000 A 
ATOM      9  C   UNL     1       1.183   8.142  20.632  0.00  0.00    +0.000 A 
ATOM     10  C   UNL     1       1.632   8.773  19.467  0.00  0.00    +0.000 A 
ATOM     11  C   UNL     1       2.395   8.011  18.565  0.00  0.00    +0.000 A 
ATOM     12  C   UNL     1       2.884   8.469  17.217  0.00  0.00    +0.000 C 
ATOM     13  C   UNL     1       2.653   6.651  18.872  0.00  0.00    +0.000 A 
BRANCH  10  14
ATOM     14  C   UNL     1       1.112  10.153  19.190  0.00  0.00    +0.000 C 
ATOM     15  O   UNL     1       1.252  10.648  18.075  0.00  0.00    +0.000 OA
ATOM     16  N   UNL     1       0.364  10.806  20.161  0.00  0.00    +0.000 N 
ATOM     17  C   UNL     1      -0.439  11.965  19.801  0.00  0.00    +0.000 C 
ATOM     18  C   UNL     1      -1.173  12.363  21.084  0.00  0.00    +0.000 C 
ATOM     19  C   UNL     1      -0.970  11.177  22.022  0.00  0.00    +0.000 C 
ATOM     20  C   UNL     1       0.408  10.683  21.610  0.00  0.00    +0.000 C 
BRANCH  19  21
ATOM     21  O   UNL     1      -1.031  11.537  23.387  0.00  0.00    +0.000 OA
ATOM     22  H   UNL     1      -0.129  11.500  23.750  0.00  0.00    +0.000 HD
ENDBRANCH  19  21
ENDBRANCH  10  14
ENDBRANCH   5   7
BRANCH   1  24
ATOM     23  C   UNL     1       4.795   0.832  19.461  0.00  0.00    +0.000 C 
ATOM     24  C   UNL     1       3.478   1.304  18.860  0.00  0.00    +0.000 C 
ENDBRANCH   1  24
BRANCH   6  25
ATOM     25  C   UNL     1       3.855   4.136  18.382  0.00  0.00    +0.000 C 
ATOM     26  C   UNL     1       4.616   4.434  17.479  0.00  0.00    +0.000 C 
BRANCH  26  27
ATOM     27  C   UNL     1       5.516   4.701  16.402  0.00  0.00    +0.000 A 
ATOM     28  C   UNL     1       5.345   4.118  15.152  0.00  0.00    +0.000 A 
ATOM     29  C   UNL     1       6.231   4.431  14.121  0.00  0.00    +0.000 A 
ATOM     30  C   UNL     1       7.295   5.287  14.374  0.00  0.00    +0.000 A 
ATOM     31  N   UNL     1       8.152   5.662  13.345  0.00  0.00    +0.000 N 
ATOM     32  N   UNL     1       7.496   5.848  15.579  0.00  0.00    +0.000 NA
ATOM     33  C   UNL     1       6.606   5.550  16.563  0.00  0.00    +0.000 A 
ATOM     34  H   UNL     1       8.478   4.879  12.793  0.00  0.00    +0.000 HD
ATOM     35  H   UNL     1       8.913   6.201  13.749  0.00  0.00    +0.000 HD
ENDBRANCH  26  27
ENDBRANCH   6  25
TORSDOF 6
ENDMDL
MODEL 9
REMARK VINA RESULT:      -6.8      5.933      7.992
REMARK  Name = 
REMARK  8 active torsions:
REMARK  status: ('A' for Active; 'I' for Inactive)
REMARK    1  A    between atoms: C_1  and  C_2
REMARK    2  A    between atoms: C_2  and  C_3
REMARK    3  A    between atoms: C_7  and  C_8
REMARK    4  A    between atoms: C_11  and  C_12
REMARK    5  A    between atoms: C_17  and  O_18
REMARK    6  A    between atoms: C_20  and  C_21
REMARK    7  A    between atoms: C_23  and  C_24
REMARK    8  A    between atoms: C_25  and  C_26
REMARK                            x       y       z     vdW  Elec       q    Type
REMARK                         _______ _______ _______ _____ _____    ______ ____
ROOT
ATOM      1  C   UNL     1      -2.013  13.684  20.497  0.00  0.00    +0.000 A 
ATOM      2  N   UNL     1      -2.688  14.785  20.903  0.00  0.00    +0.000 NA
ATOM      3  C   UNL     1      -1.998  15.932  20.960  0.00  0.00    +0.000 A 
ATOM      4  N   UNL     1      -0.717  16.093  20.609  0.00  0.00    +0.000 NA
ATOM      5  C   UNL     1      -0.065  14.982  20.183  0.00  0.00    +0.000 A 
ATOM      6  C   UNL     1      -0.671  13.715  20.154  0.00  0.00    +0.000 A 
ENDROOT
BRANCH   5   7
ATOM      7  C   UNL     1       1.324  15.233  19.770  0.00  0.00    +0.000 A 
ATOM      8  C   UNL     1       2.368  15.040  20.662  0.00  0.00    +0.000 A 
ATOM      9  C   UNL     1       3.615  15.571  20.408  0.00  0.00    +0.000 A 
ATOM     10  C   UNL     1       3.963  16.130  19.175  0.00  0.00    +0.000 A 
ATOM     11  C   UNL     1       2.960  16.220  18.193  0.00  0.00    +0.000 A 
ATOM     12  C   UNL     1       3.101  16.874  16.845  0.00  0.00    +0.000 C 
ATOM     13  C   UNL     1       1.657  15.759  18.508  0.00  0.00    +0.000 A 
BRANCH  10  14
ATOM     14  C   UNL     1       5.324  16.751  19.062  0.00  0.00    +0.000 C 
ATOM     15  O   UNL     1       5.512  17.894  19.470  0.00  0.00    +0.000 OA
ATOM     16  N   UNL     1       6.389  15.980  18.614  0.00  0.00    +0.000 N 
ATOM     17  C   UNL     1       7.755  16.433  18.829  0.00  0.00    +0.000 C 
ATOM     18  C   UNL     1       8.644  15.313  18.286  0.00  0.00    +0.000 C 
ATOM     19  C   UNL     1       7.693  14.136  18.086  0.00  0.00    +0.000 C 
ATOM     20  C   UNL     1       6.398  14.839  17.711  0.00  0.00    +0.000 C 
BRANCH  19  21
ATOM     21  O   UNL     1       8.130  13.237  17.087  0.00  0.00    +0.000 OA
ATOM     22  H   UNL     1       7.860  13.592  16.222  0.00  0.00    +0.000 HD
ENDBRANCH  19  21
ENDBRANCH  10  14
ENDBRANCH   5   7
BRANCH   1  24
ATOM     23  C   UNL     1      -4.313  12.721  20.377  0.00  0.00    +0.000 C 
ATOM     24  C   UNL     1      -2.820  12.418  20.362  0.00  0.00    +0.000 C 
ENDBRANCH   1  24
BRANCH   6  25
ATOM     25  C   UNL     1       0.018  12.497  19.790  0.00  0.00    +0.000 C 
ATOM     26  C   UNL     1       0.558  11.437  19.529  0.00  0.00    +0.000 C 
BRANCH  26  27
ATOM     27  C   UNL     1       1.128  10.153  19.265  0.00  0.00    +0.000 A 
ATOM     28  C   UNL     1       1.627   9.826  18.009  0.00  0.00    +0.000 A 
ATOM     29  C   UNL     1       2.202   8.571  17.805  0.00  0.00    +0.000 A 
ATOM     30  C   UNL     1       2.226   7.655  18.848  0.00  0.00    +0.000 A 
ATOM     31  N   UNL     1       2.851   6.424  18.684  0.00  0.00    +0.000 N 
ATOM     32  N   UNL     1       1.731   7.938  20.066  0.00  0.00    +0.000 NA
ATOM     33  C   UNL     1       1.198   9.176  20.252  0.00  0.00    +0.000 A 
ATOM     34  H   UNL     1       2.581   5.951  17.831  0.00  0.00    +0.000 HD
ATOM     35  H   UNL     1       2.673   5.867  19.515  0.00  0.00    +0.000 HD
ENDBRANCH  26  27
ENDBRANCH   6  25
TORSDOF 6
ENDMDL
