MODEL 1
REMARK VINA RESULT:      -8.0      0.000      0.000
REMARK  Name = 
REMARK  1 active torsions:
REMARK  status: ('A' for Active; 'I' for Inactive)
REMARK    1  A    between atoms: C_9  and  C_10
REMARK                            x       y       z     vdW  Elec       q    Type
REMARK                         _______ _______ _______ _____ _____    ______ ____
ROOT
ATOM      1  O   UNL     1       0.107   2.139  19.009  0.00  0.00    +0.000 OA
ATOM      2  S   UNL     1       1.373   2.650  19.504  0.00  0.00    +0.000 S 
ATOM      3  O   UNL     1       1.731   2.479  20.900  0.00  0.00    +0.000 OA
ATOM      4  C   UNL     1       1.447   4.379  19.118  0.00  0.00    +0.000 C 
ATOM      5  C   UNL     1       2.858   4.884  19.336  0.00  0.00    +0.000 C 
ATOM      6  N   UNL     1       3.786   4.145  18.483  0.00  0.00    +0.000 N 
ATOM      7  C   UNL     1       4.453   4.718  17.439  0.00  0.00    +0.000 A 
ATOM      8  N   UNL     1       4.836   4.057  16.363  0.00  0.00    +0.000 NA
ATOM      9  C   UNL     1       5.509   4.890  15.475  0.00  0.00    +0.000 A 
ATOM     10  C   UNL     1       5.638   6.193  15.903  0.00  0.00    +0.000 A 
ATOM     11  S   UNL     1       4.906   6.389  17.427  0.00  0.00    +0.000 S 
ATOM     12  C   UNL     1       3.954   2.719  18.759  0.00  0.00    +0.000 C 
ATOM     13  C   UNL     1       2.667   1.968  18.499  0.00  0.00    +0.000 C 
ENDROOT
BRANCH   9  14
ATOM     14  C   UNL     1       5.970   4.427  14.172  0.00  0.00    +0.000 A 
ATOM     15  C   UNL     1       5.145   3.605  13.393  0.00  0.00    +0.000 A 
ATOM     16  C   UNL     1       5.546   3.230  12.111  0.00  0.00    +0.000 A 
ATOM     17  F   UNL     1       4.735   2.470  11.364  0.00  0.00    +0.000 F 
ATOM     18  C   UNL     1       6.767   3.642  11.583  0.00  0.00    +0.000 A 
ATOM     19  C   UNL     1       7.608   4.436  12.358  0.00  0.00    +0.000 A 
ATOM     20  C   UNL     1       7.211   4.818  13.639  0.00  0.00    +0.000 A 
ATOM     21  F   UNL     1       8.055   5.581  14.348  0.00  0.00    +0.000 F 
ENDBRANCH   9  14
TORSDOF 1
ENDMDL
MODEL 2
REMARK VINA RESULT:      -7.7      5.112      8.064
REMARK  Name = 
REMARK  1 active torsions:
REMARK  status: ('A' for Active; 'I' for Inactive)
REMARK    1  A    between atoms: C_9  and  C_10
REMARK                            x       y       z     vdW  Elec       q    Type
REMARK                         _______ _______ _______ _____ _____    ______ ____
ROOT
ATOM      1  O   UNL     1       6.599   5.513  14.643  0.00  0.00    +0.000 OA
ATOM      2  S   UNL     1       6.672   5.058  16.019  0.00  0.00    +0.000 S 
ATOM      3  O   UNL     1       7.852   4.356  16.492  0.00  0.00    +0.000 OA
ATOM      4  C   UNL     1       5.258   4.034  16.327  0.00  0.00    +0.000 C 
ATOM      5  C   UNL     1       5.128   3.788  17.816  0.00  0.00    +0.000 C 
ATOM      6  N   UNL     1       4.982   5.061  18.519  0.00  0.00    +0.000 N 
ATOM      7  C   UNL     1       3.832   5.432  19.153  0.00  0.00    +0.000 A 
ATOM      8  N   UNL     1       3.453   6.687  19.309  0.00  0.00    +0.000 NA
ATOM      9  C   UNL     1       2.254   6.765  20.008  0.00  0.00    +0.000 A 
ATOM     10  C   UNL     1       1.735   5.547  20.389  0.00  0.00    +0.000 A 
ATOM     11  S   UNL     1       2.748   4.283  19.864  0.00  0.00    +0.000 S 
ATOM     12  C   UNL     1       6.123   5.975  18.485  0.00  0.00    +0.000 C 
ATOM     13  C   UNL     1       6.383   6.455  17.074  0.00  0.00    +0.000 C 
ENDROOT
BRANCH   9  14
ATOM     14  C   UNL     1       1.575   8.033  20.249  0.00  0.00    +0.000 A 
ATOM     15  C   UNL     1       1.177   8.374  21.548  0.00  0.00    +0.000 A 
ATOM     16  C   UNL     1       0.606   9.622  21.796  0.00  0.00    +0.000 A 
ATOM     17  F   UNL     1       0.258   9.950  23.047  0.00  0.00    +0.000 F 
ATOM     18  C   UNL     1       0.402  10.543  20.773  0.00  0.00    +0.000 A 
ATOM     19  C   UNL     1       0.768  10.205  19.472  0.00  0.00    +0.000 A 
ATOM     20  C   UNL     1       1.344   8.961  19.218  0.00  0.00    +0.000 A 
ATOM     21  F   UNL     1       1.678   8.679  17.951  0.00  0.00    +0.000 F 
ENDBRANCH   9  14
TORSDOF 1
ENDMDL
MODEL 3
REMARK VINA RESULT:      -7.3      5.217      8.151
REMARK  Name = 
REMARK  1 active torsions:
REMARK  status: ('A' for Active; 'I' for Inactive)
REMARK    1  A    between atoms: C_9  and  C_10
REMARK                            x       y       z     vdW  Elec       q    Type
REMARK                         _______ _______ _______ _____ _____    ______ ____
ROOT
ATOM      1  O   UNL     1       4.789   2.036  21.025  0.00  0.00    +0.000 OA
ATOM      2  S   UNL     1       4.111   2.449  19.810  0.00  0.00    +0.000 S 
ATOM      3  O   UNL     1       3.851   1.484  18.757  0.00  0.00    +0.000 OA
ATOM      4  C   UNL     1       5.024   3.800  19.113  0.00  0.00    +0.000 C 
ATOM      5  C   UNL     1       4.200   4.458  18.026  0.00  0.00    +0.000 C 
ATOM      6  N   UNL     1       2.941   4.946  18.585  0.00  0.00    +0.000 N 
ATOM      7  C   UNL     1       2.640   6.272  18.693  0.00  0.00    +0.000 A 
ATOM      8  N   UNL     1       1.846   6.770  19.623  0.00  0.00    +0.000 NA
ATOM      9  C   UNL     1       1.707   8.147  19.479  0.00  0.00    +0.000 A 
ATOM     10  C   UNL     1       2.403   8.682  18.417  0.00  0.00    +0.000 A 
ATOM     11  S   UNL     1       3.248   7.459  17.588  0.00  0.00    +0.000 S 
ATOM     12  C   UNL     1       1.999   3.943  19.081  0.00  0.00    +0.000 C 
ATOM     13  C   UNL     1       2.575   3.210  20.272  0.00  0.00    +0.000 C 
ENDROOT
BRANCH   9  14
ATOM     14  C   UNL     1       0.944   8.954  20.423  0.00  0.00    +0.000 A 
ATOM     15  C   UNL     1       1.066   8.718  21.798  0.00  0.00    +0.000 A 
ATOM     16  C   UNL     1       0.405   9.542  22.708  0.00  0.00    +0.000 A 
ATOM     17  F   UNL     1       0.554   9.326  24.021  0.00  0.00    +0.000 F 
ATOM     18  C   UNL     1      -0.396  10.598  22.282  0.00  0.00    +0.000 A 
ATOM     19  C   UNL     1      -0.547  10.827  20.916  0.00  0.00    +0.000 A 
ATOM     20  C   UNL     1       0.114  10.008  20.002  0.00  0.00    +0.000 A 
ATOM     21  F   UNL     1      -0.063  10.265  18.698  0.00  0.00    +0.000 F 
ENDBRANCH   9  14
TORSDOF 1
ENDMDL
MODEL 4
REMARK VINA RESULT:      -7.0      5.168      7.920
REMARK  Name = 
REMARK  1 active torsions:
REMARK  status: ('A' for Active; 'I' for Inactive)
REMARK    1  A    between atoms: C_9  and  C_10
REMARK                            x       y       z     vdW  Elec       q    Type
REMARK                         _______ _______ _______ _____ _____    ______ ____
ROOT
ATOM      1  O   UNL     1       6.494   5.314  14.516  0.00  0.00    +0.000 OA
ATOM      2  S   UNL     1       6.623   5.027  15.933  0.00  0.00    +0.000 S 
ATOM      3  O   UNL     1       7.843   4.431  16.448  0.00  0.00    +0.000 OA
ATOM      4  C   UNL     1       5.260   3.994  16.402  0.00  0.00    +0.000 C 
ATOM      5  C   UNL     1       5.181   3.920  17.913  0.00  0.00    +0.000 C 
ATOM      6  N   UNL     1       5.001   5.260  18.467  0.00  0.00    +0.000 N 
ATOM      7  C   UNL     1       3.855   5.660  19.090  0.00  0.00    +0.000 A 
ATOM      8  N   UNL     1       3.429   6.909  19.110  0.00  0.00    +0.000 NA
ATOM      9  C   UNL     1       2.246   7.024  19.832  0.00  0.00    +0.000 A 
ATOM     10  C   UNL     1       1.788   5.840  20.368  0.00  0.00    +0.000 A 
ATOM     11  S   UNL     1       2.837   4.563  19.963  0.00  0.00    +0.000 S 
ATOM     12  C   UNL     1       6.102   6.207  18.291  0.00  0.00    +0.000 C 
ATOM     13  C   UNL     1       6.305   6.527  16.827  0.00  0.00    +0.000 C 
ENDROOT
BRANCH   9  14
ATOM     14  C   UNL     1       1.523   8.285  19.944  0.00  0.00    +0.000 A 
ATOM     15  C   UNL     1       1.100   8.950  18.787  0.00  0.00    +0.000 A 
ATOM     16  C   UNL     1       0.335  10.111  18.891  0.00  0.00    +0.000 A 
ATOM     17  F   UNL     1      -0.091  10.721  17.777  0.00  0.00    +0.000 F 
ATOM     18  C   UNL     1      -0.012  10.644  20.129  0.00  0.00    +0.000 A 
ATOM     19  C   UNL     1       0.425  10.007  21.288  0.00  0.00    +0.000 A 
ATOM     20  C   UNL     1       1.187   8.843  21.190  0.00  0.00    +0.000 A 
ATOM     21  F   UNL     1       1.588   8.267  22.333  0.00  0.00    +0.000 F 
ENDBRANCH   9  14
TORSDOF 1
ENDMDL
MODEL 5
REMARK VINA RESULT:      -6.8      4.637      6.190
REMARK  Name = 
REMARK  1 active torsions:
REMARK  status: ('A' for Active; 'I' for Inactive)
REMARK    1  A    between atoms: C_9  and  C_10
REMARK                            x       y       z     vdW  Elec       q    Type
REMARK                         _______ _______ _______ _____ _____    ______ ____
ROOT
ATOM      1  O   UNL     1       1.609  12.329  21.118  0.00  0.00    +0.000 OA
ATOM      2  S   UNL     1       0.795  11.186  20.748  0.00  0.00    +0.000 S 
ATOM      3  O   UNL     1      -0.651  11.303  20.710  0.00  0.00    +0.000 OA
ATOM      4  C   UNL     1       1.215   9.849  21.835  0.00  0.00    +0.000 C 
ATOM      5  C   UNL     1       0.624   8.561  21.302  0.00  0.00    +0.000 C 
ATOM      6  N   UNL     1       1.144   8.293  19.962  0.00  0.00    +0.000 N 
ATOM      7  C   UNL     1       1.976   7.249  19.683  0.00  0.00    +0.000 A 
ATOM      8  N   UNL     1       2.870   7.263  18.712  0.00  0.00    +0.000 NA
ATOM      9  C   UNL     1       3.562   6.058  18.648  0.00  0.00    +0.000 A 
ATOM     10  C   UNL     1       3.169   5.126  19.584  0.00  0.00    +0.000 A 
ATOM     11  S   UNL     1       1.927   5.757  20.562  0.00  0.00    +0.000 S 
ATOM     12  C   UNL     1       0.772   9.231  18.904  0.00  0.00    +0.000 C 
ATOM     13  C   UNL     1       1.358  10.600  19.170  0.00  0.00    +0.000 C 
ENDROOT
BRANCH   9  14
ATOM     14  C   UNL     1       4.658   5.839  17.713  0.00  0.00    +0.000 A 
ATOM     15  C   UNL     1       5.786   6.668  17.756  0.00  0.00    +0.000 A 
ATOM     16  C   UNL     1       6.873   6.410  16.922  0.00  0.00    +0.000 A 
ATOM     17  F   UNL     1       7.959   7.190  16.995  0.00  0.00    +0.000 F 
ATOM     18  C   UNL     1       6.861   5.347  16.023  0.00  0.00    +0.000 A 
ATOM     19  C   UNL     1       5.734   4.531  15.951  0.00  0.00    +0.000 A 
ATOM     20  C   UNL     1       4.646   4.782  16.785  0.00  0.00    +0.000 A 
ATOM     21  F   UNL     1       3.583   3.973  16.679  0.00  0.00    +0.000 F 
ENDBRANCH   9  14
TORSDOF 1
ENDMDL
MODEL 6
REMARK VINA RESULT:      -6.8      4.762      6.029
REMARK  Name = 
REMARK  1 active torsions:
REMARK  status: ('A' for Active; 'I' for Inactive)
REMARK    1  A    between atoms: C_9  and  C_10
REMARK                            x       y       z     vdW  Elec       q    Type
REMARK                         _______ _______ _______ _____ _____    ______ ____
ROOT
ATOM      1  O   UNL     1       2.006  12.693  19.863  0.00  0.00    +0.000 OA
ATOM      2  S   UNL     1       1.156  11.547  19.595  0.00  0.00    +0.000 S 
ATOM      3  O   UNL     1      -0.269  11.730  19.386  0.00  0.00    +0.000 OA
ATOM      4  C   UNL     1       1.380  10.387  20.917  0.00  0.00    +0.000 C 
ATOM      5  C   UNL     1       0.758   9.060  20.535  0.00  0.00    +0.000 C 
ATOM      6  N   UNL     1       1.385   8.551  19.316  0.00  0.00    +0.000 N 
ATOM      7  C   UNL     1       2.169   7.434  19.295  0.00  0.00    +0.000 A 
ATOM      8  N   UNL     1       3.150   7.244  18.433  0.00  0.00    +0.000 NA
ATOM      9  C   UNL     1       3.762   6.012  18.634  0.00  0.00    +0.000 A 
ATOM     10  C   UNL     1       3.221   5.266  19.658  0.00  0.00    +0.000 A 
ATOM     11  S   UNL     1       1.936   6.111  20.388  0.00  0.00    +0.000 S 
ATOM     12  C   UNL     1       1.180   9.320  18.090  0.00  0.00    +0.000 C 
ATOM     13  C   UNL     1       1.827  10.683  18.197  0.00  0.00    +0.000 C 
ENDROOT
BRANCH   9  14
ATOM     14  C   UNL     1       4.926   5.587  17.865  0.00  0.00    +0.000 A 
ATOM     15  C   UNL     1       4.825   5.433  16.476  0.00  0.00    +0.000 A 
ATOM     16  C   UNL     1       5.956   5.110  15.727  0.00  0.00    +0.000 A 
ATOM     17  F   UNL     1       5.853   4.996  14.396  0.00  0.00    +0.000 F 
ATOM     18  C   UNL     1       7.196   4.919  16.330  0.00  0.00    +0.000 A 
ATOM     19  C   UNL     1       7.304   5.043  17.713  0.00  0.00    +0.000 A 
ATOM     20  C   UNL     1       6.178   5.369  18.467  0.00  0.00    +0.000 A 
ATOM     21  F   UNL     1       6.330   5.475  19.795  0.00  0.00    +0.000 F 
ENDBRANCH   9  14
TORSDOF 1
ENDMDL
MODEL 7
REMARK VINA RESULT:      -6.8      5.769      8.745
REMARK  Name = 
REMARK  1 active torsions:
REMARK  status: ('A' for Active; 'I' for Inactive)
REMARK    1  A    between atoms: C_9  and  C_10
REMARK                            x       y       z     vdW  Elec       q    Type
REMARK                         _______ _______ _______ _____ _____    ______ ____
ROOT
ATOM      1  O   UNL     1       5.231   3.163  20.028  0.00  0.00    +0.000 OA
ATOM      2  S   UNL     1       4.374   3.634  18.956  0.00  0.00    +0.000 S 
ATOM      3  O   UNL     1       4.121   2.790  17.802  0.00  0.00    +0.000 OA
ATOM      4  C   UNL     1       5.026   5.180  18.382  0.00  0.00    +0.000 C 
ATOM      5  C   UNL     1       4.009   5.854  17.485  0.00  0.00    +0.000 C 
ATOM      6  N   UNL     1       2.769   6.082  18.225  0.00  0.00    +0.000 N 
ATOM      7  C   UNL     1       2.319   7.327  18.554  0.00  0.00    +0.000 A 
ATOM      8  N   UNL     1       1.578   7.582  19.617  0.00  0.00    +0.000 NA
ATOM      9  C   UNL     1       1.252   8.932  19.689  0.00  0.00    +0.000 A 
ATOM     10  C   UNL     1       1.750   9.695  18.656  0.00  0.00    +0.000 A 
ATOM     11  S   UNL     1       2.644   8.723  17.582  0.00  0.00    +0.000 S 
ATOM     12  C   UNL     1       2.023   4.901  18.655  0.00  0.00    +0.000 C 
ATOM     13  C   UNL     1       2.817   4.104  19.667  0.00  0.00    +0.000 C 
ENDROOT
BRANCH   9  14
ATOM     14  C   UNL     1       0.505   9.492  20.809  0.00  0.00    +0.000 A 
ATOM     15  C   UNL     1       0.729   9.011  22.105  0.00  0.00    +0.000 A 
ATOM     16  C   UNL     1       0.080   9.602  23.189  0.00  0.00    +0.000 A 
ATOM     17  F   UNL     1       0.326   9.155  24.427  0.00  0.00    +0.000 F 
ATOM     18  C   UNL     1      -0.808  10.660  23.015  0.00  0.00    +0.000 A 
ATOM     19  C   UNL     1      -1.061  11.129  21.727  0.00  0.00    +0.000 A 
ATOM     20  C   UNL     1      -0.412  10.545  20.641  0.00  0.00    +0.000 A 
ATOM     21  F   UNL     1      -0.688  11.028  19.421  0.00  0.00    +0.000 F 
ENDBRANCH   9  14
TORSDOF 1
ENDMDL
MODEL 8
REMARK VINA RESULT:      -6.7      1.067      1.966
REMARK  Name = 
REMARK  1 active torsions:
REMARK  status: ('A' for Active; 'I' for Inactive)
REMARK    1  A    between atoms: C_9  and  C_10
REMARK                            x       y       z     vdW  Elec       q    Type
REMARK                         _______ _______ _______ _____ _____    ______ ____
ROOT
ATOM      1  O   UNL     1       0.109   2.566  19.158  0.00  0.00    +0.000 OA
ATOM      2  S   UNL     1       1.433   2.764  19.718  0.00  0.00    +0.000 S 
ATOM      3  O   UNL     1       1.746   2.260  21.043  0.00  0.00    +0.000 OA
ATOM      4  C   UNL     1       1.779   4.503  19.690  0.00  0.00    +0.000 C 
ATOM      5  C   UNL     1       3.249   4.729  19.975  0.00  0.00    +0.000 C 
ATOM      6  N   UNL     1       4.060   4.045  18.971  0.00  0.00    +0.000 N 
ATOM      7  C   UNL     1       4.819   4.709  18.051  0.00  0.00    +0.000 A 
ATOM      8  N   UNL     1       5.106   4.230  16.855  0.00  0.00    +0.000 NA
ATOM      9  C   UNL     1       5.909   5.112  16.140  0.00  0.00    +0.000 A 
ATOM     10  C   UNL     1       6.235   6.265  16.820  0.00  0.00    +0.000 A 
ATOM     11  S   UNL     1       5.526   6.258  18.368  0.00  0.00    +0.000 S 
ATOM     12  C   UNL     1       4.002   2.584  18.948  0.00  0.00    +0.000 C 
ATOM     13  C   UNL     1       2.617   2.109  18.569  0.00  0.00    +0.000 C 
ENDROOT
BRANCH   9  14
ATOM     14  C   UNL     1       6.307   4.858  14.761  0.00  0.00    +0.000 A 
ATOM     15  C   UNL     1       7.457   5.470  14.244  0.00  0.00    +0.000 A 
ATOM     16  C   UNL     1       7.888   5.164  12.954  0.00  0.00    +0.000 A 
ATOM     17  F   UNL     1       9.006   5.730  12.482  0.00  0.00    +0.000 F 
ATOM     18  C   UNL     1       7.190   4.269  12.148  0.00  0.00    +0.000 A 
ATOM     19  C   UNL     1       6.029   3.675  12.640  0.00  0.00    +0.000 A 
ATOM     20  C   UNL     1       5.596   3.974  13.931  0.00  0.00    +0.000 A 
ATOM     21  F   UNL     1       4.473   3.381  14.361  0.00  0.00    +0.000 F 
ENDBRANCH   9  14
TORSDOF 1
ENDMDL
MODEL 9
REMARK VINA RESULT:      -6.7      5.185      7.992
REMARK  Name = 
REMARK  1 active torsions:
REMARK  status: ('A' for Active; 'I' for Inactive)
REMARK    1  A    between atoms: C_9  and  C_10
REMARK                            x       y       z     vdW  Elec       q    Type
REMARK                         _______ _______ _______ _____ _____    ______ ____
ROOT
ATOM      1  O   UNL     1       4.746   2.100  20.992  0.00  0.00    +0.000 OA
ATOM      2  S   UNL     1       4.092   2.501  19.760  0.00  0.00    +0.000 S 
ATOM      3  O   UNL     1       3.829   1.521  18.722  0.00  0.00    +0.000 OA
ATOM      4  C   UNL     1       5.038   3.822  19.049  0.00  0.00    +0.000 C 
ATOM      5  C   UNL     1       4.240   4.473  17.938  0.00  0.00    +0.000 C 
ATOM      6  N   UNL     1       2.982   4.994  18.470  0.00  0.00    +0.000 N 
ATOM      7  C   UNL     1       2.704   6.327  18.549  0.00  0.00    +0.000 A 
ATOM      8  N   UNL     1       1.907   6.857  19.457  0.00  0.00    +0.000 NA
ATOM      9  C   UNL     1       1.794   8.233  19.284  0.00  0.00    +0.000 A 
ATOM     10  C   UNL     1       2.513   8.735  18.221  0.00  0.00    +0.000 A 
ATOM     11  S   UNL     1       3.348   7.481  17.429  0.00  0.00    +0.000 S 
ATOM     12  C   UNL     1       2.017   4.018  18.973  0.00  0.00    +0.000 C 
ATOM     13  C   UNL     1       2.564   3.298  20.186  0.00  0.00    +0.000 C 
ENDROOT
BRANCH   9  14
ATOM     14  C   UNL     1       1.033   9.072  20.202  0.00  0.00    +0.000 A 
ATOM     15  C   UNL     1       0.270  10.135  19.703  0.00  0.00    +0.000 A 
ATOM     16  C   UNL     1      -0.526  10.887  20.567  0.00  0.00    +0.000 A 
ATOM     17  F   UNL     1      -1.275  11.881  20.074  0.00  0.00    +0.000 F 
ATOM     18  C   UNL     1      -0.572  10.617  21.932  0.00  0.00    +0.000 A 
ATOM     19  C   UNL     1       0.204   9.579  22.445  0.00  0.00    +0.000 A 
ATOM     20  C   UNL     1       0.998   8.822  21.585  0.00  0.00    +0.000 A 
ATOM     21  F   UNL     1       1.729   7.835  22.124  0.00  0.00    +0.000 F 
ENDBRANCH   9  14
TORSDOF 1
ENDMDL
