MODEL 1
REMARK VINA RESULT:      -8.3      0.000      0.000
REMARK  Name = 
REMARK  4 active torsions:
REMARK  status: ('A' for Active; 'I' for Inactive)
REMARK    1  A    between atoms: C_2  and  C_3
REMARK    2  A    between atoms: C_3  and  N_4
REMARK    3  A    between atoms: N_21  and  C_22
REMARK    4  A    between atoms: C_25  and  C_26
REMARK                            x       y       z     vdW  Elec       q    Type
REMARK                         _______ _______ _______ _____ _____    ______ ____
ROOT
ATOM      1  N   UNL     1       2.773   4.316  18.843  0.00  0.00    +0.000 N 
ATOM      2  C   UNL     1       3.466   5.300  19.532  0.00  0.00    +0.000 A 
ATOM      3  N   UNL     1       4.537   5.907  19.119  0.00  0.00    +0.000 NA
ATOM      4  C   UNL     1       4.959   5.515  17.886  0.00  0.00    +0.000 A 
ATOM      5  C   UNL     1       4.350   4.566  17.087  0.00  0.00    +0.000 A 
ATOM      6  C   UNL     1       3.185   3.871  17.582  0.00  0.00    +0.000 A 
ATOM      7  O   UNL     1       2.606   2.995  16.950  0.00  0.00    +0.000 OA
ATOM      8  C   UNL     1       5.049   4.508  15.872  0.00  0.00    +0.000 A 
ATOM      9  N   UNL     1       4.866   3.737  14.768  0.00  0.00    +0.000 NA
ATOM     10  C   UNL     1       5.767   3.924  13.789  0.00  0.00    +0.000 A 
ATOM     11  C   UNL     1       5.665   3.170  12.626  0.00  0.00    +0.000 A 
ATOM     12  C   UNL     1       6.581   3.305  11.580  0.00  0.00    +0.000 A 
ATOM     13  C   UNL     1       7.623   4.215  11.694  0.00  0.00    +0.000 A 
ATOM     14  C   UNL     1       7.733   4.985  12.851  0.00  0.00    +0.000 A 
ATOM     15  C   UNL     1       6.826   4.859  13.893  0.00  0.00    +0.000 A 
ATOM     16  N   UNL     1       6.998   5.635  14.968  0.00  0.00    +0.000 NA
ATOM     17  C   UNL     1       6.079   5.441  15.942  0.00  0.00    +0.000 A 
ATOM     18  N   UNL     1       6.034   6.065  17.187  0.00  0.00    +0.000 N 
ENDROOT
BRANCH  18  19
ATOM     19  C   UNL     1       6.969   7.044  17.647  0.00  0.00    +0.000 A 
ATOM     20  C   UNL     1       7.889   6.720  18.655  0.00  0.00    +0.000 A 
ATOM     21  C   UNL     1       8.727   7.698  19.195  0.00  0.00    +0.000 A 
ATOM     22  C   UNL     1       8.652   9.017  18.744  0.00  0.00    +0.000 A 
ATOM     23  C   UNL     1       9.486  10.091  19.377  0.00  0.00    +0.000 C 
ATOM     24  C   UNL     1       7.762   9.333  17.710  0.00  0.00    +0.000 A 
ATOM     25  C   UNL     1       6.934   8.351  17.154  0.00  0.00    +0.000 A 
ENDBRANCH  18  19
BRANCH   1  26
ATOM     26  C   UNL     1       1.527   3.802  19.390  0.00  0.00    +0.000 C 
BRANCH  26  28
ATOM     27  C   UNL     1       1.767   2.821  21.694  0.00  0.00    +0.000 C 
ATOM     28  C   UNL     1       1.545   3.871  20.891  0.00  0.00    +0.000 C 
ENDBRANCH  26  28
ENDBRANCH   1  26
TORSDOF 3
ENDMDL
MODEL 2
REMARK VINA RESULT:      -7.5      2.936      7.640
REMARK  Name = 
REMARK  4 active torsions:
REMARK  status: ('A' for Active; 'I' for Inactive)
REMARK    1  A    between atoms: C_2  and  C_3
REMARK    2  A    between atoms: C_3  and  N_4
REMARK    3  A    between atoms: N_21  and  C_22
REMARK    4  A    between atoms: C_25  and  C_26
REMARK                            x       y       z     vdW  Elec       q    Type
REMARK                         _______ _______ _______ _____ _____    ______ ____
ROOT
ATOM      1  N   UNL     1       5.677   4.935  15.585  0.00  0.00    +0.000 N 
ATOM      2  C   UNL     1       5.336   3.808  16.319  0.00  0.00    +0.000 A 
ATOM      3  N   UNL     1       4.525   3.777  17.332  0.00  0.00    +0.000 NA
ATOM      4  C   UNL     1       3.978   4.984  17.645  0.00  0.00    +0.000 A 
ATOM      5  C   UNL     1       4.214   6.174  16.984  0.00  0.00    +0.000 A 
ATOM      6  C   UNL     1       5.151   6.197  15.886  0.00  0.00    +0.000 A 
ATOM      7  O   UNL     1       5.440   7.215  15.269  0.00  0.00    +0.000 OA
ATOM      8  C   UNL     1       3.405   7.162  17.566  0.00  0.00    +0.000 A 
ATOM      9  N   UNL     1       3.273   8.487  17.296  0.00  0.00    +0.000 NA
ATOM     10  C   UNL     1       2.420   9.148  18.097  0.00  0.00    +0.000 A 
ATOM     11  C   UNL     1       2.231  10.511  17.902  0.00  0.00    +0.000 A 
ATOM     12  C   UNL     1       1.372  11.256  18.712  0.00  0.00    +0.000 A 
ATOM     13  C   UNL     1       0.682  10.630  19.741  0.00  0.00    +0.000 A 
ATOM     14  C   UNL     1       0.854   9.261  19.943  0.00  0.00    +0.000 A 
ATOM     15  C   UNL     1       1.704   8.512  19.141  0.00  0.00    +0.000 A 
ATOM     16  N   UNL     1       1.813   7.205  19.397  0.00  0.00    +0.000 NA
ATOM     17  C   UNL     1       2.669   6.552  18.578  0.00  0.00    +0.000 A 
ATOM     18  N   UNL     1       3.021   5.205  18.637  0.00  0.00    +0.000 N 
ENDROOT
BRANCH  18  19
ATOM     19  C   UNL     1       2.516   4.267  19.590  0.00  0.00    +0.000 A 
ATOM     20  C   UNL     1       1.177   3.853  19.530  0.00  0.00    +0.000 A 
ATOM     21  C   UNL     1       0.641   3.030  20.523  0.00  0.00    +0.000 A 
ATOM     22  C   UNL     1       1.430   2.617  21.597  0.00  0.00    +0.000 A 
ATOM     23  C   UNL     1       0.841   1.805  22.712  0.00  0.00    +0.000 C 
ATOM     24  C   UNL     1       2.778   2.995  21.636  0.00  0.00    +0.000 A 
ATOM     25  C   UNL     1       3.323   3.805  20.634  0.00  0.00    +0.000 A 
ENDBRANCH  18  19
BRANCH   1  26
ATOM     26  C   UNL     1       6.520   4.794  14.408  0.00  0.00    +0.000 C 
BRANCH  26  28
ATOM     27  C   UNL     1       6.418   3.520  12.242  0.00  0.00    +0.000 C 
ATOM     28  C   UNL     1       5.946   3.768  13.472  0.00  0.00    +0.000 C 
ENDBRANCH  26  28
ENDBRANCH   1  26
TORSDOF 3
ENDMDL
MODEL 3
REMARK VINA RESULT:      -6.6      1.223      5.743
REMARK  Name = 
REMARK  4 active torsions:
REMARK  status: ('A' for Active; 'I' for Inactive)
REMARK    1  A    between atoms: C_2  and  C_3
REMARK    2  A    between atoms: C_3  and  N_4
REMARK    3  A    between atoms: N_21  and  C_22
REMARK    4  A    between atoms: C_25  and  C_26
REMARK                            x       y       z     vdW  Elec       q    Type
REMARK                         _______ _______ _______ _____ _____    ______ ____
ROOT
ATOM      1  N   UNL     1       6.673   4.220  13.154  0.00  0.00    +0.000 N 
ATOM      2  C   UNL     1       7.593   5.163  13.590  0.00  0.00    +0.000 A 
ATOM      3  N   UNL     1       7.550   5.801  14.720  0.00  0.00    +0.000 NA
ATOM      4  C   UNL     1       6.498   5.460  15.513  0.00  0.00    +0.000 A 
ATOM      5  C   UNL     1       5.527   4.524  15.210  0.00  0.00    +0.000 A 
ATOM      6  C   UNL     1       5.568   3.856  13.931  0.00  0.00    +0.000 A 
ATOM      7  O   UNL     1       4.728   3.038  13.572  0.00  0.00    +0.000 OA
ATOM      8  C   UNL     1       4.669   4.415  16.315  0.00  0.00    +0.000 A 
ATOM      9  N   UNL     1       3.562   3.654  16.519  0.00  0.00    +0.000 NA
ATOM     10  C   UNL     1       2.955   3.840  17.702  0.00  0.00    +0.000 A 
ATOM     11  C   UNL     1       1.806   3.113  17.993  0.00  0.00    +0.000 A 
ATOM     12  C   UNL     1       1.120   3.275  19.199  0.00  0.00    +0.000 A 
ATOM     13  C   UNL     1       1.589   4.182  20.139  0.00  0.00    +0.000 A 
ATOM     14  C   UNL     1       2.745   4.912  19.866  0.00  0.00    +0.000 A 
ATOM     15  C   UNL     1       3.434   4.755  18.672  0.00  0.00    +0.000 A 
ATOM     16  N   UNL     1       4.535   5.490  18.486  0.00  0.00    +0.000 NA
ATOM     17  C   UNL     1       5.140   5.286  17.293  0.00  0.00    +0.000 A 
ATOM     18  N   UNL     1       6.269   5.940  16.803  0.00  0.00    +0.000 N 
ENDROOT
BRANCH  18  19
ATOM     19  C   UNL     1       6.996   6.953  17.502  0.00  0.00    +0.000 A 
ATOM     20  C   UNL     1       6.897   8.294  17.103  0.00  0.00    +0.000 A 
ATOM     21  C   UNL     1       7.691   9.275  17.700  0.00  0.00    +0.000 A 
ATOM     22  C   UNL     1       8.604   8.931  18.698  0.00  0.00    +0.000 A 
ATOM     23  C   UNL     1       9.522   9.962  19.285  0.00  0.00    +0.000 C 
ATOM     24  C   UNL     1       8.675   7.599  19.126  0.00  0.00    +0.000 A 
ATOM     25  C   UNL     1       7.868   6.617  18.542  0.00  0.00    +0.000 A 
ENDBRANCH  18  19
BRANCH   1  26
ATOM     26  C   UNL     1       6.912   3.512  11.906  0.00  0.00    +0.000 C 
BRANCH  26  28
ATOM     27  C   UNL     1       6.405   1.181  11.109  0.00  0.00    +0.000 C 
ATOM     28  C   UNL     1       6.095   2.252  11.853  0.00  0.00    +0.000 C 
ENDBRANCH  26  28
ENDBRANCH   1  26
TORSDOF 3
ENDMDL
MODEL 4
REMARK VINA RESULT:      -6.5      9.732     11.999
REMARK  Name = 
REMARK  4 active torsions:
REMARK  status: ('A' for Active; 'I' for Inactive)
REMARK    1  A    between atoms: C_2  and  C_3
REMARK    2  A    between atoms: C_3  and  N_4
REMARK    3  A    between atoms: N_21  and  C_22
REMARK    4  A    between atoms: C_25  and  C_26
REMARK                            x       y       z     vdW  Elec       q    Type
REMARK                         _______ _______ _______ _____ _____    ______ ____
ROOT
ATOM      1  N   UNL     1       0.552  10.279  18.467  0.00  0.00    +0.000 N 
ATOM      2  C   UNL     1       1.132  11.004  19.498  0.00  0.00    +0.000 A 
ATOM      3  N   UNL     1       0.529  11.875  20.248  0.00  0.00    +0.000 NA
ATOM      4  C   UNL     1      -0.792  12.037  19.963  0.00  0.00    +0.000 A 
ATOM      5  C   UNL     1      -1.495  11.364  18.982  0.00  0.00    +0.000 A 
ATOM      6  C   UNL     1      -0.798  10.429  18.130  0.00  0.00    +0.000 A 
ATOM      7  O   UNL     1      -1.341   9.816  17.218  0.00  0.00    +0.000 OA
ATOM      8  C   UNL     1      -2.839  11.760  19.061  0.00  0.00    +0.000 A 
ATOM      9  N   UNL     1      -3.924  11.407  18.323  0.00  0.00    +0.000 NA
ATOM     10  C   UNL     1      -5.066  12.028  18.659  0.00  0.00    +0.000 A 
ATOM     11  C   UNL     1      -6.225  11.738  17.949  0.00  0.00    +0.000 A 
ATOM     12  C   UNL     1      -7.440  12.363  18.239  0.00  0.00    +0.000 A 
ATOM     13  C   UNL     1      -7.504  13.299  19.262  0.00  0.00    +0.000 A 
ATOM     14  C   UNL     1      -6.351  13.594  19.990  0.00  0.00    +0.000 A 
ATOM     15  C   UNL     1      -5.141  12.975  19.710  0.00  0.00    +0.000 A 
ATOM     16  N   UNL     1      -4.083  13.310  20.454  0.00  0.00    +0.000 NA
ATOM     17  C   UNL     1      -2.941  12.671  20.109  0.00  0.00    +0.000 A 
ATOM     18  N   UNL     1      -1.678  12.851  20.669  0.00  0.00    +0.000 N 
ENDROOT
BRANCH  18  19
ATOM     19  C   UNL     1      -1.375  13.757  21.733  0.00  0.00    +0.000 A 
ATOM     20  C   UNL     1      -1.579  13.372  23.066  0.00  0.00    +0.000 A 
ATOM     21  C   UNL     1      -1.399  14.286  24.107  0.00  0.00    +0.000 A 
ATOM     22  C   UNL     1      -1.025  15.602  23.831  0.00  0.00    +0.000 A 
ATOM     23  C   UNL     1      -0.914  16.613  24.934  0.00  0.00    +0.000 C 
ATOM     24  C   UNL     1      -0.782  15.977  22.504  0.00  0.00    +0.000 A 
ATOM     25  C   UNL     1      -0.943  15.059  21.461  0.00  0.00    +0.000 A 
ENDBRANCH  18  19
BRANCH   1  26
ATOM     26  C   UNL     1       1.331   9.259  17.783  0.00  0.00    +0.000 C 
BRANCH  26  28
ATOM     27  C   UNL     1       2.647   7.224  18.456  0.00  0.00    +0.000 C 
ATOM     28  C   UNL     1       1.994   8.350  18.779  0.00  0.00    +0.000 C 
ENDBRANCH  26  28
ENDBRANCH   1  26
TORSDOF 3
ENDMDL
MODEL 5
REMARK VINA RESULT:      -6.4      9.117     11.964
REMARK  Name = 
REMARK  4 active torsions:
REMARK  status: ('A' for Active; 'I' for Inactive)
REMARK    1  A    between atoms: C_2  and  C_3
REMARK    2  A    between atoms: C_3  and  N_4
REMARK    3  A    between atoms: N_21  and  C_22
REMARK    4  A    between atoms: C_25  and  C_26
REMARK                            x       y       z     vdW  Elec       q    Type
REMARK                         _______ _______ _______ _____ _____    ______ ____
ROOT
ATOM      1  N   UNL     1       1.379  10.123  18.720  0.00  0.00    +0.000 N 
ATOM      2  C   UNL     1       0.323   9.688  19.507  0.00  0.00    +0.000 A 
ATOM      3  N   UNL     1      -0.520  10.447  20.138  0.00  0.00    +0.000 NA
ATOM      4  C   UNL     1      -0.310  11.780  19.958  0.00  0.00    +0.000 A 
ATOM      5  C   UNL     1       0.687  12.345  19.185  0.00  0.00    +0.000 A 
ATOM      6  C   UNL     1       1.640  11.484  18.526  0.00  0.00    +0.000 A 
ATOM      7  O   UNL     1       2.571  11.905  17.849  0.00  0.00    +0.000 OA
ATOM      8  C   UNL     1       0.514  13.738  19.203  0.00  0.00    +0.000 A 
ATOM      9  N   UNL     1       1.227  14.737  18.620  0.00  0.00    +0.000 NA
ATOM     10  C   UNL     1       0.790  15.978  18.891  0.00  0.00    +0.000 A 
ATOM     11  C   UNL     1       1.466  17.064  18.348  0.00  0.00    +0.000 A 
ATOM     12  C   UNL     1       1.071  18.379  18.607  0.00  0.00    +0.000 A 
ATOM     13  C   UNL     1      -0.024  18.619  19.425  0.00  0.00    +0.000 A 
ATOM     14  C   UNL     1      -0.717  17.539  19.970  0.00  0.00    +0.000 A 
ATOM     15  C   UNL     1      -0.334  16.230  19.716  0.00  0.00    +0.000 A 
ATOM     16  N   UNL     1      -1.052  15.250  20.273  0.00  0.00    +0.000 NA
ATOM     17  C   UNL     1      -0.605  14.006  19.985  0.00  0.00    +0.000 A 
ATOM     18  N   UNL     1      -1.118  12.801  20.461  0.00  0.00    +0.000 N 
ENDROOT
BRANCH  18  19
ATOM     19  C   UNL     1      -2.234  12.678  21.345  0.00  0.00    +0.000 A 
ATOM     20  C   UNL     1      -3.541  12.812  20.855  0.00  0.00    +0.000 A 
ATOM     21  C   UNL     1      -4.633  12.811  21.726  0.00  0.00    +0.000 A 
ATOM     22  C   UNL     1      -4.435  12.688  23.102  0.00  0.00    +0.000 A 
ATOM     23  C   UNL     1      -5.593  12.773  24.052  0.00  0.00    +0.000 C 
ATOM     24  C   UNL     1      -3.134  12.513  23.590  0.00  0.00    +0.000 A 
ATOM     25  C   UNL     1      -2.040  12.495  22.718  0.00  0.00    +0.000 A 
ENDBRANCH  18  19
BRANCH   1  26
ATOM     26  C   UNL     1       2.176   9.150  17.991  0.00  0.00    +0.000 C 
BRANCH  26  28
ATOM     27  C   UNL     1       2.631   6.686  18.213  0.00  0.00    +0.000 C 
ATOM     28  C   UNL     1       2.242   7.853  18.746  0.00  0.00    +0.000 C 
ENDBRANCH  26  28
ENDBRANCH   1  26
TORSDOF 3
ENDMDL
MODEL 6
REMARK VINA RESULT:      -6.4      9.560     10.884
REMARK  Name = 
REMARK  4 active torsions:
REMARK  status: ('A' for Active; 'I' for Inactive)
REMARK    1  A    between atoms: C_2  and  C_3
REMARK    2  A    between atoms: C_3  and  N_4
REMARK    3  A    between atoms: N_21  and  C_22
REMARK    4  A    between atoms: C_25  and  C_26
REMARK                            x       y       z     vdW  Elec       q    Type
REMARK                         _______ _______ _______ _____ _____    ______ ____
ROOT
ATOM      1  N   UNL     1       4.890  16.133  20.248  0.00  0.00    +0.000 N 
ATOM      2  C   UNL     1       4.622  15.759  21.557  0.00  0.00    +0.000 A 
ATOM      3  N   UNL     1       5.338  14.954  22.280  0.00  0.00    +0.000 NA
ATOM      4  C   UNL     1       6.449  14.480  21.651  0.00  0.00    +0.000 A 
ATOM      5  C   UNL     1       6.843  14.789  20.363  0.00  0.00    +0.000 A 
ATOM      6  C   UNL     1       6.011  15.653  19.560  0.00  0.00    +0.000 A 
ATOM      7  O   UNL     1       6.272  15.951  18.401  0.00  0.00    +0.000 OA
ATOM      8  C   UNL     1       8.073  14.158  20.122  0.00  0.00    +0.000 A 
ATOM      9  N   UNL     1       8.867  14.133  19.020  0.00  0.00    +0.000 NA
ATOM     10  C   UNL     1       9.972  13.378  19.133  0.00  0.00    +0.000 A 
ATOM     11  C   UNL     1      10.838  13.284  18.050  0.00  0.00    +0.000 A 
ATOM     12  C   UNL     1      11.994  12.501  18.100  0.00  0.00    +0.000 A 
ATOM     13  C   UNL     1      12.296  11.796  19.257  0.00  0.00    +0.000 A 
ATOM     14  C   UNL     1      11.442  11.888  20.354  0.00  0.00    +0.000 A 
ATOM     15  C   UNL     1      10.293  12.665  20.315  0.00  0.00    +0.000 A 
ATOM     16  N   UNL     1       9.527  12.704  21.409  0.00  0.00    +0.000 NA
ATOM     17  C   UNL     1       8.422  13.474  21.283  0.00  0.00    +0.000 A 
ATOM     18  N   UNL     1       7.420  13.664  22.233  0.00  0.00    +0.000 N 
ENDROOT
BRANCH  18  19
ATOM     19  C   UNL     1       7.400  13.068  23.532  0.00  0.00    +0.000 A 
ATOM     20  C   UNL     1       6.676  11.888  23.755  0.00  0.00    +0.000 A 
ATOM     21  C   UNL     1       6.551  11.361  25.042  0.00  0.00    +0.000 A 
ATOM     22  C   UNL     1       7.139  12.011  26.129  0.00  0.00    +0.000 A 
ATOM     23  C   UNL     1       6.939  11.502  27.525  0.00  0.00    +0.000 C 
ATOM     24  C   UNL     1       7.896  13.167  25.902  0.00  0.00    +0.000 A 
ATOM     25  C   UNL     1       8.037  13.687  24.611  0.00  0.00    +0.000 A 
ENDBRANCH  18  19
BRANCH   1  26
ATOM     26  C   UNL     1       4.050  17.129  19.602  0.00  0.00    +0.000 C 
BRANCH  26  28
ATOM     27  C   UNL     1       1.958  17.051  18.208  0.00  0.00    +0.000 C 
ATOM     28  C   UNL     1       2.769  16.505  19.125  0.00  0.00    +0.000 C 
ENDBRANCH  26  28
ENDBRANCH   1  26
TORSDOF 3
ENDMDL
MODEL 7
REMARK VINA RESULT:      -6.4      8.459     11.011
REMARK  Name = 
REMARK  4 active torsions:
REMARK  status: ('A' for Active; 'I' for Inactive)
REMARK    1  A    between atoms: C_2  and  C_3
REMARK    2  A    between atoms: C_3  and  N_4
REMARK    3  A    between atoms: N_21  and  C_22
REMARK    4  A    between atoms: C_25  and  C_26
REMARK                            x       y       z     vdW  Elec       q    Type
REMARK                         _______ _______ _______ _____ _____    ______ ____
ROOT
ATOM      1  N   UNL     1      -4.349  10.941  18.196  0.00  0.00    +0.000 N 
ATOM      2  C   UNL     1      -3.585   9.818  17.913  0.00  0.00    +0.000 A 
ATOM      3  N   UNL     1      -2.325   9.666  18.187  0.00  0.00    +0.000 NA
ATOM      4  C   UNL     1      -1.762  10.729  18.824  0.00  0.00    +0.000 A 
ATOM      5  C   UNL     1      -2.413  11.894  19.183  0.00  0.00    +0.000 A 
ATOM      6  C   UNL     1      -3.803  12.061  18.833  0.00  0.00    +0.000 A 
ATOM      7  O   UNL     1      -4.444  13.075  19.086  0.00  0.00    +0.000 OA
ATOM      8  C   UNL     1      -1.503  12.702  19.883  0.00  0.00    +0.000 A 
ATOM      9  N   UNL     1      -1.639  13.938  20.431  0.00  0.00    +0.000 NA
ATOM     10  C   UNL     1      -0.526  14.432  20.999  0.00  0.00    +0.000 A 
ATOM     11  C   UNL     1      -0.568  15.697  21.574  0.00  0.00    +0.000 A 
ATOM     12  C   UNL     1       0.559  16.273  22.164  0.00  0.00    +0.000 A 
ATOM     13  C   UNL     1       1.758  15.573  22.182  0.00  0.00    +0.000 A 
ATOM     14  C   UNL     1       1.813  14.300  21.616  0.00  0.00    +0.000 A 
ATOM     15  C   UNL     1       0.697  13.719  21.031  0.00  0.00    +0.000 A 
ATOM     16  N   UNL     1       0.831  12.494  20.513  0.00  0.00    +0.000 NA
ATOM     17  C   UNL     1      -0.300  12.006  19.952  0.00  0.00    +0.000 A 
ATOM     18  N   UNL     1      -0.450  10.786  19.295  0.00  0.00    +0.000 N 
ENDROOT
BRANCH  18  19
ATOM     19  C   UNL     1       0.590   9.823  19.109  0.00  0.00    +0.000 A 
ATOM     20  C   UNL     1       1.202   9.680  17.856  0.00  0.00    +0.000 A 
ATOM     21  C   UNL     1       2.134   8.665  17.630  0.00  0.00    +0.000 A 
ATOM     22  C   UNL     1       2.462   7.770  18.650  0.00  0.00    +0.000 A 
ATOM     23  C   UNL     1       3.396   6.625  18.394  0.00  0.00    +0.000 C 
ATOM     24  C   UNL     1       1.882   7.937  19.914  0.00  0.00    +0.000 A 
ATOM     25  C   UNL     1       0.961   8.964  20.148  0.00  0.00    +0.000 A 
ENDBRANCH  18  19
BRANCH   1  26
ATOM     26  C   UNL     1      -5.777  10.922  17.922  0.00  0.00    +0.000 C 
BRANCH  26  28
ATOM     27  C   UNL     1      -7.225  10.881  19.978  0.00  0.00    +0.000 C 
ATOM     28  C   UNL     1      -6.517  10.240  19.038  0.00  0.00    +0.000 C 
ENDBRANCH  26  28
ENDBRANCH   1  26
TORSDOF 3
ENDMDL
MODEL 8
REMARK VINA RESULT:      -6.3     10.464     13.146
REMARK  Name = 
REMARK  4 active torsions:
REMARK  status: ('A' for Active; 'I' for Inactive)
REMARK    1  A    between atoms: C_2  and  C_3
REMARK    2  A    between atoms: C_3  and  N_4
REMARK    3  A    between atoms: N_21  and  C_22
REMARK    4  A    between atoms: C_25  and  C_26
REMARK                            x       y       z     vdW  Elec       q    Type
REMARK                         _______ _______ _______ _____ _____    ______ ____
ROOT
ATOM      1  N   UNL     1      -0.340  10.809  21.124  0.00  0.00    +0.000 N 
ATOM      2  C   UNL     1      -0.010  11.363  19.896  0.00  0.00    +0.000 A 
ATOM      3  N   UNL     1       0.075  12.632  19.633  0.00  0.00    +0.000 NA
ATOM      4  C   UNL     1      -0.174  13.440  20.700  0.00  0.00    +0.000 A 
ATOM      5  C   UNL     1      -0.490  13.018  21.977  0.00  0.00    +0.000 A 
ATOM      6  C   UNL     1      -0.621  11.605  22.240  0.00  0.00    +0.000 A 
ATOM      7  O   UNL     1      -0.929  11.150  23.336  0.00  0.00    +0.000 OA
ATOM      8  C   UNL     1      -0.596  14.154  22.796  0.00  0.00    +0.000 A 
ATOM      9  N   UNL     1      -0.898  14.283  24.114  0.00  0.00    +0.000 NA
ATOM     10  C   UNL     1      -0.952  15.549  24.562  0.00  0.00    +0.000 A 
ATOM     11  C   UNL     1      -1.266  15.778  25.896  0.00  0.00    +0.000 A 
ATOM     12  C   UNL     1      -1.355  17.071  26.418  0.00  0.00    +0.000 A 
ATOM     13  C   UNL     1      -1.124  18.162  25.591  0.00  0.00    +0.000 A 
ATOM     14  C   UNL     1      -0.800  17.947  24.253  0.00  0.00    +0.000 A 
ATOM     15  C   UNL     1      -0.706  16.666  23.727  0.00  0.00    +0.000 A 
ATOM     16  N   UNL     1      -0.387  16.544  22.435  0.00  0.00    +0.000 NA
ATOM     17  C   UNL     1      -0.329  15.264  22.000  0.00  0.00    +0.000 A 
ATOM     18  N   UNL     1      -0.072  14.832  20.700  0.00  0.00    +0.000 N 
ENDROOT
BRANCH  18  19
ATOM     19  C   UNL     1       0.188  15.691  19.588  0.00  0.00    +0.000 A 
ATOM     20  C   UNL     1       1.508  15.941  19.184  0.00  0.00    +0.000 A 
ATOM     21  C   UNL     1       1.780  16.869  18.176  0.00  0.00    +0.000 A 
ATOM     22  C   UNL     1       0.740  17.569  17.563  0.00  0.00    +0.000 A 
ATOM     23  C   UNL     1       1.027  18.629  16.542  0.00  0.00    +0.000 C 
ATOM     24  C   UNL     1      -0.581  17.290  17.938  0.00  0.00    +0.000 A 
ATOM     25  C   UNL     1      -0.858  16.349  18.935  0.00  0.00    +0.000 A 
ENDBRANCH  18  19
BRANCH   1  26
ATOM     26  C   UNL     1      -0.292   9.365  21.293  0.00  0.00    +0.000 C 
BRANCH  26  28
ATOM     27  C   UNL     1       1.446   7.615  20.799  0.00  0.00    +0.000 C 
ATOM     28  C   UNL     1       1.118   8.866  21.152  0.00  0.00    +0.000 C 
ENDBRANCH  26  28
ENDBRANCH   1  26
TORSDOF 3
ENDMDL
MODEL 9
REMARK VINA RESULT:      -6.2      1.076      5.679
REMARK  Name = 
REMARK  4 active torsions:
REMARK  status: ('A' for Active; 'I' for Inactive)
REMARK    1  A    between atoms: C_2  and  C_3
REMARK    2  A    between atoms: C_3  and  N_4
REMARK    3  A    between atoms: N_21  and  C_22
REMARK    4  A    between atoms: C_25  and  C_26
REMARK                            x       y       z     vdW  Elec       q    Type
REMARK                         _______ _______ _______ _____ _____    ______ ____
ROOT
ATOM      1  N   UNL     1       6.250   3.963  13.492  0.00  0.00    +0.000 N 
ATOM      2  C   UNL     1       7.274   4.855  13.776  0.00  0.00    +0.000 A 
ATOM      3  N   UNL     1       7.370   5.589  14.842  0.00  0.00    +0.000 NA
ATOM      4  C   UNL     1       6.356   5.411  15.734  0.00  0.00    +0.000 A 
ATOM      5  C   UNL     1       5.292   4.541  15.585  0.00  0.00    +0.000 A 
ATOM      6  C   UNL     1       5.181   3.765  14.373  0.00  0.00    +0.000 A 
ATOM      7  O   UNL     1       4.254   2.996  14.149  0.00  0.00    +0.000 OA
ATOM      8  C   UNL     1       4.514   4.602  16.751  0.00  0.00    +0.000 A 
ATOM      9  N   UNL     1       3.368   3.962  17.099  0.00  0.00    +0.000 NA
ATOM     10  C   UNL     1       2.870   4.301  18.300  0.00  0.00    +0.000 A 
ATOM     11  C   UNL     1       1.692   3.705  18.734  0.00  0.00    +0.000 A 
ATOM     12  C   UNL     1       1.114   4.029  19.964  0.00  0.00    +0.000 A 
ATOM     13  C   UNL     1       1.725   4.969  20.783  0.00  0.00    +0.000 A 
ATOM     14  C   UNL     1       2.912   5.569  20.365  0.00  0.00    +0.000 A 
ATOM     15  C   UNL     1       3.494   5.250  19.146  0.00  0.00    +0.000 A 
ATOM     16  N   UNL     1       4.634   5.867  18.819  0.00  0.00    +0.000 NA
ATOM     17  C   UNL     1       5.128   5.509  17.611  0.00  0.00    +0.000 A 
ATOM     18  N   UNL     1       6.265   6.018  16.987  0.00  0.00    +0.000 N 
ENDROOT
BRANCH  18  19
ATOM     19  C   UNL     1       7.123   7.019  17.538  0.00  0.00    +0.000 A 
ATOM     20  C   UNL     1       7.974   6.707  18.608  0.00  0.00    +0.000 A 
ATOM     21  C   UNL     1       8.729   7.703  19.232  0.00  0.00    +0.000 A 
ATOM     22  C   UNL     1       8.638   9.028  18.803  0.00  0.00    +0.000 A 
ATOM     23  C   UNL     1       9.378  10.118  19.520  0.00  0.00    +0.000 C 
ATOM     24  C   UNL     1       7.820   9.334  17.708  0.00  0.00    +0.000 A 
ATOM     25  C   UNL     1       7.076   8.336  17.070  0.00  0.00    +0.000 A 
ENDBRANCH  18  19
BRANCH   1  26
ATOM     26  C   UNL     1       6.336   3.132  12.301  0.00  0.00    +0.000 C 
BRANCH  26  28
ATOM     27  C   UNL     1       4.139   3.203  11.078  0.00  0.00    +0.000 C 
ATOM     28  C   UNL     1       5.397   3.636  11.241  0.00  0.00    +0.000 C 
ENDBRANCH  26  28
ENDBRANCH   1  26
TORSDOF 3
ENDMDL
