MODEL 1
REMARK VINA RESULT:      -6.8      0.000      0.000
REMARK  Name = 
REMARK  10 active torsions:
REMARK  status: ('A' for Active; 'I' for Inactive)
REMARK    1  A    between atoms: C_1  and  C_2
REMARK    2  A    between atoms: C_2  and  C_3
REMARK    3  A    between atoms: C_3  and  C_4
REMARK    4  A    between atoms: C_4  and  C_5
REMARK    5  A    between atoms: C_5  and  C_6
REMARK    6  A    between atoms: C_6  and  C_7
REMARK    7  A    between atoms: C_7  and  C_8
REMARK    8  A    between atoms: C_8  and  C_9
REMARK    9  A    between atoms: C_12  and  C_13
REMARK   10  A    between atoms: C_13  and  C_15
REMARK                            x       y       z     vdW  Elec       q    Type
REMARK                         _______ _______ _______ _____ _____    ______ ____
ROOT
ATOM      1  C   UNL     1       3.411   5.819  19.019  0.00  0.00    +0.000 A 
ATOM      2  C   UNL     1       3.430   6.387  17.746  0.00  0.00    +0.000 A 
ATOM      3  C   UNL     1       4.472   6.139  16.866  0.00  0.00    +0.000 A 
ATOM      4  C   UNL     1       5.554   5.318  17.274  0.00  0.00    +0.000 A 
ATOM      5  C   UNL     1       5.541   4.756  18.562  0.00  0.00    +0.000 A 
ATOM      6  C   UNL     1       4.467   4.986  19.424  0.00  0.00    +0.000 A 
ENDROOT
BRANCH   4   7
ATOM      7  C   UNL     1       6.675   5.049  16.359  0.00  0.00    +0.000 C 
ATOM      8  O   UNL     1       7.746   4.661  16.825  0.00  0.00    +0.000 OA
BRANCH   7   9
ATOM      9  C   UNL     1       6.522   5.146  14.844  0.00  0.00    +0.000 C 
ATOM     10  C   UNL     1       6.203   3.772  14.261  0.00  0.00    +0.000 C 
ATOM     11  C   UNL     1       6.572   3.980  12.806  0.00  0.00    +0.000 C 
ATOM     12  C   UNL     1       7.793   4.893  12.888  0.00  0.00    +0.000 C 
ATOM     13  N   UNL     1       7.784   5.502  14.221  0.00  0.00    +0.000 NA
ATOM     14  H   UNL     1       7.917   6.546  14.180  0.00  0.00    +0.000 HD
ENDBRANCH   7   9
ENDBRANCH   4   7
BRANCH   1  15
ATOM     15  C   UNL     1       2.247   6.053  19.952  0.00  0.00    +0.000 C 
BRANCH  15  16
ATOM     16  C   UNL     1       2.428   5.233  21.219  0.00  0.00    +0.000 C 
BRANCH  16  17
ATOM     17  C   UNL     1       2.089   3.770  20.983  0.00  0.00    +0.000 C 
BRANCH  17  18
ATOM     18  C   UNL     1       0.775   3.710  20.244  0.00  0.00    +0.000 C 
BRANCH  18  19
ATOM     19  C   UNL     1       0.916   2.840  19.007  0.00  0.00    +0.000 C 
BRANCH  19  20
ATOM     20  C   UNL     1       2.108   1.906  19.210  0.00  0.00    +0.000 C 
BRANCH  20  22
ATOM     21  C   UNL     1       2.594   2.956  16.950  0.00  0.00    +0.000 C 
ATOM     22  C   UNL     1       3.008   1.917  18.001  0.00  0.00    +0.000 C 
ENDBRANCH  20  22
ENDBRANCH  19  20
ENDBRANCH  18  19
ENDBRANCH  17  18
ENDBRANCH  16  17
ENDBRANCH  15  16
ENDBRANCH   1  15
TORSDOF 9
ENDMDL
MODEL 2
REMARK VINA RESULT:      -6.8      0.525      1.238
REMARK  Name = 
REMARK  10 active torsions:
REMARK  status: ('A' for Active; 'I' for Inactive)
REMARK    1  A    between atoms: C_1  and  C_2
REMARK    2  A    between atoms: C_2  and  C_3
REMARK    3  A    between atoms: C_3  and  C_4
REMARK    4  A    between atoms: C_4  and  C_5
REMARK    5  A    between atoms: C_5  and  C_6
REMARK    6  A    between atoms: C_6  and  C_7
REMARK    7  A    between atoms: C_7  and  C_8
REMARK    8  A    between atoms: C_8  and  C_9
REMARK    9  A    between atoms: C_12  and  C_13
REMARK   10  A    between atoms: C_13  and  C_15
REMARK                            x       y       z     vdW  Elec       q    Type
REMARK                         _______ _______ _______ _____ _____    ______ ____
ROOT
ATOM      1  C   UNL     1       3.697   5.857  19.086  0.00  0.00    +0.000 A 
ATOM      2  C   UNL     1       4.872   5.227  19.493  0.00  0.00    +0.000 A 
ATOM      3  C   UNL     1       5.888   4.955  18.592  0.00  0.00    +0.000 A 
ATOM      4  C   UNL     1       5.723   5.292  17.224  0.00  0.00    +0.000 A 
ATOM      5  C   UNL     1       4.533   5.915  16.811  0.00  0.00    +0.000 A 
ATOM      6  C   UNL     1       3.533   6.216  17.738  0.00  0.00    +0.000 A 
ENDROOT
BRANCH   4   7
ATOM      7  C   UNL     1       6.786   5.003  16.248  0.00  0.00    +0.000 C 
ATOM      8  O   UNL     1       7.871   4.585  16.653  0.00  0.00    +0.000 OA
BRANCH   7   9
ATOM      9  C   UNL     1       6.554   5.115  14.745  0.00  0.00    +0.000 C 
ATOM     10  C   UNL     1       6.102   3.770  14.183  0.00  0.00    +0.000 C 
ATOM     11  C   UNL     1       6.402   3.955  12.709  0.00  0.00    +0.000 C 
ATOM     12  C   UNL     1       7.688   4.776  12.719  0.00  0.00    +0.000 C 
ATOM     13  N   UNL     1       7.800   5.380  14.049  0.00  0.00    +0.000 NA
ATOM     14  H   UNL     1       8.006   6.412  13.999  0.00  0.00    +0.000 HD
ENDBRANCH   7   9
ENDBRANCH   4   7
BRANCH   1  15
ATOM     15  C   UNL     1       2.615   6.197  20.083  0.00  0.00    +0.000 C 
BRANCH  15  16
ATOM     16  C   UNL     1       2.335   4.998  20.973  0.00  0.00    +0.000 C 
BRANCH  16  17
ATOM     17  C   UNL     1       1.050   4.295  20.564  0.00  0.00    +0.000 C 
BRANCH  17  18
ATOM     18  C   UNL     1       1.120   2.873  21.062  0.00  0.00    +0.000 C 
BRANCH  18  19
ATOM     19  C   UNL     1       2.321   2.170  20.454  0.00  0.00    +0.000 C 
BRANCH  19  20
ATOM     20  C   UNL     1       2.025   1.902  18.979  0.00  0.00    +0.000 C 
BRANCH  20  22
ATOM     21  C   UNL     1       3.085   2.708  16.817  0.00  0.00    +0.000 C 
ATOM     22  C   UNL     1       3.286   1.986  18.157  0.00  0.00    +0.000 C 
ENDBRANCH  20  22
ENDBRANCH  19  20
ENDBRANCH  18  19
ENDBRANCH  17  18
ENDBRANCH  16  17
ENDBRANCH  15  16
ENDBRANCH   1  15
TORSDOF 9
ENDMDL
MODEL 3
REMARK VINA RESULT:      -6.8      1.336      1.958
REMARK  Name = 
REMARK  10 active torsions:
REMARK  status: ('A' for Active; 'I' for Inactive)
REMARK    1  A    between atoms: C_1  and  C_2
REMARK    2  A    between atoms: C_2  and  C_3
REMARK    3  A    between atoms: C_3  and  C_4
REMARK    4  A    between atoms: C_4  and  C_5
REMARK    5  A    between atoms: C_5  and  C_6
REMARK    6  A    between atoms: C_6  and  C_7
REMARK    7  A    between atoms: C_7  and  C_8
REMARK    8  A    between atoms: C_8  and  C_9
REMARK    9  A    between atoms: C_12  and  C_13
REMARK   10  A    between atoms: C_13  and  C_15
REMARK                            x       y       z     vdW  Elec       q    Type
REMARK                         _______ _______ _______ _____ _____    ______ ____
ROOT
ATOM      1  C   UNL     1       2.979   5.653  19.676  0.00  0.00    +0.000 A 
ATOM      2  C   UNL     1       4.231   5.062  19.841  0.00  0.00    +0.000 A 
ATOM      3  C   UNL     1       5.280   5.355  18.983  0.00  0.00    +0.000 A 
ATOM      4  C   UNL     1       5.073   6.246  17.900  0.00  0.00    +0.000 A 
ATOM      5  C   UNL     1       3.808   6.832  17.727  0.00  0.00    +0.000 A 
ATOM      6  C   UNL     1       2.771   6.556  18.620  0.00  0.00    +0.000 A 
ENDROOT
BRANCH   4   7
ATOM      7  C   UNL     1       6.171   6.563  16.972  0.00  0.00    +0.000 C 
ATOM      8  O   UNL     1       6.842   7.576  17.165  0.00  0.00    +0.000 OA
BRANCH   7   9
ATOM      9  C   UNL     1       6.562   5.625  15.835  0.00  0.00    +0.000 C 
ATOM     10  C   UNL     1       5.432   5.540  14.813  0.00  0.00    +0.000 C 
ATOM     11  C   UNL     1       5.790   4.259  14.088  0.00  0.00    +0.000 C 
ATOM     12  C   UNL     1       6.345   3.376  15.203  0.00  0.00    +0.000 C 
ATOM     13  N   UNL     1       6.698   4.262  16.314  0.00  0.00    +0.000 NA
ATOM     14  H   UNL     1       7.668   4.073  16.679  0.00  0.00    +0.000 HD
ENDBRANCH   7   9
ENDBRANCH   4   7
BRANCH   1  15
ATOM     15  C   UNL     1       1.856   5.370  20.645  0.00  0.00    +0.000 C 
BRANCH  15  16
ATOM     16  C   UNL     1       2.175   4.126  21.458  0.00  0.00    +0.000 C 
BRANCH  16  17
ATOM     17  C   UNL     1       1.244   2.979  21.101  0.00  0.00    +0.000 C 
BRANCH  17  18
ATOM     18  C   UNL     1       0.629   3.280  19.757  0.00  0.00    +0.000 C 
BRANCH  18  19
ATOM     19  C   UNL     1       1.140   2.293  18.722  0.00  0.00    +0.000 C 
BRANCH  19  20
ATOM     20  C   UNL     1       1.892   3.072  17.644  0.00  0.00    +0.000 C 
BRANCH  20  22
ATOM     21  C   UNL     1       3.653   1.467  18.519  0.00  0.00    +0.000 C 
ATOM     22  C   UNL     1       3.310   2.578  17.518  0.00  0.00    +0.000 C 
ENDBRANCH  20  22
ENDBRANCH  19  20
ENDBRANCH  18  19
ENDBRANCH  17  18
ENDBRANCH  16  17
ENDBRANCH  15  16
ENDBRANCH   1  15
TORSDOF 9
ENDMDL
MODEL 4
REMARK VINA RESULT:      -6.6      4.591      8.005
REMARK  Name = 
REMARK  10 active torsions:
REMARK  status: ('A' for Active; 'I' for Inactive)
REMARK    1  A    between atoms: C_1  and  C_2
REMARK    2  A    between atoms: C_2  and  C_3
REMARK    3  A    between atoms: C_3  and  C_4
REMARK    4  A    between atoms: C_4  and  C_5
REMARK    5  A    between atoms: C_5  and  C_6
REMARK    6  A    between atoms: C_6  and  C_7
REMARK    7  A    between atoms: C_7  and  C_8
REMARK    8  A    between atoms: C_8  and  C_9
REMARK    9  A    between atoms: C_12  and  C_13
REMARK   10  A    between atoms: C_13  and  C_15
REMARK                            x       y       z     vdW  Elec       q    Type
REMARK                         _______ _______ _______ _____ _____    ______ ____
ROOT
ATOM      1  C   UNL     1       5.676   5.738  17.001  0.00  0.00    +0.000 A 
ATOM      2  C   UNL     1       5.395   4.442  16.570  0.00  0.00    +0.000 A 
ATOM      3  C   UNL     1       4.188   3.833  16.872  0.00  0.00    +0.000 A 
ATOM      4  C   UNL     1       3.230   4.522  17.658  0.00  0.00    +0.000 A 
ATOM      5  C   UNL     1       3.518   5.824  18.104  0.00  0.00    +0.000 A 
ATOM      6  C   UNL     1       4.724   6.439  17.761  0.00  0.00    +0.000 A 
ENDROOT
BRANCH   4   7
ATOM      7  C   UNL     1       1.945   3.889  17.998  0.00  0.00    +0.000 C 
ATOM      8  O   UNL     1       1.006   3.984  17.209  0.00  0.00    +0.000 OA
BRANCH   7   9
ATOM      9  C   UNL     1       1.771   3.040  19.253  0.00  0.00    +0.000 C 
ATOM     10  C   UNL     1       1.046   3.841  20.332  0.00  0.00    +0.000 C 
ATOM     11  C   UNL     1       1.406   3.051  21.573  0.00  0.00    +0.000 C 
ATOM     12  C   UNL     1       2.841   2.610  21.296  0.00  0.00    +0.000 C 
ATOM     13  N   UNL     1       3.057   2.738  19.853  0.00  0.00    +0.000 NA
ATOM     14  H   UNL     1       3.486   1.869  19.439  0.00  0.00    +0.000 HD
ENDBRANCH   7   9
ENDBRANCH   4   7
BRANCH   1  15
ATOM     15  C   UNL     1       6.972   6.415  16.625  0.00  0.00    +0.000 C 
BRANCH  15  16
ATOM     16  C   UNL     1       7.592   7.064  17.851  0.00  0.00    +0.000 C 
BRANCH  16  17
ATOM     17  C   UNL     1       7.899   8.532  17.604  0.00  0.00    +0.000 C 
BRANCH  17  18
ATOM     18  C   UNL     1       8.692   9.045  18.780  0.00  0.00    +0.000 C 
BRANCH  18  19
ATOM     19  C   UNL     1       9.170  10.460  18.503  0.00  0.00    +0.000 C 
BRANCH  19  20
ATOM     20  C   UNL     1       9.935  10.957  19.729  0.00  0.00    +0.000 C 
BRANCH  20  22
ATOM     21  C   UNL     1      11.281  13.106  19.851  0.00  0.00    +0.000 C 
ATOM     22  C   UNL     1      11.198  11.669  19.320  0.00  0.00    +0.000 C 
ENDBRANCH  20  22
ENDBRANCH  19  20
ENDBRANCH  18  19
ENDBRANCH  17  18
ENDBRANCH  16  17
ENDBRANCH  15  16
ENDBRANCH   1  15
TORSDOF 9
ENDMDL
MODEL 5
REMARK VINA RESULT:      -6.4      1.020      1.681
REMARK  Name = 
REMARK  10 active torsions:
REMARK  status: ('A' for Active; 'I' for Inactive)
REMARK    1  A    between atoms: C_1  and  C_2
REMARK    2  A    between atoms: C_2  and  C_3
REMARK    3  A    between atoms: C_3  and  C_4
REMARK    4  A    between atoms: C_4  and  C_5
REMARK    5  A    between atoms: C_5  and  C_6
REMARK    6  A    between atoms: C_6  and  C_7
REMARK    7  A    between atoms: C_7  and  C_8
REMARK    8  A    between atoms: C_8  and  C_9
REMARK    9  A    between atoms: C_12  and  C_13
REMARK   10  A    between atoms: C_13  and  C_15
REMARK                            x       y       z     vdW  Elec       q    Type
REMARK                         _______ _______ _______ _____ _____    ______ ____
ROOT
ATOM      1  C   UNL     1       3.618   5.766  19.197  0.00  0.00    +0.000 A 
ATOM      2  C   UNL     1       4.800   5.067  19.438  0.00  0.00    +0.000 A 
ATOM      3  C   UNL     1       5.824   5.049  18.505  0.00  0.00    +0.000 A 
ATOM      4  C   UNL     1       5.661   5.725  17.269  0.00  0.00    +0.000 A 
ATOM      5  C   UNL     1       4.464   6.419  17.021  0.00  0.00    +0.000 A 
ATOM      6  C   UNL     1       3.455   6.458  17.985  0.00  0.00    +0.000 A 
ENDROOT
BRANCH   4   7
ATOM      7  C   UNL     1       6.733   5.711  16.261  0.00  0.00    +0.000 C 
ATOM      8  O   UNL     1       7.617   6.565  16.317  0.00  0.00    +0.000 OA
BRANCH   7   9
ATOM      9  C   UNL     1       6.834   4.613  15.206  0.00  0.00    +0.000 C 
ATOM     10  C   UNL     1       7.395   5.184  13.907  0.00  0.00    +0.000 C 
ATOM     11  C   UNL     1       6.964   4.126  12.913  0.00  0.00    +0.000 C 
ATOM     12  C   UNL     1       5.594   3.700  13.436  0.00  0.00    +0.000 C 
ATOM     13  N   UNL     1       5.516   4.135  14.833  0.00  0.00    +0.000 NA
ATOM     14  H   UNL     1       5.186   3.363  15.469  0.00  0.00    +0.000 HD
ENDBRANCH   7   9
ENDBRANCH   4   7
BRANCH   1  15
ATOM     15  C   UNL     1       2.527   5.824  20.239  0.00  0.00    +0.000 C 
BRANCH  15  16
ATOM     16  C   UNL     1       1.423   4.841  19.888  0.00  0.00    +0.000 C 
BRANCH  16  17
ATOM     17  C   UNL     1       1.221   3.818  20.995  0.00  0.00    +0.000 C 
BRANCH  17  18
ATOM     18  C   UNL     1       2.304   2.775  20.865  0.00  0.00    +0.000 C 
BRANCH  18  19
ATOM     19  C   UNL     1       2.156   2.037  19.546  0.00  0.00    +0.000 C 
BRANCH  19  20
ATOM     20  C   UNL     1       3.549   1.828  18.954  0.00  0.00    +0.000 C 
BRANCH  20  22
ATOM     21  C   UNL     1       2.455   3.146  17.080  0.00  0.00    +0.000 C 
ATOM     22  C   UNL     1       3.560   2.161  17.484  0.00  0.00    +0.000 C 
ENDBRANCH  20  22
ENDBRANCH  19  20
ENDBRANCH  18  19
ENDBRANCH  17  18
ENDBRANCH  16  17
ENDBRANCH  15  16
ENDBRANCH   1  15
TORSDOF 9
ENDMDL
MODEL 6
REMARK VINA RESULT:      -6.4      2.962      7.137
REMARK  Name = 
REMARK  10 active torsions:
REMARK  status: ('A' for Active; 'I' for Inactive)
REMARK    1  A    between atoms: C_1  and  C_2
REMARK    2  A    between atoms: C_2  and  C_3
REMARK    3  A    between atoms: C_3  and  C_4
REMARK    4  A    between atoms: C_4  and  C_5
REMARK    5  A    between atoms: C_5  and  C_6
REMARK    6  A    between atoms: C_6  and  C_7
REMARK    7  A    between atoms: C_7  and  C_8
REMARK    8  A    between atoms: C_8  and  C_9
REMARK    9  A    between atoms: C_12  and  C_13
REMARK   10  A    between atoms: C_13  and  C_15
REMARK                            x       y       z     vdW  Elec       q    Type
REMARK                         _______ _______ _______ _____ _____    ______ ____
ROOT
ATOM      1  C   UNL     1       5.790   5.215  15.955  0.00  0.00    +0.000 A 
ATOM      2  C   UNL     1       5.683   6.293  16.832  0.00  0.00    +0.000 A 
ATOM      3  C   UNL     1       4.731   6.305  17.839  0.00  0.00    +0.000 A 
ATOM      4  C   UNL     1       3.827   5.219  17.965  0.00  0.00    +0.000 A 
ATOM      5  C   UNL     1       3.927   4.139  17.072  0.00  0.00    +0.000 A 
ATOM      6  C   UNL     1       4.915   4.124  16.085  0.00  0.00    +0.000 A 
ENDROOT
BRANCH   4   7
ATOM      7  C   UNL     1       2.803   5.217  19.021  0.00  0.00    +0.000 C 
ATOM      8  O   UNL     1       2.290   6.283  19.358  0.00  0.00    +0.000 OA
BRANCH   7   9
ATOM      9  C   UNL     1       2.289   3.922  19.644  0.00  0.00    +0.000 C 
ATOM     10  C   UNL     1       1.223   4.232  20.692  0.00  0.00    +0.000 C 
ATOM     11  C   UNL     1       1.217   2.945  21.491  0.00  0.00    +0.000 C 
ATOM     12  C   UNL     1       2.687   2.533  21.492  0.00  0.00    +0.000 C 
ATOM     13  N   UNL     1       3.337   3.263  20.401  0.00  0.00    +0.000 NA
ATOM     14  H   UNL     1       3.917   2.629  19.792  0.00  0.00    +0.000 HD
ENDBRANCH   7   9
ENDBRANCH   4   7
BRANCH   1  15
ATOM     15  C   UNL     1       6.863   5.185  14.893  0.00  0.00    +0.000 C 
BRANCH  15  16
ATOM     16  C   UNL     1       6.679   3.965  14.006  0.00  0.00    +0.000 C 
BRANCH  16  17
ATOM     17  C   UNL     1       7.020   4.278  12.558  0.00  0.00    +0.000 C 
BRANCH  17  18
ATOM     18  C   UNL     1       6.236   3.333  11.682  0.00  0.00    +0.000 C 
BRANCH  18  19
ATOM     19  C   UNL     1       4.782   3.306  12.121  0.00  0.00    +0.000 C 
BRANCH  19  20
ATOM     20  C   UNL     1       3.917   2.991  10.902  0.00  0.00    +0.000 C 
BRANCH  20  22
ATOM     21  C   UNL     1       2.895   4.217   8.928  0.00  0.00    +0.000 C 
ATOM     22  C   UNL     1       3.182   4.221  10.435  0.00  0.00    +0.000 C 
ENDBRANCH  20  22
ENDBRANCH  19  20
ENDBRANCH  18  19
ENDBRANCH  17  18
ENDBRANCH  16  17
ENDBRANCH  15  16
ENDBRANCH   1  15
TORSDOF 9
ENDMDL
MODEL 7
REMARK VINA RESULT:      -6.3      5.159      8.326
REMARK  Name = 
REMARK  10 active torsions:
REMARK  status: ('A' for Active; 'I' for Inactive)
REMARK    1  A    between atoms: C_1  and  C_2
REMARK    2  A    between atoms: C_2  and  C_3
REMARK    3  A    between atoms: C_3  and  C_4
REMARK    4  A    between atoms: C_4  and  C_5
REMARK    5  A    between atoms: C_5  and  C_6
REMARK    6  A    between atoms: C_6  and  C_7
REMARK    7  A    between atoms: C_7  and  C_8
REMARK    8  A    between atoms: C_8  and  C_9
REMARK    9  A    between atoms: C_12  and  C_13
REMARK   10  A    between atoms: C_13  and  C_15
REMARK                            x       y       z     vdW  Elec       q    Type
REMARK                         _______ _______ _______ _____ _____    ______ ____
ROOT
ATOM      1  C   UNL     1       6.980   6.942  17.706  0.00  0.00    +0.000 A 
ATOM      2  C   UNL     1       5.685   6.782  17.216  0.00  0.00    +0.000 A 
ATOM      3  C   UNL     1       4.851   5.791  17.708  0.00  0.00    +0.000 A 
ATOM      4  C   UNL     1       5.327   4.903  18.706  0.00  0.00    +0.000 A 
ATOM      5  C   UNL     1       6.637   5.056  19.191  0.00  0.00    +0.000 A 
ATOM      6  C   UNL     1       7.454   6.082  18.711  0.00  0.00    +0.000 A 
ENDROOT
BRANCH   4   7
ATOM      7  C   UNL     1       4.460   3.838  19.235  0.00  0.00    +0.000 C 
ATOM      8  O   UNL     1       4.976   2.867  19.787  0.00  0.00    +0.000 OA
BRANCH   7   9
ATOM      9  C   UNL     1       2.938   3.947  19.207  0.00  0.00    +0.000 C 
ATOM     10  C   UNL     1       2.434   4.577  20.502  0.00  0.00    +0.000 C 
ATOM     11  C   UNL     1       0.979   4.153  20.486  0.00  0.00    +0.000 C 
ATOM     12  C   UNL     1       1.037   2.751  19.883  0.00  0.00    +0.000 C 
ATOM     13  N   UNL     1       2.328   2.630  19.202  0.00  0.00    +0.000 NA
ATOM     14  H   UNL     1       2.225   2.252  18.224  0.00  0.00    +0.000 HD
ENDBRANCH   7   9
ENDBRANCH   4   7
BRANCH   1  15
ATOM     15  C   UNL     1       7.866   8.056  17.202  0.00  0.00    +0.000 C 
BRANCH  15  16
ATOM     16  C   UNL     1       8.426   8.843  18.375  0.00  0.00    +0.000 C 
BRANCH  16  17
ATOM     17  C   UNL     1       8.577  10.316  18.030  0.00  0.00    +0.000 C 
BRANCH  17  18
ATOM     18  C   UNL     1       9.856  10.811  18.658  0.00  0.00    +0.000 C 
BRANCH  18  19
ATOM     19  C   UNL     1       9.690  10.906  20.165  0.00  0.00    +0.000 C 
BRANCH  19  20
ATOM     20  C   UNL     1      10.624  11.997  20.684  0.00  0.00    +0.000 C 
BRANCH  20  22
ATOM     21  C   UNL     1      12.327  13.442  19.476  0.00  0.00    +0.000 C 
ATOM     22  C   UNL     1      11.905  12.026  19.890  0.00  0.00    +0.000 C 
ENDBRANCH  20  22
ENDBRANCH  19  20
ENDBRANCH  18  19
ENDBRANCH  17  18
ENDBRANCH  16  17
ENDBRANCH  15  16
ENDBRANCH   1  15
TORSDOF 9
ENDMDL
MODEL 8
REMARK VINA RESULT:      -6.3      1.361      1.526
REMARK  Name = 
REMARK  10 active torsions:
REMARK  status: ('A' for Active; 'I' for Inactive)
REMARK    1  A    between atoms: C_1  and  C_2
REMARK    2  A    between atoms: C_2  and  C_3
REMARK    3  A    between atoms: C_3  and  C_4
REMARK    4  A    between atoms: C_4  and  C_5
REMARK    5  A    between atoms: C_5  and  C_6
REMARK    6  A    between atoms: C_6  and  C_7
REMARK    7  A    between atoms: C_7  and  C_8
REMARK    8  A    between atoms: C_8  and  C_9
REMARK    9  A    between atoms: C_12  and  C_13
REMARK   10  A    between atoms: C_13  and  C_15
REMARK                            x       y       z     vdW  Elec       q    Type
REMARK                         _______ _______ _______ _____ _____    ______ ____
ROOT
ATOM      1  C   UNL     1       3.005   5.886  19.602  0.00  0.00    +0.000 A 
ATOM      2  C   UNL     1       2.790   6.776  18.551  0.00  0.00    +0.000 A 
ATOM      3  C   UNL     1       3.801   7.079  17.652  0.00  0.00    +0.000 A 
ATOM      4  C   UNL     1       5.085   6.501  17.818  0.00  0.00    +0.000 A 
ATOM      5  C   UNL     1       5.305   5.614  18.886  0.00  0.00    +0.000 A 
ATOM      6  C   UNL     1       4.267   5.289  19.762  0.00  0.00    +0.000 A 
ENDROOT
BRANCH   4   7
ATOM      7  C   UNL     1       6.175   6.818  16.881  0.00  0.00    +0.000 C 
ATOM      8  O   UNL     1       6.952   7.732  17.155  0.00  0.00    +0.000 OA
BRANCH   7   9
ATOM      9  C   UNL     1       6.428   5.986  15.627  0.00  0.00    +0.000 C 
ATOM     10  C   UNL     1       5.118   5.390  15.119  0.00  0.00    +0.000 C 
ATOM     11  C   UNL     1       5.630   4.269  14.238  0.00  0.00    +0.000 C 
ATOM     12  C   UNL     1       6.855   3.767  14.997  0.00  0.00    +0.000 C 
ATOM     13  N   UNL     1       7.240   4.823  15.936  0.00  0.00    +0.000 NA
ATOM     14  H   UNL     1       8.269   5.042  15.885  0.00  0.00    +0.000 HD
ENDBRANCH   7   9
ENDBRANCH   4   7
BRANCH   1  15
ATOM     15  C   UNL     1       1.885   5.520  20.547  0.00  0.00    +0.000 C 
BRANCH  15  16
ATOM     16  C   UNL     1       2.309   4.356  21.427  0.00  0.00    +0.000 C 
BRANCH  16  17
ATOM     17  C   UNL     1       1.476   3.116  21.144  0.00  0.00    +0.000 C 
BRANCH  17  18
ATOM     18  C   UNL     1       0.527   3.442  20.016  0.00  0.00    +0.000 C 
BRANCH  18  19
ATOM     19  C   UNL     1       0.711   2.448  18.883  0.00  0.00    +0.000 C 
BRANCH  19  20
ATOM     20  C   UNL     1       1.709   3.034  17.886  0.00  0.00    +0.000 C 
BRANCH  20  22
ATOM     21  C   UNL     1       4.193   2.681  17.501  0.00  0.00    +0.000 C 
ATOM     22  C   UNL     1       2.800   2.042  17.576  0.00  0.00    +0.000 C 
ENDBRANCH  20  22
ENDBRANCH  19  20
ENDBRANCH  18  19
ENDBRANCH  17  18
ENDBRANCH  16  17
ENDBRANCH  15  16
ENDBRANCH   1  15
TORSDOF 9
ENDMDL
MODEL 9
REMARK VINA RESULT:      -6.3      2.847      6.636
REMARK  Name = 
REMARK  10 active torsions:
REMARK  status: ('A' for Active; 'I' for Inactive)
REMARK    1  A    between atoms: C_1  and  C_2
REMARK    2  A    between atoms: C_2  and  C_3
REMARK    3  A    between atoms: C_3  and  C_4
REMARK    4  A    between atoms: C_4  and  C_5
REMARK    5  A    between atoms: C_5  and  C_6
REMARK    6  A    between atoms: C_6  and  C_7
REMARK    7  A    between atoms: C_7  and  C_8
REMARK    8  A    between atoms: C_8  and  C_9
REMARK    9  A    between atoms: C_12  and  C_13
REMARK   10  A    between atoms: C_13  and  C_15
REMARK                            x       y       z     vdW  Elec       q    Type
REMARK                         _______ _______ _______ _____ _____    ______ ____
ROOT
ATOM      1  C   UNL     1       5.807   5.950  17.361  0.00  0.00    +0.000 A 
ATOM      2  C   UNL     1       4.701   6.724  17.013  0.00  0.00    +0.000 A 
ATOM      3  C   UNL     1       3.573   6.764  17.817  0.00  0.00    +0.000 A 
ATOM      4  C   UNL     1       3.526   5.983  19.000  0.00  0.00    +0.000 A 
ATOM      5  C   UNL     1       4.635   5.192  19.344  0.00  0.00    +0.000 A 
ATOM      6  C   UNL     1       5.779   5.190  18.543  0.00  0.00    +0.000 A 
ENDROOT
BRANCH   4   7
ATOM      7  C   UNL     1       2.334   6.003  19.863  0.00  0.00    +0.000 C 
ATOM      8  O   UNL     1       1.929   7.081  20.297  0.00  0.00    +0.000 OA
BRANCH   7   9
ATOM      9  C   UNL     1       1.529   4.741  20.158  0.00  0.00    +0.000 C 
ATOM     10  C   UNL     1       2.110   4.021  21.372  0.00  0.00    +0.000 C 
ATOM     11  C   UNL     1       1.527   2.633  21.194  0.00  0.00    +0.000 C 
ATOM     12  C   UNL     1       1.545   2.444  19.679  0.00  0.00    +0.000 C 
ATOM     13  N   UNL     1       1.671   3.776  19.083  0.00  0.00    +0.000 NA
ATOM     14  H   UNL     1       0.962   3.937  18.320  0.00  0.00    +0.000 HD
ENDBRANCH   7   9
ENDBRANCH   4   7
BRANCH   1  15
ATOM     15  C   UNL     1       7.052   5.951  16.507  0.00  0.00    +0.000 C 
BRANCH  15  16
ATOM     16  C   UNL     1       7.042   4.751  15.576  0.00  0.00    +0.000 C 
BRANCH  16  17
ATOM     17  C   UNL     1       5.751   4.682  14.776  0.00  0.00    +0.000 C 
BRANCH  17  18
ATOM     18  C   UNL     1       6.005   3.832  13.556  0.00  0.00    +0.000 C 
BRANCH  18  19
ATOM     19  C   UNL     1       4.685   3.419  12.930  0.00  0.00    +0.000 C 
BRANCH  19  20
ATOM     20  C   UNL     1       4.821   3.518  11.411  0.00  0.00    +0.000 C 
BRANCH  20  22
ATOM     21  C   UNL     1       2.979   4.095   9.763  0.00  0.00    +0.000 C 
ATOM     22  C   UNL     1       3.560   3.054  10.729  0.00  0.00    +0.000 C 
ENDBRANCH  20  22
ENDBRANCH  19  20
ENDBRANCH  18  19
ENDBRANCH  17  18
ENDBRANCH  16  17
ENDBRANCH  15  16
ENDBRANCH   1  15
TORSDOF 9
ENDMDL
