MODEL 1
REMARK VINA RESULT:      -7.8      0.000      0.000
REMARK  Name = 
REMARK  9 active torsions:
REMARK  status: ('A' for Active; 'I' for Inactive)
REMARK    1  A    between atoms: C_1  and  S_2
REMARK    2  A    between atoms: S_2  and  C_3
REMARK    3  A    between atoms: C_8  and  O_9
REMARK    4  A    between atoms: O_9  and  C_10
REMARK    5  A    between atoms: C_10  and  C_11
REMARK    6  A    between atoms: C_13  and  C_14
REMARK    7  A    between atoms: N_19  and  C_20
REMARK    8  A    between atoms: C_20  and  C_21
REMARK    9  A    between atoms: N_25  and  C_26
REMARK                            x       y       z     vdW  Elec       q    Type
REMARK                         _______ _______ _______ _____ _____    ______ ____
ROOT
ATOM      1  C   UNL     1       8.416   8.823  18.452  0.00  0.00    +0.000 A 
ATOM      2  C   UNL     1       7.825   8.332  17.318  0.00  0.00    +0.000 A 
ATOM      3  C   UNL     1       7.700   6.937  17.557  0.00  0.00    +0.000 A 
ATOM      4  N   UNL     1       8.281   6.610  18.723  0.00  0.00    +0.000 NA
ATOM      5  O   UNL     1       8.694   7.792  19.293  0.00  0.00    +0.000 OA
ENDROOT
BRANCH   3   6
ATOM      6  C   UNL     1       7.070   5.958  16.664  0.00  0.00    +0.000 C 
ATOM      7  O   UNL     1       7.503   5.816  15.521  0.00  0.00    +0.000 OA
ATOM      8  N   UNL     1       5.950   5.247  17.112  0.00  0.00    +0.000 N 
ATOM      9  C   UNL     1       5.299   5.410  18.419  0.00  0.00    +0.000 C 
ATOM     10  C   UNL     1       3.766   5.230  18.356  0.00  0.00    +0.000 C 
ATOM     11  N   UNL     1       3.284   4.054  17.598  0.00  0.00    +0.000 NA
ATOM     12  C   UNL     1       3.945   4.059  16.271  0.00  0.00    +0.000 C 
ATOM     13  C   UNL     1       5.480   4.113  16.315  0.00  0.00    +0.000 C 
BRANCH  11  14
ATOM     14  C   UNL     1       3.540   2.818  18.363  0.00  0.00    +0.000 C 
BRANCH  14  15
ATOM     15  C   UNL     1       2.842   2.762  19.691  0.00  0.00    +0.000 A 
ATOM     16  N   UNL     1       3.455   2.788  20.862  0.00  0.00    +0.000 NA
ATOM     17  C   UNL     1       2.466   2.746  21.805  0.00  0.00    +0.000 A 
ATOM     18  C   UNL     1       1.232   2.683  21.212  0.00  0.00    +0.000 A 
ATOM     19  N   UNL     1       1.480   2.675  19.866  0.00  0.00    +0.000 N 
ATOM     20  C   UNL     1       0.472   2.574  18.840  0.00  0.00    +0.000 C 
ENDBRANCH  14  15
ENDBRANCH  11  14
ENDBRANCH   3   6
BRANCH   1  21
ATOM     21  C   UNL     1       8.782  10.164  18.948  0.00  0.00    +0.000 C 
BRANCH  21  22
ATOM     22  O   UNL     1       9.041  10.951  17.790  0.00  0.00    +0.000 OA
BRANCH  22  28
ATOM     23  C   UNL     1       9.456  13.387  18.081  0.00  0.00    +0.000 A 
ATOM     24  C   UNL     1      10.449  14.356  18.293  0.00  0.00    +0.000 A 
ATOM     25  C   UNL     1      11.797  14.009  18.398  0.00  0.00    +0.000 A 
ATOM     26  C   UNL     1      12.177  12.679  18.295  0.00  0.00    +0.000 A 
ATOM     27  C   UNL     1      11.207  11.701  18.083  0.00  0.00    +0.000 A 
ATOM     28  C   UNL     1       9.848  12.043  17.957  0.00  0.00    +0.000 A 
BRANCH  23  30
ATOM     29  C   UNL     1       8.097  15.814  17.850  0.00  0.00    +0.000 C 
ATOM     30  S   UNL     1       7.785  14.031  17.982  0.00  0.00    +0.000 S 
ENDBRANCH  23  30
ENDBRANCH  22  28
ENDBRANCH  21  22
ENDBRANCH   1  21
TORSDOF 7
ENDMDL
MODEL 2
REMARK VINA RESULT:      -7.6      1.296      1.363
REMARK  Name = 
REMARK  9 active torsions:
REMARK  status: ('A' for Active; 'I' for Inactive)
REMARK    1  A    between atoms: C_1  and  S_2
REMARK    2  A    between atoms: S_2  and  C_3
REMARK    3  A    between atoms: C_8  and  O_9
REMARK    4  A    between atoms: O_9  and  C_10
REMARK    5  A    between atoms: C_10  and  C_11
REMARK    6  A    between atoms: C_13  and  C_14
REMARK    7  A    between atoms: N_19  and  C_20
REMARK    8  A    between atoms: C_20  and  C_21
REMARK    9  A    between atoms: N_25  and  C_26
REMARK                            x       y       z     vdW  Elec       q    Type
REMARK                         _______ _______ _______ _____ _____    ______ ____
ROOT
ATOM      1  C   UNL     1       8.352   9.011  18.362  0.00  0.00    +0.000 A 
ATOM      2  C   UNL     1       7.783   8.439  17.255  0.00  0.00    +0.000 A 
ATOM      3  C   UNL     1       7.731   7.052  17.558  0.00  0.00    +0.000 A 
ATOM      4  N   UNL     1       8.333   6.809  18.735  0.00  0.00    +0.000 NA
ATOM      5  O   UNL     1       8.686   8.036  19.248  0.00  0.00    +0.000 OA
ENDROOT
BRANCH   3   6
ATOM      6  C   UNL     1       7.151   6.001  16.715  0.00  0.00    +0.000 C 
ATOM      7  O   UNL     1       7.611   5.806  15.590  0.00  0.00    +0.000 OA
ATOM      8  N   UNL     1       6.044   5.283  17.184  0.00  0.00    +0.000 N 
ATOM      9  C   UNL     1       5.362   5.502  18.468  0.00  0.00    +0.000 C 
ATOM     10  C   UNL     1       3.837   5.270  18.388  0.00  0.00    +0.000 C 
ATOM     11  N   UNL     1       3.408   4.036  17.693  0.00  0.00    +0.000 NA
ATOM     12  C   UNL     1       4.094   3.983  16.380  0.00  0.00    +0.000 C 
ATOM     13  C   UNL     1       5.625   4.089  16.449  0.00  0.00    +0.000 C 
BRANCH  11  14
ATOM     14  C   UNL     1       3.687   2.857  18.535  0.00  0.00    +0.000 C 
BRANCH  14  15
ATOM     15  C   UNL     1       2.880   2.801  19.800  0.00  0.00    +0.000 A 
ATOM     16  N   UNL     1       3.389   2.884  21.019  0.00  0.00    +0.000 NA
ATOM     17  C   UNL     1       2.326   2.820  21.875  0.00  0.00    +0.000 A 
ATOM     18  C   UNL     1       1.150   2.686  21.182  0.00  0.00    +0.000 A 
ATOM     19  N   UNL     1       1.513   2.655  19.862  0.00  0.00    +0.000 N 
ATOM     20  C   UNL     1       0.602   2.482  18.758  0.00  0.00    +0.000 C 
ENDBRANCH  14  15
ENDBRANCH  11  14
ENDBRANCH   3   6
BRANCH   1  21
ATOM     21  C   UNL     1       8.649  10.391  18.794  0.00  0.00    +0.000 C 
BRANCH  21  22
ATOM     22  O   UNL     1      10.043  10.417  19.088  0.00  0.00    +0.000 OA
BRANCH  22  28
ATOM     23  C   UNL     1      10.521  12.661  20.050  0.00  0.00    +0.000 A 
ATOM     24  C   UNL     1      11.270  13.836  19.883  0.00  0.00    +0.000 A 
ATOM     25  C   UNL     1      12.137  14.002  18.801  0.00  0.00    +0.000 A 
ATOM     26  C   UNL     1      12.272  12.987  17.864  0.00  0.00    +0.000 A 
ATOM     27  C   UNL     1      11.537  11.813  18.011  0.00  0.00    +0.000 A 
ATOM     28  C   UNL     1      10.647  11.644  19.088  0.00  0.00    +0.000 A 
BRANCH  23  30
ATOM     29  C   UNL     1       9.696  14.326  22.134  0.00  0.00    +0.000 C 
ATOM     30  S   UNL     1       9.473  12.637  21.505  0.00  0.00    +0.000 S 
ENDBRANCH  23  30
ENDBRANCH  22  28
ENDBRANCH  21  22
ENDBRANCH   1  21
TORSDOF 7
ENDMDL
MODEL 3
REMARK VINA RESULT:      -7.2      0.623      1.147
REMARK  Name = 
REMARK  9 active torsions:
REMARK  status: ('A' for Active; 'I' for Inactive)
REMARK    1  A    between atoms: C_1  and  S_2
REMARK    2  A    between atoms: S_2  and  C_3
REMARK    3  A    between atoms: C_8  and  O_9
REMARK    4  A    between atoms: O_9  and  C_10
REMARK    5  A    between atoms: C_10  and  C_11
REMARK    6  A    between atoms: C_13  and  C_14
REMARK    7  A    between atoms: N_19  and  C_20
REMARK    8  A    between atoms: C_20  and  C_21
REMARK    9  A    between atoms: N_25  and  C_26
REMARK                            x       y       z     vdW  Elec       q    Type
REMARK                         _______ _______ _______ _____ _____    ______ ____
ROOT
ATOM      1  C   UNL     1       8.521   8.706  18.544  0.00  0.00    +0.000 A 
ATOM      2  C   UNL     1       7.916   8.293  17.386  0.00  0.00    +0.000 A 
ATOM      3  C   UNL     1       7.698   6.901  17.576  0.00  0.00    +0.000 A 
ATOM      4  N   UNL     1       8.240   6.499  18.738  0.00  0.00    +0.000 NA
ATOM      5  O   UNL     1       8.719   7.632  19.353  0.00  0.00    +0.000 OA
ENDROOT
BRANCH   3   6
ATOM      6  C   UNL     1       7.021   5.995  16.643  0.00  0.00    +0.000 C 
ATOM      7  O   UNL     1       7.456   5.871  15.497  0.00  0.00    +0.000 OA
ATOM      8  N   UNL     1       5.857   5.335  17.054  0.00  0.00    +0.000 N 
ATOM      9  C   UNL     1       5.204   5.486  18.363  0.00  0.00    +0.000 C 
ATOM     10  C   UNL     1       3.664   5.400  18.282  0.00  0.00    +0.000 C 
ATOM     11  N   UNL     1       3.122   4.283  17.477  0.00  0.00    +0.000 NA
ATOM     12  C   UNL     1       3.793   4.299  16.155  0.00  0.00    +0.000 C 
ATOM     13  C   UNL     1       5.328   4.261  16.212  0.00  0.00    +0.000 C 
BRANCH  11  14
ATOM     14  C   UNL     1       3.298   3.007  18.196  0.00  0.00    +0.000 C 
BRANCH  14  15
ATOM     15  C   UNL     1       2.651   2.971  19.550  0.00  0.00    +0.000 A 
ATOM     16  N   UNL     1       1.432   3.411  19.811  0.00  0.00    +0.000 NA
ATOM     17  C   UNL     1       1.222   3.170  21.140  0.00  0.00    +0.000 A 
ATOM     18  C   UNL     1       2.325   2.586  21.709  0.00  0.00    +0.000 A 
ATOM     19  N   UNL     1       3.238   2.479  20.694  0.00  0.00    +0.000 N 
ATOM     20  C   UNL     1       4.574   1.956  20.836  0.00  0.00    +0.000 C 
ENDBRANCH  14  15
ENDBRANCH  11  14
ENDBRANCH   3   6
BRANCH   1  21
ATOM     21  C   UNL     1       8.964  10.003  19.090  0.00  0.00    +0.000 C 
BRANCH  21  22
ATOM     22  O   UNL     1       8.690  10.967  18.078  0.00  0.00    +0.000 OA
BRANCH  22  28
ATOM     23  C   UNL     1       9.312  13.359  18.363  0.00  0.00    +0.000 A 
ATOM     24  C   UNL     1      10.355  14.289  18.230  0.00  0.00    +0.000 A 
ATOM     25  C   UNL     1      11.613  13.912  17.754  0.00  0.00    +0.000 A 
ATOM     26  C   UNL     1      11.850  12.590  17.404  0.00  0.00    +0.000 A 
ATOM     27  C   UNL     1      10.827  11.652  17.528  0.00  0.00    +0.000 A 
ATOM     28  C   UNL     1       9.552  12.025  17.989  0.00  0.00    +0.000 A 
BRANCH  23  30
ATOM     29  C   UNL     1       7.267  15.111  17.627  0.00  0.00    +0.000 C 
ATOM     30  S   UNL     1       7.778  14.036  18.998  0.00  0.00    +0.000 S 
ENDBRANCH  23  30
ENDBRANCH  22  28
ENDBRANCH  21  22
ENDBRANCH   1  21
TORSDOF 7
ENDMDL
MODEL 4
REMARK VINA RESULT:      -7.1      6.136      8.589
REMARK  Name = 
REMARK  9 active torsions:
REMARK  status: ('A' for Active; 'I' for Inactive)
REMARK    1  A    between atoms: C_1  and  S_2
REMARK    2  A    between atoms: S_2  and  C_3
REMARK    3  A    between atoms: C_8  and  O_9
REMARK    4  A    between atoms: O_9  and  C_10
REMARK    5  A    between atoms: C_10  and  C_11
REMARK    6  A    between atoms: C_13  and  C_14
REMARK    7  A    between atoms: N_19  and  C_20
REMARK    8  A    between atoms: C_20  and  C_21
REMARK    9  A    between atoms: N_25  and  C_26
REMARK                            x       y       z     vdW  Elec       q    Type
REMARK                         _______ _______ _______ _____ _____    ______ ____
ROOT
ATOM      1  C   UNL     1       3.387   5.010  18.788  0.00  0.00    +0.000 A 
ATOM      2  C   UNL     1       3.564   6.360  18.938  0.00  0.00    +0.000 A 
ATOM      3  C   UNL     1       2.384   6.936  18.396  0.00  0.00    +0.000 A 
ATOM      4  N   UNL     1       1.603   5.982  17.861  0.00  0.00    +0.000 NA
ATOM      5  O   UNL     1       2.215   4.782  18.139  0.00  0.00    +0.000 OA
ENDROOT
BRANCH   3   6
ATOM      6  C   UNL     1       2.050   8.364  18.369  0.00  0.00    +0.000 C 
ATOM      7  O   UNL     1       2.324   9.030  17.370  0.00  0.00    +0.000 OA
ATOM      8  N   UNL     1       1.480   8.955  19.503  0.00  0.00    +0.000 N 
ATOM      9  C   UNL     1       1.201   8.272  20.775  0.00  0.00    +0.000 C 
ATOM     10  C   UNL     1       1.407   9.182  22.006  0.00  0.00    +0.000 C 
ATOM     11  N   UNL     1       0.811  10.533  21.916  0.00  0.00    +0.000 NA
ATOM     12  C   UNL     1       1.243  11.145  20.637  0.00  0.00    +0.000 C 
ATOM     13  C   UNL     1       0.935  10.307  19.386  0.00  0.00    +0.000 C 
BRANCH  11  14
ATOM     14  C   UNL     1      -0.657  10.450  22.047  0.00  0.00    +0.000 C 
BRANCH  14  15
ATOM     15  C   UNL     1      -1.330  11.772  22.275  0.00  0.00    +0.000 A 
ATOM     16  N   UNL     1      -1.321  12.430  23.422  0.00  0.00    +0.000 NA
ATOM     17  C   UNL     1      -2.016  13.585  23.197  0.00  0.00    +0.000 A 
ATOM     18  C   UNL     1      -2.467  13.638  21.904  0.00  0.00    +0.000 A 
ATOM     19  N   UNL     1      -2.043  12.471  21.328  0.00  0.00    +0.000 N 
ATOM     20  C   UNL     1      -2.325  12.068  19.973  0.00  0.00    +0.000 C 
ENDBRANCH  14  15
ENDBRANCH  11  14
ENDBRANCH   3   6
BRANCH   1  21
ATOM     21  C   UNL     1       4.143   3.803  19.176  0.00  0.00    +0.000 C 
BRANCH  21  22
ATOM     22  O   UNL     1       5.519   4.142  19.034  0.00  0.00    +0.000 OA
BRANCH  22  28
ATOM     23  C   UNL     1       6.912   5.401  17.401  0.00  0.00    +0.000 A 
ATOM     24  C   UNL     1       7.244   5.524  16.044  0.00  0.00    +0.000 A 
ATOM     25  C   UNL     1       6.655   4.713  15.071  0.00  0.00    +0.000 A 
ATOM     26  C   UNL     1       5.720   3.758  15.444  0.00  0.00    +0.000 A 
ATOM     27  C   UNL     1       5.375   3.621  16.788  0.00  0.00    +0.000 A 
ATOM     28  C   UNL     1       5.950   4.445  17.772  0.00  0.00    +0.000 A 
BRANCH  23  30
ATOM     29  C   UNL     1       7.702   8.074  17.549  0.00  0.00    +0.000 C 
ATOM     30  S   UNL     1       7.782   6.526  18.494  0.00  0.00    +0.000 S 
ENDBRANCH  23  30
ENDBRANCH  22  28
ENDBRANCH  21  22
ENDBRANCH   1  21
TORSDOF 7
ENDMDL
MODEL 5
REMARK VINA RESULT:      -7.1      1.607      2.038
REMARK  Name = 
REMARK  9 active torsions:
REMARK  status: ('A' for Active; 'I' for Inactive)
REMARK    1  A    between atoms: C_1  and  S_2
REMARK    2  A    between atoms: S_2  and  C_3
REMARK    3  A    between atoms: C_8  and  O_9
REMARK    4  A    between atoms: O_9  and  C_10
REMARK    5  A    between atoms: C_10  and  C_11
REMARK    6  A    between atoms: C_13  and  C_14
REMARK    7  A    between atoms: N_19  and  C_20
REMARK    8  A    between atoms: C_20  and  C_21
REMARK    9  A    between atoms: N_25  and  C_26
REMARK                            x       y       z     vdW  Elec       q    Type
REMARK                         _______ _______ _______ _____ _____    ______ ____
ROOT
ATOM      1  C   UNL     1       9.014   9.552  18.533  0.00  0.00    +0.000 A 
ATOM      2  C   UNL     1       8.677   8.460  19.289  0.00  0.00    +0.000 A 
ATOM      3  C   UNL     1       8.004   7.596  18.383  0.00  0.00    +0.000 A 
ATOM      4  N   UNL     1       7.862   8.193  17.188  0.00  0.00    +0.000 NA
ATOM      5  O   UNL     1       8.524   9.395  17.276  0.00  0.00    +0.000 OA
ENDROOT
BRANCH   3   6
ATOM      6  C   UNL     1       7.489   6.256  18.685  0.00  0.00    +0.000 C 
ATOM      7  O   UNL     1       8.232   5.426  19.209  0.00  0.00    +0.000 OA
ATOM      8  N   UNL     1       6.179   5.928  18.314  0.00  0.00    +0.000 N 
ATOM      9  C   UNL     1       5.245   6.811  17.601  0.00  0.00    +0.000 C 
ATOM     10  C   UNL     1       4.326   6.051  16.619  0.00  0.00    +0.000 C 
ATOM     11  N   UNL     1       3.692   4.823  17.149  0.00  0.00    +0.000 NA
ATOM     12  C   UNL     1       4.751   3.982  17.756  0.00  0.00    +0.000 C 
ATOM     13  C   UNL     1       5.599   4.686  18.826  0.00  0.00    +0.000 C 
BRANCH  11  14
ATOM     14  C   UNL     1       2.621   5.175  18.101  0.00  0.00    +0.000 C 
BRANCH  14  15
ATOM     15  C   UNL     1       1.904   3.992  18.683  0.00  0.00    +0.000 A 
ATOM     16  N   UNL     1       1.274   3.072  17.972  0.00  0.00    +0.000 NA
ATOM     17  C   UNL     1       0.787   2.168  18.873  0.00  0.00    +0.000 A 
ATOM     18  C   UNL     1       1.109   2.537  20.154  0.00  0.00    +0.000 A 
ATOM     19  N   UNL     1       1.804   3.709  20.026  0.00  0.00    +0.000 N 
ATOM     20  C   UNL     1       2.312   4.493  21.125  0.00  0.00    +0.000 C 
ENDBRANCH  14  15
ENDBRANCH  11  14
ENDBRANCH   3   6
BRANCH   1  21
ATOM     21  C   UNL     1       9.777  10.794  18.768  0.00  0.00    +0.000 C 
BRANCH  21  22
ATOM     22  O   UNL     1       9.041  11.831  18.128  0.00  0.00    +0.000 OA
BRANCH  22  28
ATOM     23  C   UNL     1       9.404  14.293  18.159  0.00  0.00    +0.000 A 
ATOM     24  C   UNL     1      10.277  15.321  17.771  0.00  0.00    +0.000 A 
ATOM     25  C   UNL     1      11.456  15.052  17.073  0.00  0.00    +0.000 A 
ATOM     26  C   UNL     1      11.784  13.743  16.750  0.00  0.00    +0.000 A 
ATOM     27  C   UNL     1      10.929  12.707  17.125  0.00  0.00    +0.000 A 
ATOM     28  C   UNL     1       9.731  12.970  17.813  0.00  0.00    +0.000 A 
BRANCH  23  30
ATOM     29  C   UNL     1       6.667  14.687  17.777  0.00  0.00    +0.000 C 
ATOM     30  S   UNL     1       7.949  14.840  19.054  0.00  0.00    +0.000 S 
ENDBRANCH  23  30
ENDBRANCH  22  28
ENDBRANCH  21  22
ENDBRANCH   1  21
TORSDOF 7
ENDMDL
MODEL 6
REMARK VINA RESULT:      -7.0      6.478     11.283
REMARK  Name = 
REMARK  9 active torsions:
REMARK  status: ('A' for Active; 'I' for Inactive)
REMARK    1  A    between atoms: C_1  and  S_2
REMARK    2  A    between atoms: S_2  and  C_3
REMARK    3  A    between atoms: C_8  and  O_9
REMARK    4  A    between atoms: O_9  and  C_10
REMARK    5  A    between atoms: C_10  and  C_11
REMARK    6  A    between atoms: C_13  and  C_14
REMARK    7  A    between atoms: N_19  and  C_20
REMARK    8  A    between atoms: C_20  and  C_21
REMARK    9  A    between atoms: N_25  and  C_26
REMARK                            x       y       z     vdW  Elec       q    Type
REMARK                         _______ _______ _______ _____ _____    ______ ____
ROOT
ATOM      1  C   UNL     1       1.799   8.268  19.071  0.00  0.00    +0.000 A 
ATOM      2  C   UNL     1       1.100   9.306  18.515  0.00  0.00    +0.000 A 
ATOM      3  C   UNL     1       0.618  10.046  19.628  0.00  0.00    +0.000 A 
ATOM      4  N   UNL     1       0.928   9.419  20.775  0.00  0.00    +0.000 NA
ATOM      5  O   UNL     1       1.694   8.331  20.424  0.00  0.00    +0.000 OA
ENDROOT
BRANCH   3   6
ATOM      6  C   UNL     1      -0.147  11.297  19.572  0.00  0.00    +0.000 C 
ATOM      7  O   UNL     1      -1.378  11.253  19.569  0.00  0.00    +0.000 OA
ATOM      8  N   UNL     1       0.538  12.513  19.463  0.00  0.00    +0.000 N 
ATOM      9  C   UNL     1       1.996  12.668  19.363  0.00  0.00    +0.000 C 
ATOM     10  C   UNL     1       2.417  13.842  18.453  0.00  0.00    +0.000 C 
ATOM     11  N   UNL     1       1.701  15.118  18.672  0.00  0.00    +0.000 NA
ATOM     12  C   UNL     1       0.245  14.838  18.658  0.00  0.00    +0.000 C 
ATOM     13  C   UNL     1      -0.212  13.755  19.647  0.00  0.00    +0.000 C 
BRANCH  11  14
ATOM     14  C   UNL     1       2.153  15.744  19.929  0.00  0.00    +0.000 C 
BRANCH  14  15
ATOM     15  C   UNL     1       3.596  16.157  19.925  0.00  0.00    +0.000 A 
ATOM     16  N   UNL     1       4.102  17.111  19.161  0.00  0.00    +0.000 NA
ATOM     17  C   UNL     1       5.428  17.187  19.483  0.00  0.00    +0.000 A 
ATOM     18  C   UNL     1       5.748  16.265  20.447  0.00  0.00    +0.000 A 
ATOM     19  N   UNL     1       4.581  15.600  20.709  0.00  0.00    +0.000 N 
ATOM     20  C   UNL     1       4.445  14.505  21.636  0.00  0.00    +0.000 C 
ENDBRANCH  14  15
ENDBRANCH  11  14
ENDBRANCH   3   6
BRANCH   1  21
ATOM     21  C   UNL     1       2.622   7.159  18.549  0.00  0.00    +0.000 C 
BRANCH  21  22
ATOM     22  O   UNL     1       3.035   6.409  19.687  0.00  0.00    +0.000 OA
BRANCH  22  28
ATOM     23  C   UNL     1       3.501   4.013  19.207  0.00  0.00    +0.000 A 
ATOM     24  C   UNL     1       3.010   2.706  19.351  0.00  0.00    +0.000 A 
ATOM     25  C   UNL     1       1.787   2.450  19.975  0.00  0.00    +0.000 A 
ATOM     26  C   UNL     1       1.031   3.503  20.468  0.00  0.00    +0.000 A 
ATOM     27  C   UNL     1       1.500   4.809  20.335  0.00  0.00    +0.000 A 
ATOM     28  C   UNL     1       2.722   5.078  19.692  0.00  0.00    +0.000 A 
BRANCH  23  30
ATOM     29  C   UNL     1       4.587   4.290  16.651  0.00  0.00    +0.000 C 
ATOM     30  S   UNL     1       5.092   4.133  18.388  0.00  0.00    +0.000 S 
ENDBRANCH  23  30
ENDBRANCH  22  28
ENDBRANCH  21  22
ENDBRANCH   1  21
TORSDOF 7
ENDMDL
MODEL 7
REMARK VINA RESULT:      -7.0      6.239     11.180
REMARK  Name = 
REMARK  9 active torsions:
REMARK  status: ('A' for Active; 'I' for Inactive)
REMARK    1  A    between atoms: C_1  and  S_2
REMARK    2  A    between atoms: S_2  and  C_3
REMARK    3  A    between atoms: C_8  and  O_9
REMARK    4  A    between atoms: O_9  and  C_10
REMARK    5  A    between atoms: C_10  and  C_11
REMARK    6  A    between atoms: C_13  and  C_14
REMARK    7  A    between atoms: N_19  and  C_20
REMARK    8  A    between atoms: C_20  and  C_21
REMARK    9  A    between atoms: N_25  and  C_26
REMARK                            x       y       z     vdW  Elec       q    Type
REMARK                         _______ _______ _______ _____ _____    ______ ____
ROOT
ATOM      1  C   UNL     1       2.093   8.085  18.925  0.00  0.00    +0.000 A 
ATOM      2  C   UNL     1       1.365   8.995  19.646  0.00  0.00    +0.000 A 
ATOM      3  C   UNL     1       1.055  10.021  18.714  0.00  0.00    +0.000 A 
ATOM      4  N   UNL     1       1.657   9.779  17.537  0.00  0.00    +0.000 NA
ATOM      5  O   UNL     1       2.272   8.555  17.663  0.00  0.00    +0.000 OA
ENDROOT
BRANCH   3   6
ATOM      6  C   UNL     1       0.235  11.209  18.973  0.00  0.00    +0.000 C 
ATOM      7  O   UNL     1      -0.988  11.092  19.064  0.00  0.00    +0.000 OA
ATOM      8  N   UNL     1       0.853  12.463  19.052  0.00  0.00    +0.000 N 
ATOM      9  C   UNL     1       2.288  12.723  18.864  0.00  0.00    +0.000 C 
ATOM     10  C   UNL     1       2.570  14.076  18.174  0.00  0.00    +0.000 C 
ATOM     11  N   UNL     1       1.823  15.238  18.703  0.00  0.00    +0.000 NA
ATOM     12  C   UNL     1       0.386  14.878  18.755  0.00  0.00    +0.000 C 
ATOM     13  C   UNL     1       0.071  13.597  19.543  0.00  0.00    +0.000 C 
BRANCH  11  14
ATOM     14  C   UNL     1       2.364  15.634  20.018  0.00  0.00    +0.000 C 
BRANCH  14  15
ATOM     15  C   UNL     1       3.790  16.099  19.980  0.00  0.00    +0.000 A 
ATOM     16  N   UNL     1       4.235  17.097  19.233  0.00  0.00    +0.000 NA
ATOM     17  C   UNL     1       5.568  17.210  19.513  0.00  0.00    +0.000 A 
ATOM     18  C   UNL     1       5.954  16.270  20.433  0.00  0.00    +0.000 A 
ATOM     19  N   UNL     1       4.821  15.553  20.711  0.00  0.00    +0.000 N 
ATOM     20  C   UNL     1       4.756  14.423  21.603  0.00  0.00    +0.000 C 
ENDBRANCH  14  15
ENDBRANCH  11  14
ENDBRANCH   3   6
BRANCH   1  21
ATOM     21  C   UNL     1       2.679   6.758  19.198  0.00  0.00    +0.000 C 
BRANCH  21  22
ATOM     22  O   UNL     1       2.669   6.063  17.956  0.00  0.00    +0.000 OA
BRANCH  22  28
ATOM     23  C   UNL     1       3.924   3.915  17.897  0.00  0.00    +0.000 A 
ATOM     24  C   UNL     1       3.807   2.523  18.032  0.00  0.00    +0.000 A 
ATOM     25  C   UNL     1       2.576   1.917  18.293  0.00  0.00    +0.000 A 
ATOM     26  C   UNL     1       1.437   2.697  18.426  0.00  0.00    +0.000 A 
ATOM     27  C   UNL     1       1.532   4.081  18.295  0.00  0.00    +0.000 A 
ATOM     28  C   UNL     1       2.763   4.700  18.013  0.00  0.00    +0.000 A 
BRANCH  23  30
ATOM     29  C   UNL     1       5.829   3.957  15.856  0.00  0.00    +0.000 C 
ATOM     30  S   UNL     1       5.587   4.502  17.571  0.00  0.00    +0.000 S 
ENDBRANCH  23  30
ENDBRANCH  22  28
ENDBRANCH  21  22
ENDBRANCH   1  21
TORSDOF 7
ENDMDL
MODEL 8
REMARK VINA RESULT:      -7.0      8.243     10.957
REMARK  Name = 
REMARK  9 active torsions:
REMARK  status: ('A' for Active; 'I' for Inactive)
REMARK    1  A    between atoms: C_1  and  S_2
REMARK    2  A    between atoms: S_2  and  C_3
REMARK    3  A    between atoms: C_8  and  O_9
REMARK    4  A    between atoms: O_9  and  C_10
REMARK    5  A    between atoms: C_10  and  C_11
REMARK    6  A    between atoms: C_13  and  C_14
REMARK    7  A    between atoms: N_19  and  C_20
REMARK    8  A    between atoms: C_20  and  C_21
REMARK    9  A    between atoms: N_25  and  C_26
REMARK                            x       y       z     vdW  Elec       q    Type
REMARK                         _______ _______ _______ _____ _____    ______ ____
ROOT
ATOM      1  C   UNL     1       2.268   8.213  18.267  0.00  0.00    +0.000 A 
ATOM      2  C   UNL     1       1.064   8.554  18.825  0.00  0.00    +0.000 A 
ATOM      3  C   UNL     1       0.803   9.862  18.336  0.00  0.00    +0.000 A 
ATOM      4  N   UNL     1       1.846  10.306  17.615  0.00  0.00    +0.000 NA
ATOM      5  O   UNL     1       2.739   9.263  17.546  0.00  0.00    +0.000 OA
ENDROOT
BRANCH   3   6
ATOM      6  C   UNL     1      -0.401  10.660  18.594  0.00  0.00    +0.000 C 
ATOM      7  O   UNL     1      -1.338  10.614  17.797  0.00  0.00    +0.000 OA
ATOM      8  N   UNL     1      -0.435  11.505  19.710  0.00  0.00    +0.000 N 
ATOM      9  C   UNL     1       0.663  11.704  20.667  0.00  0.00    +0.000 C 
ATOM     10  C   UNL     1       0.742  13.150  21.202  0.00  0.00    +0.000 C 
ATOM     11  N   UNL     1      -0.538  13.748  21.639  0.00  0.00    +0.000 NA
ATOM     12  C   UNL     1      -1.529  13.562  20.552  0.00  0.00    +0.000 C 
ATOM     13  C   UNL     1      -1.712  12.108  20.089  0.00  0.00    +0.000 C 
BRANCH  11  14
ATOM     14  C   UNL     1      -0.968  13.148  22.917  0.00  0.00    +0.000 C 
BRANCH  14  15
ATOM     15  C   UNL     1      -1.511  14.136  23.908  0.00  0.00    +0.000 A 
ATOM     16  N   UNL     1      -0.791  15.071  24.507  0.00  0.00    +0.000 NA
ATOM     17  C   UNL     1      -1.662  15.765  25.299  0.00  0.00    +0.000 A 
ATOM     18  C   UNL     1      -2.929  15.250  25.197  0.00  0.00    +0.000 A 
ATOM     19  N   UNL     1      -2.821  14.201  24.324  0.00  0.00    +0.000 N 
ATOM     20  C   UNL     1      -3.904  13.329  23.943  0.00  0.00    +0.000 C 
ENDBRANCH  14  15
ENDBRANCH  11  14
ENDBRANCH   3   6
BRANCH   1  21
ATOM     21  C   UNL     1       3.115   7.004  18.260  0.00  0.00    +0.000 C 
BRANCH  21  22
ATOM     22  O   UNL     1       2.220   5.900  18.174  0.00  0.00    +0.000 OA
BRANCH  22  28
ATOM     23  C   UNL     1       3.431   3.829  18.833  0.00  0.00    +0.000 A 
ATOM     24  C   UNL     1       3.555   2.851  19.832  0.00  0.00    +0.000 A 
ATOM     25  C   UNL     1       2.762   2.877  20.981  0.00  0.00    +0.000 A 
ATOM     26  C   UNL     1       1.828   3.888  21.152  0.00  0.00    +0.000 A 
ATOM     27  C   UNL     1       1.688   4.869  20.171  0.00  0.00    +0.000 A 
ATOM     28  C   UNL     1       2.469   4.841  19.002  0.00  0.00    +0.000 A 
BRANCH  23  30
ATOM     29  C   UNL     1       6.005   4.534  18.016  0.00  0.00    +0.000 C 
ATOM     30  S   UNL     1       4.542   3.627  17.440  0.00  0.00    +0.000 S 
ENDBRANCH  23  30
ENDBRANCH  22  28
ENDBRANCH  21  22
ENDBRANCH   1  21
TORSDOF 7
ENDMDL
MODEL 9
REMARK VINA RESULT:      -7.0      9.081     11.788
REMARK  Name = 
REMARK  9 active torsions:
REMARK  status: ('A' for Active; 'I' for Inactive)
REMARK    1  A    between atoms: C_1  and  S_2
REMARK    2  A    between atoms: S_2  and  C_3
REMARK    3  A    between atoms: C_8  and  O_9
REMARK    4  A    between atoms: O_9  and  C_10
REMARK    5  A    between atoms: C_10  and  C_11
REMARK    6  A    between atoms: C_13  and  C_14
REMARK    7  A    between atoms: N_19  and  C_20
REMARK    8  A    between atoms: C_20  and  C_21
REMARK    9  A    between atoms: N_25  and  C_26
REMARK                            x       y       z     vdW  Elec       q    Type
REMARK                         _______ _______ _______ _____ _____    ______ ____
ROOT
ATOM      1  C   UNL     1       1.368   8.651  20.320  0.00  0.00    +0.000 A 
ATOM      2  C   UNL     1       0.978   9.916  19.966  0.00  0.00    +0.000 A 
ATOM      3  C   UNL     1       0.879  10.615  21.199  0.00  0.00    +0.000 A 
ATOM      4  N   UNL     1       1.096   9.778  22.228  0.00  0.00    +0.000 NA
ATOM      5  O   UNL     1       1.435   8.566  21.674  0.00  0.00    +0.000 OA
ENDROOT
BRANCH   3   6
ATOM      6  C   UNL     1       0.548  12.034  21.368  0.00  0.00    +0.000 C 
ATOM      7  O   UNL     1       1.404  12.886  21.126  0.00  0.00    +0.000 OA
ATOM      8  N   UNL     1      -0.715  12.389  21.858  0.00  0.00    +0.000 N 
ATOM      9  C   UNL     1      -1.770  11.449  22.264  0.00  0.00    +0.000 C 
ATOM     10  C   UNL     1      -2.600  11.957  23.463  0.00  0.00    +0.000 C 
ATOM     11  N   UNL     1      -3.058  13.362  23.382  0.00  0.00    +0.000 NA
ATOM     12  C   UNL     1      -1.887  14.211  23.059  0.00  0.00    +0.000 C 
ATOM     13  C   UNL     1      -1.118  13.794  21.796  0.00  0.00    +0.000 C 
BRANCH  11  14
ATOM     14  C   UNL     1      -4.147  13.484  22.394  0.00  0.00    +0.000 C 
BRANCH  14  15
ATOM     15  C   UNL     1      -5.524  13.347  22.977  0.00  0.00    +0.000 A 
ATOM     16  N   UNL     1      -6.276  12.264  22.878  0.00  0.00    +0.000 NA
ATOM     17  C   UNL     1      -7.427  12.542  23.561  0.00  0.00    +0.000 A 
ATOM     18  C   UNL     1      -7.391  13.812  24.077  0.00  0.00    +0.000 A 
ATOM     19  N   UNL     1      -6.184  14.325  23.685  0.00  0.00    +0.000 N 
ATOM     20  C   UNL     1      -5.725  15.662  23.966  0.00  0.00    +0.000 C 
ENDBRANCH  14  15
ENDBRANCH  11  14
ENDBRANCH   3   6
BRANCH   1  21
ATOM     21  C   UNL     1       1.736   7.424  19.586  0.00  0.00    +0.000 C 
BRANCH  21  22
ATOM     22  O   UNL     1       2.138   6.483  20.576  0.00  0.00    +0.000 OA
BRANCH  22  28
ATOM     23  C   UNL     1       3.334   4.538  19.588  0.00  0.00    +0.000 A 
ATOM     24  C   UNL     1       3.237   3.168  19.297  0.00  0.00    +0.000 A 
ATOM     25  C   UNL     1       2.086   2.438  19.599  0.00  0.00    +0.000 A 
ATOM     26  C   UNL     1       1.007   3.069  20.201  0.00  0.00    +0.000 A 
ATOM     27  C   UNL     1       1.082   4.429  20.496  0.00  0.00    +0.000 A 
ATOM     28  C   UNL     1       2.231   5.177  20.180  0.00  0.00    +0.000 A 
BRANCH  23  30
ATOM     29  C   UNL     1       5.184   4.560  17.498  0.00  0.00    +0.000 C 
ATOM     30  S   UNL     1       4.895   5.295  19.132  0.00  0.00    +0.000 S 
ENDBRANCH  23  30
ENDBRANCH  22  28
ENDBRANCH  21  22
ENDBRANCH   1  21
TORSDOF 7
ENDMDL
