MODEL 1
REMARK VINA RESULT:      -7.9      0.000      0.000
REMARK  Name = 
REMARK  4 active torsions:
REMARK  status: ('A' for Active; 'I' for Inactive)
REMARK    1  A    between atoms: C_1  and  O_2
REMARK    2  A    between atoms: O_2  and  C_3
REMARK    3  A    between atoms: C_12  and  O_13
REMARK    4  A    between atoms: O_13  and  C_14
REMARK                            x       y       z     vdW  Elec       q    Type
REMARK                         _______ _______ _______ _____ _____    ______ ____
ROOT
ATOM      1  C   UNL     1       3.507   3.755  19.760  0.00  0.00    +0.000 A 
ATOM      2  C   UNL     1       3.778   4.656  18.725  0.00  0.00    +0.000 A 
ATOM      3  C   UNL     1       3.246   5.930  18.680  0.00  0.00    +0.000 A 
ATOM      4  N   UNL     1       3.584   6.674  17.618  0.00  0.00    +0.000 NA
ATOM      5  C   UNL     1       3.107   7.929  17.527  0.00  0.00    +0.000 A 
ATOM      6  C   UNL     1       2.288   8.496  18.479  0.00  0.00    +0.000 A 
ATOM      7  C   UNL     1       1.927   7.718  19.599  0.00  0.00    +0.000 A 
ATOM      8  C   UNL     1       2.408   6.380  19.717  0.00  0.00    +0.000 A 
ATOM      9  C   UNL     1       2.139   5.461  20.768  0.00  0.00    +0.000 A 
ATOM     10  C   UNL     1       2.678   4.164  20.804  0.00  0.00    +0.000 A 
ATOM     11  C   UNL     1       1.048   8.344  20.648  0.00  0.00    +0.000 C 
ATOM     12  O   UNL     1       0.676   7.761  21.655  0.00  0.00    +0.000 OA
ATOM     13  C   UNL     1       0.662   9.701  20.398  0.00  0.00    +0.000 A 
ATOM     14  N   UNL     1      -0.118  10.471  21.216  0.00  0.00    +0.000 N 
ATOM     15  C   UNL     1      -0.284  11.718  20.662  0.00  0.00    +0.000 A 
ATOM     16  C   UNL     1      -0.998  12.822  21.136  0.00  0.00    +0.000 A 
ATOM     17  C   UNL     1      -0.993  13.976  20.349  0.00  0.00    +0.000 A 
ATOM     18  C   UNL     1      -0.302  14.022  19.140  0.00  0.00    +0.000 A 
ATOM     19  C   UNL     1       0.409  12.910  18.680  0.00  0.00    +0.000 A 
ATOM     20  C   UNL     1       0.419  11.733  19.453  0.00  0.00    +0.000 A 
ATOM     21  C   UNL     1       1.014  10.451  19.300  0.00  0.00    +0.000 A 
ATOM     22  C   UNL     1       1.845   9.898  18.261  0.00  0.00    +0.000 C 
ATOM     23  O   UNL     1       2.184  10.516  17.259  0.00  0.00    +0.000 OA
ATOM     24  H   UNL     1      -0.509  10.158  22.096  0.00  0.00    +0.000 HD
ENDROOT
BRANCH   1  26
ATOM     25  C   UNL     1       3.673   1.599  18.787  0.00  0.00    +0.000 C 
ATOM     26  O   UNL     1       4.085   2.514  19.798  0.00  0.00    +0.000 OA
ENDBRANCH   1  26
BRANCH  10  27
ATOM     27  O   UNL     1       2.280   3.464  21.911  0.00  0.00    +0.000 OA
ATOM     28  C   UNL     1       1.273   2.475  21.762  0.00  0.00    +0.000 C 
ENDBRANCH  10  27
TORSDOF 2
ENDMDL
MODEL 2
REMARK VINA RESULT:      -7.9      1.715      3.274
REMARK  Name = 
REMARK  4 active torsions:
REMARK  status: ('A' for Active; 'I' for Inactive)
REMARK    1  A    between atoms: C_1  and  O_2
REMARK    2  A    between atoms: O_2  and  C_3
REMARK    3  A    between atoms: C_12  and  O_13
REMARK    4  A    between atoms: O_13  and  C_14
REMARK                            x       y       z     vdW  Elec       q    Type
REMARK                         _______ _______ _______ _____ _____    ______ ____
ROOT
ATOM      1  C   UNL     1       3.865   3.946  18.361  0.00  0.00    +0.000 A 
ATOM      2  C   UNL     1       3.115   4.218  19.510  0.00  0.00    +0.000 A 
ATOM      3  C   UNL     1       2.549   5.453  19.763  0.00  0.00    +0.000 A 
ATOM      4  N   UNL     1       1.872   5.568  20.913  0.00  0.00    +0.000 NA
ATOM      5  C   UNL     1       1.286   6.744  21.207  0.00  0.00    +0.000 A 
ATOM      6  C   UNL     1       1.343   7.843  20.377  0.00  0.00    +0.000 A 
ATOM      7  C   UNL     1       2.056   7.729  19.165  0.00  0.00    +0.000 A 
ATOM      8  C   UNL     1       2.697   6.498  18.832  0.00  0.00    +0.000 A 
ATOM      9  C   UNL     1       3.457   6.214  17.664  0.00  0.00    +0.000 A 
ATOM     10  C   UNL     1       4.035   4.958  17.417  0.00  0.00    +0.000 A 
ATOM     11  C   UNL     1       2.101   8.923  18.251  0.00  0.00    +0.000 C 
ATOM     12  O   UNL     1       2.690   8.934  17.180  0.00  0.00    +0.000 OA
ATOM     13  C   UNL     1       1.395  10.080  18.713  0.00  0.00    +0.000 A 
ATOM     14  N   UNL     1       1.289  11.269  18.046  0.00  0.00    +0.000 N 
ATOM     15  C   UNL     1       0.540  12.153  18.786  0.00  0.00    +0.000 A 
ATOM     16  C   UNL     1       0.176  13.473  18.506  0.00  0.00    +0.000 A 
ATOM     17  C   UNL     1      -0.600  14.141  19.456  0.00  0.00    +0.000 A 
ATOM     18  C   UNL     1      -0.995  13.512  20.636  0.00  0.00    +0.000 A 
ATOM     19  C   UNL     1      -0.624  12.191  20.901  0.00  0.00    +0.000 A 
ATOM     20  C   UNL     1       0.160  11.496  19.960  0.00  0.00    +0.000 A 
ATOM     21  C   UNL     1       0.706  10.185  19.900  0.00  0.00    +0.000 A 
ATOM     22  C   UNL     1       0.639   9.075  20.818  0.00  0.00    +0.000 C 
ATOM     23  O   UNL     1       0.048   9.113  21.889  0.00  0.00    +0.000 OA
ATOM     24  H   UNL     1       1.704  11.458  17.142  0.00  0.00    +0.000 HD
ENDROOT
BRANCH   1  26
ATOM     25  C   UNL     1       3.533   1.600  18.452  0.00  0.00    +0.000 C 
ATOM     26  O   UNL     1       4.375   2.699  18.119  0.00  0.00    +0.000 OA
ENDBRANCH   1  26
BRANCH  10  27
ATOM     27  O   UNL     1       4.717   4.922  16.231  0.00  0.00    +0.000 OA
ATOM     28  C   UNL     1       5.270   6.130  15.729  0.00  0.00    +0.000 C 
ENDBRANCH  10  27
TORSDOF 2
ENDMDL
MODEL 3
REMARK VINA RESULT:      -7.7      1.431      2.125
REMARK  Name = 
REMARK  4 active torsions:
REMARK  status: ('A' for Active; 'I' for Inactive)
REMARK    1  A    between atoms: C_1  and  O_2
REMARK    2  A    between atoms: O_2  and  C_3
REMARK    3  A    between atoms: C_12  and  O_13
REMARK    4  A    between atoms: O_13  and  C_14
REMARK                            x       y       z     vdW  Elec       q    Type
REMARK                         _______ _______ _______ _____ _____    ______ ____
ROOT
ATOM      1  C   UNL     1       3.211   5.464  18.744  0.00  0.00    +0.000 A 
ATOM      2  C   UNL     1       3.134   6.625  17.966  0.00  0.00    +0.000 A 
ATOM      3  C   UNL     1       2.458   7.758  18.374  0.00  0.00    +0.000 A 
ATOM      4  N   UNL     1       2.458   8.786  17.515  0.00  0.00    +0.000 NA
ATOM      5  C   UNL     1       1.828   9.923  17.863  0.00  0.00    +0.000 A 
ATOM      6  C   UNL     1       1.182  10.088  19.070  0.00  0.00    +0.000 A 
ATOM      7  C   UNL     1       1.177   9.009  19.978  0.00  0.00    +0.000 A 
ATOM      8  C   UNL     1       1.827   7.788  19.631  0.00  0.00    +0.000 A 
ATOM      9  C   UNL     1       1.912   6.606  20.419  0.00  0.00    +0.000 A 
ATOM     10  C   UNL     1       2.595   5.454  19.995  0.00  0.00    +0.000 A 
ATOM     11  C   UNL     1       0.488   9.197  21.303  0.00  0.00    +0.000 C 
ATOM     12  O   UNL     1       0.423   8.329  22.160  0.00  0.00    +0.000 OA
ATOM     13  C   UNL     1      -0.103  10.485  21.513  0.00  0.00    +0.000 A 
ATOM     14  N   UNL     1      -0.765  10.883  22.641  0.00  0.00    +0.000 N 
ATOM     15  C   UNL     1      -1.199  12.179  22.493  0.00  0.00    +0.000 A 
ATOM     16  C   UNL     1      -1.914  12.992  23.376  0.00  0.00    +0.000 A 
ATOM     17  C   UNL     1      -2.222  14.286  22.952  0.00  0.00    +0.000 A 
ATOM     18  C   UNL     1      -1.831  14.747  21.697  0.00  0.00    +0.000 A 
ATOM     19  C   UNL     1      -1.115  13.923  20.824  0.00  0.00    +0.000 A 
ATOM     20  C   UNL     1      -0.792  12.612  21.227  0.00  0.00    +0.000 A 
ATOM     21  C   UNL     1      -0.098  11.531  20.619  0.00  0.00    +0.000 A 
ATOM     22  C   UNL     1       0.538  11.402  19.332  0.00  0.00    +0.000 C 
ATOM     23  O   UNL     1       0.567  12.295  18.495  0.00  0.00    +0.000 OA
ATOM     24  H   UNL     1      -0.909  10.301  23.457  0.00  0.00    +0.000 HD
ENDROOT
BRANCH   1  26
ATOM     25  C   UNL     1       5.299   4.340  18.709  0.00  0.00    +0.000 C 
ATOM     26  O   UNL     1       3.926   4.372  18.330  0.00  0.00    +0.000 OA
ENDBRANCH   1  26
BRANCH  10  27
ATOM     27  O   UNL     1       2.542   4.447  20.919  0.00  0.00    +0.000 OA
ATOM     28  C   UNL     1       1.432   3.562  20.896  0.00  0.00    +0.000 C 
ENDBRANCH  10  27
TORSDOF 2
ENDMDL
MODEL 4
REMARK VINA RESULT:      -7.4      2.148      7.669
REMARK  Name = 
REMARK  4 active torsions:
REMARK  status: ('A' for Active; 'I' for Inactive)
REMARK    1  A    between atoms: C_1  and  O_2
REMARK    2  A    between atoms: O_2  and  C_3
REMARK    3  A    between atoms: C_12  and  O_13
REMARK    4  A    between atoms: O_13  and  C_14
REMARK                            x       y       z     vdW  Elec       q    Type
REMARK                         _______ _______ _______ _____ _____    ______ ____
ROOT
ATOM      1  C   UNL     1      -0.505  13.165  21.064  0.00  0.00    +0.000 A 
ATOM      2  C   UNL     1       0.109  12.931  19.829  0.00  0.00    +0.000 A 
ATOM      3  C   UNL     1       0.691  11.723  19.496  0.00  0.00    +0.000 A 
ATOM      4  N   UNL     1       1.254  11.653  18.283  0.00  0.00    +0.000 NA
ATOM      5  C   UNL     1       1.824  10.496  17.898  0.00  0.00    +0.000 A 
ATOM      6  C   UNL     1       1.854   9.369  18.691  0.00  0.00    +0.000 A 
ATOM      7  C   UNL     1       1.264   9.437  19.970  0.00  0.00    +0.000 A 
ATOM      8  C   UNL     1       0.662  10.653  20.410  0.00  0.00    +0.000 A 
ATOM      9  C   UNL     1       0.033  10.896  21.662  0.00  0.00    +0.000 A 
ATOM     10  C   UNL     1      -0.551  12.129  21.996  0.00  0.00    +0.000 A 
ATOM     11  C   UNL     1       1.279   8.200  20.828  0.00  0.00    +0.000 C 
ATOM     12  O   UNL     1       0.798   8.148  21.950  0.00  0.00    +0.000 OA
ATOM     13  C   UNL     1       1.903   7.051  20.241  0.00  0.00    +0.000 A 
ATOM     14  N   UNL     1       2.020   5.822  20.828  0.00  0.00    +0.000 N 
ATOM     15  C   UNL     1       2.675   4.962  19.978  0.00  0.00    +0.000 A 
ATOM     16  C   UNL     1       3.018   3.618  20.152  0.00  0.00    +0.000 A 
ATOM     17  C   UNL     1       3.692   2.986  19.104  0.00  0.00    +0.000 A 
ATOM     18  C   UNL     1       4.007   3.671  17.932  0.00  0.00    +0.000 A 
ATOM     19  C   UNL     1       3.656   5.014  17.773  0.00  0.00    +0.000 A 
ATOM     20  C   UNL     1       2.977   5.676  18.814  0.00  0.00    +0.000 A 
ATOM     21  C   UNL     1       2.481   6.995  18.994  0.00  0.00    +0.000 A 
ATOM     22  C   UNL     1       2.504   8.153  18.135  0.00  0.00    +0.000 C 
ATOM     23  O   UNL     1       3.010   8.164  17.021  0.00  0.00    +0.000 OA
ATOM     24  H   UNL     1       1.673   5.591  21.751  0.00  0.00    +0.000 HD
ENDROOT
BRANCH   1  26
ATOM     25  C   UNL     1      -0.748  15.459  20.516  0.00  0.00    +0.000 C 
ATOM     26  O   UNL     1      -1.112  14.360  21.346  0.00  0.00    +0.000 OA
ENDBRANCH   1  26
BRANCH  10  27
ATOM     27  O   UNL     1      -1.095  12.126  23.252  0.00  0.00    +0.000 OA
ATOM     28  C   UNL     1      -2.485  11.875  23.388  0.00  0.00    +0.000 C 
ENDBRANCH  10  27
TORSDOF 2
ENDMDL
MODEL 5
REMARK VINA RESULT:      -7.4      1.808      3.380
REMARK  Name = 
REMARK  4 active torsions:
REMARK  status: ('A' for Active; 'I' for Inactive)
REMARK    1  A    between atoms: C_1  and  O_2
REMARK    2  A    between atoms: O_2  and  C_3
REMARK    3  A    between atoms: C_12  and  O_13
REMARK    4  A    between atoms: O_13  and  C_14
REMARK                            x       y       z     vdW  Elec       q    Type
REMARK                         _______ _______ _______ _____ _____    ______ ____
ROOT
ATOM      1  C   UNL     1       3.593   4.886  18.534  0.00  0.00    +0.000 A 
ATOM      2  C   UNL     1       2.803   5.151  19.659  0.00  0.00    +0.000 A 
ATOM      3  C   UNL     1       2.230   6.385  19.901  0.00  0.00    +0.000 A 
ATOM      4  N   UNL     1       1.513   6.492  21.027  0.00  0.00    +0.000 NA
ATOM      5  C   UNL     1       0.919   7.666  21.309  0.00  0.00    +0.000 A 
ATOM      6  C   UNL     1       1.006   8.772  20.490  0.00  0.00    +0.000 A 
ATOM      7  C   UNL     1       1.761   8.666  19.303  0.00  0.00    +0.000 A 
ATOM      8  C   UNL     1       2.411   7.437  18.984  0.00  0.00    +0.000 A 
ATOM      9  C   UNL     1       3.212   7.160  17.841  0.00  0.00    +0.000 A 
ATOM     10  C   UNL     1       3.797   5.906  17.605  0.00  0.00    +0.000 A 
ATOM     11  C   UNL     1       1.840   9.867  18.400  0.00  0.00    +0.000 C 
ATOM     12  O   UNL     1       2.466   9.885  17.351  0.00  0.00    +0.000 OA
ATOM     13  C   UNL     1       1.119  11.022  18.846  0.00  0.00    +0.000 A 
ATOM     14  N   UNL     1       1.038  12.215  18.184  0.00  0.00    +0.000 N 
ATOM     15  C   UNL     1       0.265  13.095  18.904  0.00  0.00    +0.000 A 
ATOM     16  C   UNL     1      -0.088  14.417  18.622  0.00  0.00    +0.000 A 
ATOM     17  C   UNL     1      -0.896  15.079  19.549  0.00  0.00    +0.000 A 
ATOM     18  C   UNL     1      -1.333  14.443  20.709  0.00  0.00    +0.000 A 
ATOM     19  C   UNL     1      -0.973  13.119  20.977  0.00  0.00    +0.000 A 
ATOM     20  C   UNL     1      -0.157  12.429  20.060  0.00  0.00    +0.000 A 
ATOM     21  C   UNL     1       0.389  11.118  20.008  0.00  0.00    +0.000 A 
ATOM     22  C   UNL     1       0.288  10.002  20.915  0.00  0.00    +0.000 C 
ATOM     23  O   UNL     1      -0.340  10.033  21.965  0.00  0.00    +0.000 OA
ATOM     24  H   UNL     1       1.484  12.411  17.297  0.00  0.00    +0.000 HD
ENDROOT
BRANCH   1  26
ATOM     25  C   UNL     1       4.295   2.814  19.446  0.00  0.00    +0.000 C 
ATOM     26  O   UNL     1       4.110   3.640  18.301  0.00  0.00    +0.000 OA
ENDBRANCH   1  26
BRANCH  10  27
ATOM     27  O   UNL     1       4.521   5.878  16.444  0.00  0.00    +0.000 OA
ATOM     28  C   UNL     1       5.904   6.192  16.498  0.00  0.00    +0.000 C 
ENDBRANCH  10  27
TORSDOF 2
ENDMDL
MODEL 6
REMARK VINA RESULT:      -7.4      2.007      8.117
REMARK  Name = 
REMARK  4 active torsions:
REMARK  status: ('A' for Active; 'I' for Inactive)
REMARK    1  A    between atoms: C_1  and  O_2
REMARK    2  A    between atoms: O_2  and  C_3
REMARK    3  A    between atoms: C_12  and  O_13
REMARK    4  A    between atoms: O_13  and  C_14
REMARK                            x       y       z     vdW  Elec       q    Type
REMARK                         _______ _______ _______ _____ _____    ______ ____
ROOT
ATOM      1  C   UNL     1      -1.036  12.398  20.830  0.00  0.00    +0.000 A 
ATOM      2  C   UNL     1      -0.881  11.209  21.552  0.00  0.00    +0.000 A 
ATOM      3  C   UNL     1      -0.128  10.145  21.096  0.00  0.00    +0.000 A 
ATOM      4  N   UNL     1      -0.085   9.068  21.890  0.00  0.00    +0.000 NA
ATOM      5  C   UNL     1       0.645   8.005  21.505  0.00  0.00    +0.000 A 
ATOM      6  C   UNL     1       1.362   7.970  20.328  0.00  0.00    +0.000 A 
ATOM      7  C   UNL     1       1.321   9.101  19.486  0.00  0.00    +0.000 A 
ATOM      8  C   UNL     1       0.546  10.238  19.864  0.00  0.00    +0.000 A 
ATOM      9  C   UNL     1       0.388  11.449  19.136  0.00  0.00    +0.000 A 
ATOM     10  C   UNL     1      -0.386  12.524  19.603  0.00  0.00    +0.000 A 
ATOM     11  C   UNL     1       2.119   9.069  18.211  0.00  0.00    +0.000 C 
ATOM     12  O   UNL     1       2.153   9.991  17.410  0.00  0.00    +0.000 OA
ATOM     13  C   UNL     1       2.862   7.866  17.979  0.00  0.00    +0.000 A 
ATOM     14  N   UNL     1       3.664   7.620  16.900  0.00  0.00    +0.000 N 
ATOM     15  C   UNL     1       4.217   6.366  17.007  0.00  0.00    +0.000 A 
ATOM     16  C   UNL     1       5.089   5.694  16.146  0.00  0.00    +0.000 A 
ATOM     17  C   UNL     1       5.492   4.409  16.514  0.00  0.00    +0.000 A 
ATOM     18  C   UNL     1       5.041   3.822  17.695  0.00  0.00    +0.000 A 
ATOM     19  C   UNL     1       4.171   4.507  18.546  0.00  0.00    +0.000 A 
ATOM     20  C   UNL     1       3.747   5.804  18.198  0.00  0.00    +0.000 A 
ATOM     21  C   UNL     1       2.893   6.765  18.804  0.00  0.00    +0.000 A 
ATOM     22  C   UNL     1       2.139   6.738  20.032  0.00  0.00    +0.000 C 
ATOM     23  O   UNL     1       2.122   5.784  20.799  0.00  0.00    +0.000 OA
ATOM     24  H   UNL     1       3.820   8.272  16.141  0.00  0.00    +0.000 HD
ENDROOT
BRANCH   1  26
ATOM     25  C   UNL     1      -3.141  13.473  21.008  0.00  0.00    +0.000 C 
ATOM     26  O   UNL     1      -1.754  13.451  21.330  0.00  0.00    +0.000 OA
ENDBRANCH   1  26
BRANCH  10  27
ATOM     27  O   UNL     1      -0.389  13.582  18.733  0.00  0.00    +0.000 OA
ATOM     28  C   UNL     1       0.583  14.602  18.904  0.00  0.00    +0.000 C 
ENDBRANCH  10  27
TORSDOF 2
ENDMDL
MODEL 7
REMARK VINA RESULT:      -7.3      2.256      7.868
REMARK  Name = 
REMARK  4 active torsions:
REMARK  status: ('A' for Active; 'I' for Inactive)
REMARK    1  A    between atoms: C_1  and  O_2
REMARK    2  A    between atoms: O_2  and  C_3
REMARK    3  A    between atoms: C_12  and  O_13
REMARK    4  A    between atoms: O_13  and  C_14
REMARK                            x       y       z     vdW  Elec       q    Type
REMARK                         _______ _______ _______ _____ _____    ______ ____
ROOT
ATOM      1  C   UNL     1      -0.407  10.876  21.235  0.00  0.00    +0.000 A 
ATOM      2  C   UNL     1      -0.150   9.583  21.706  0.00  0.00    +0.000 A 
ATOM      3  C   UNL     1       0.629   8.674  21.017  0.00  0.00    +0.000 A 
ATOM      4  N   UNL     1       0.772   7.469  21.584  0.00  0.00    +0.000 NA
ATOM      5  C   UNL     1       1.533   6.547  20.967  0.00  0.00    +0.000 A 
ATOM      6  C   UNL     1       2.181   6.780  19.773  0.00  0.00    +0.000 A 
ATOM      7  C   UNL     1       2.033   8.046  19.169  0.00  0.00    +0.000 A 
ATOM      8  C   UNL     1       1.224   9.040  19.795  0.00  0.00    +0.000 A 
ATOM      9  C   UNL     1       0.963  10.357  19.324  0.00  0.00    +0.000 A 
ATOM     10  C   UNL     1       0.163  11.273  20.026  0.00  0.00    +0.000 A 
ATOM     11  C   UNL     1       2.757   8.307  17.875  0.00  0.00    +0.000 C 
ATOM     12  O   UNL     1       2.698   9.366  17.268  0.00  0.00    +0.000 OA
ATOM     13  C   UNL     1       3.546   7.218  17.381  0.00  0.00    +0.000 A 
ATOM     14  N   UNL     1       4.296   7.233  16.237  0.00  0.00    +0.000 N 
ATOM     15  C   UNL     1       4.918   6.018  16.073  0.00  0.00    +0.000 A 
ATOM     16  C   UNL     1       5.771   5.577  15.058  0.00  0.00    +0.000 A 
ATOM     17  C   UNL     1       6.260   4.272  15.151  0.00  0.00    +0.000 A 
ATOM     18  C   UNL     1       5.909   3.445  16.216  0.00  0.00    +0.000 A 
ATOM     19  C   UNL     1       5.056   3.900  17.224  0.00  0.00    +0.000 A 
ATOM     20  C   UNL     1       4.547   5.211  17.154  0.00  0.00    +0.000 A 
ATOM     21  C   UNL     1       3.681   5.984  17.974  0.00  0.00    +0.000 A 
ATOM     22  C   UNL     1       3.002   5.677  19.208  0.00  0.00    +0.000 C 
ATOM     23  O   UNL     1       3.079   4.595  19.776  0.00  0.00    +0.000 OA
ATOM     24  H   UNL     1       4.374   8.026  15.613  0.00  0.00    +0.000 HD
ENDROOT
BRANCH   1  26
ATOM     25  C   UNL     1      -1.668  11.289  23.200  0.00  0.00    +0.000 C 
ATOM     26  O   UNL     1      -1.148  11.767  21.963  0.00  0.00    +0.000 OA
ENDBRANCH   1  26
BRANCH  10  27
ATOM     27  O   UNL     1       0.056  12.475  19.380  0.00  0.00    +0.000 OA
ATOM     28  C   UNL     1      -0.966  12.633  18.407  0.00  0.00    +0.000 C 
ENDBRANCH  10  27
TORSDOF 2
ENDMDL
MODEL 8
REMARK VINA RESULT:      -7.3      1.582      2.181
REMARK  Name = 
REMARK  4 active torsions:
REMARK  status: ('A' for Active; 'I' for Inactive)
REMARK    1  A    between atoms: C_1  and  O_2
REMARK    2  A    between atoms: O_2  and  C_3
REMARK    3  A    between atoms: C_12  and  O_13
REMARK    4  A    between atoms: O_13  and  C_14
REMARK                            x       y       z     vdW  Elec       q    Type
REMARK                         _______ _______ _______ _____ _____    ______ ____
ROOT
ATOM      1  C   UNL     1       4.506   4.791  17.766  0.00  0.00    +0.000 A 
ATOM      2  C   UNL     1       4.254   6.017  17.139  0.00  0.00    +0.000 A 
ATOM      3  C   UNL     1       3.436   6.986  17.686  0.00  0.00    +0.000 A 
ATOM      4  N   UNL     1       3.278   8.102  16.962  0.00  0.00    +0.000 NA
ATOM      5  C   UNL     1       2.503   9.088  17.451  0.00  0.00    +0.000 A 
ATOM      6  C   UNL     1       1.863   9.011  18.669  0.00  0.00    +0.000 A 
ATOM      7  C   UNL     1       2.024   7.838  19.436  0.00  0.00    +0.000 A 
ATOM      8  C   UNL     1       2.831   6.771  18.938  0.00  0.00    +0.000 A 
ATOM      9  C   UNL     1       3.093   5.525  19.572  0.00  0.00    +0.000 A 
ATOM     10  C   UNL     1       3.920   4.541  19.006  0.00  0.00    +0.000 A 
ATOM     11  C   UNL     1       1.341   7.762  20.774  0.00  0.00    +0.000 C 
ATOM     12  O   UNL     1       1.412   6.794  21.517  0.00  0.00    +0.000 OA
ATOM     13  C   UNL     1       0.582   8.919  21.145  0.00  0.00    +0.000 A 
ATOM     14  N   UNL     1      -0.108   9.079  22.315  0.00  0.00    +0.000 N 
ATOM     15  C   UNL     1      -0.719  10.310  22.330  0.00  0.00    +0.000 A 
ATOM     16  C   UNL     1      -1.523  10.900  23.309  0.00  0.00    +0.000 A 
ATOM     17  C   UNL     1      -2.016  12.181  23.051  0.00  0.00    +0.000 A 
ATOM     18  C   UNL     1      -1.715  12.843  21.862  0.00  0.00    +0.000 A 
ATOM     19  C   UNL     1      -0.908  12.241  20.893  0.00  0.00    +0.000 A 
ATOM     20  C   UNL     1      -0.400  10.949  21.128  0.00  0.00    +0.000 A 
ATOM     21  C   UNL     1       0.425  10.058  20.389  0.00  0.00    +0.000 A 
ATOM     22  C   UNL     1       1.049  10.180  19.095  0.00  0.00    +0.000 C 
ATOM     23  O   UNL     1       0.939  11.165  18.376  0.00  0.00    +0.000 OA
ATOM     24  H   UNL     1      -0.155   8.386  23.052  0.00  0.00    +0.000 HD
ENDROOT
BRANCH   1  26
ATOM     25  C   UNL     1       6.507   4.390  16.560  0.00  0.00    +0.000 C 
ATOM     26  O   UNL     1       5.357   3.869  17.218  0.00  0.00    +0.000 OA
ENDBRANCH   1  26
BRANCH  10  27
ATOM     27  O   UNL     1       4.024   3.429  19.798  0.00  0.00    +0.000 OA
ATOM     28  C   UNL     1       2.848   2.916  20.405  0.00  0.00    +0.000 C 
ENDBRANCH  10  27
TORSDOF 2
ENDMDL
MODEL 9
REMARK VINA RESULT:      -7.3      2.510      7.913
REMARK  Name = 
REMARK  4 active torsions:
REMARK  status: ('A' for Active; 'I' for Inactive)
REMARK    1  A    between atoms: C_1  and  O_2
REMARK    2  A    between atoms: O_2  and  C_3
REMARK    3  A    between atoms: C_12  and  O_13
REMARK    4  A    between atoms: O_13  and  C_14
REMARK                            x       y       z     vdW  Elec       q    Type
REMARK                         _______ _______ _______ _____ _____    ______ ____
ROOT
ATOM      1  C   UNL     1      -1.855  13.838  21.656  0.00  0.00    +0.000 A 
ATOM      2  C   UNL     1      -1.248  13.742  20.399  0.00  0.00    +0.000 A 
ATOM      3  C   UNL     1      -0.520  12.638  19.999  0.00  0.00    +0.000 A 
ATOM      4  N   UNL     1       0.016  12.696  18.773  0.00  0.00    +0.000 NA
ATOM      5  C   UNL     1       0.724  11.644  18.323  0.00  0.00    +0.000 A 
ATOM      6  C   UNL     1       0.924  10.498  19.062  0.00  0.00    +0.000 A 
ATOM      7  C   UNL     1       0.364  10.430  20.355  0.00  0.00    +0.000 A 
ATOM      8  C   UNL     1      -0.383  11.535  20.863  0.00  0.00    +0.000 A 
ATOM      9  C   UNL     1      -1.006  11.637  22.137  0.00  0.00    +0.000 A 
ATOM     10  C   UNL     1      -1.738  12.766  22.540  0.00  0.00    +0.000 A 
ATOM     11  C   UNL     1       0.566   9.171  21.154  0.00  0.00    +0.000 C 
ATOM     12  O   UNL     1       0.125   9.007  22.282  0.00  0.00    +0.000 OA
ATOM     13  C   UNL     1       1.321   8.142  20.502  0.00  0.00    +0.000 A 
ATOM     14  N   UNL     1       1.616   6.915  21.028  0.00  0.00    +0.000 N 
ATOM     15  C   UNL     1       2.356   6.188  20.127  0.00  0.00    +0.000 A 
ATOM     16  C   UNL     1       2.879   4.896  20.231  0.00  0.00    +0.000 A 
ATOM     17  C   UNL     1       3.603   4.406  19.142  0.00  0.00    +0.000 A 
ATOM     18  C   UNL     1       3.794   5.177  17.997  0.00  0.00    +0.000 A 
ATOM     19  C   UNL     1       3.263   6.467  17.907  0.00  0.00    +0.000 A 
ATOM     20  C   UNL     1       2.530   6.986  18.991  0.00  0.00    +0.000 A 
ATOM     21  C   UNL     1       1.869   8.219  19.242  0.00  0.00    +0.000 A 
ATOM     22  C   UNL     1       1.715   9.405  18.438  0.00  0.00    +0.000 C 
ATOM     23  O   UNL     1       2.186   9.532  17.315  0.00  0.00    +0.000 OA
ATOM     24  H   UNL     1       1.327   6.600  21.946  0.00  0.00    +0.000 HD
ENDROOT
BRANCH   1  26
ATOM     25  C   UNL     1      -3.771  15.165  21.219  0.00  0.00    +0.000 C 
ATOM     26  O   UNL     1      -2.607  14.928  22.005  0.00  0.00    +0.000 OA
ENDBRANCH   1  26
BRANCH  10  27
ATOM     27  O   UNL     1      -2.245  12.636  23.805  0.00  0.00    +0.000 OA
ATOM     28  C   UNL     1      -3.614  12.295  23.956  0.00  0.00    +0.000 C 
ENDBRANCH  10  27
TORSDOF 2
ENDMDL
