MODEL 1
REMARK VINA RESULT:      -7.8      0.000      0.000
REMARK  Name = 
REMARK  16 active torsions:
REMARK  status: ('A' for Active; 'I' for Inactive)
REMARK    1  A    between atoms: C_1  and  C_2
REMARK    2  A    between atoms: C_2  and  C_3
REMARK    3  A    between atoms: C_3  and  C_4
REMARK    4  A    between atoms: C_4  and  C_5
REMARK    5  A    between atoms: C_5  and  C_6
REMARK    6  A    between atoms: C_6  and  C_7
REMARK    7  A    between atoms: C_7  and  C_8
REMARK    8  A    between atoms: C_7  and  C_9
REMARK    9  A    between atoms: C_10  and  C_11
REMARK   10  A    between atoms: C_10  and  C_12
REMARK   11  A    between atoms: C_12  and  O_14
REMARK   12  A    between atoms: O_14  and  C_15
REMARK   13  A    between atoms: C_15  and  C_16
REMARK   14  A    between atoms: C_22  and  C_23
REMARK   15  A    between atoms: C_24  and  C_25
REMARK   16  A    between atoms: C_29  and  O_30
REMARK                            x       y       z     vdW  Elec       q    Type
REMARK                         _______ _______ _______ _____ _____    ______ ____
ROOT
ATOM      1  C   UNL     1       3.764   3.273  19.106  0.00  0.00    +0.000 C 
ATOM      2  C   UNL     1       3.454   1.798  18.758  0.00  0.00    +0.000 C 
ATOM      3  C   UNL     1       3.182   3.514  20.528  0.00  0.00    +0.000 C 
ATOM      4  O   UNL     1       3.278   2.686  21.437  0.00  0.00    +0.000 OA
ATOM      5  C   UNL     1       2.512   4.803  20.857  0.00  0.00    +0.000 C 
ATOM      6  C   UNL     1       2.198   5.712  19.923  0.00  0.00    +0.000 C 
ATOM      7  C   UNL     1       1.717   7.045  20.303  0.00  0.00    +0.000 C 
ATOM      8  C   UNL     1       1.521   7.954  19.319  0.00  0.00    +0.000 C 
ATOM      9  O   UNL     1       1.607   7.630  17.971  0.00  0.00    +0.000 OA
ATOM     10  C   UNL     1       2.034   6.363  17.624  0.00  0.00    +0.000 C 
ATOM     11  C   UNL     1       2.390   5.421  18.514  0.00  0.00    +0.000 C 
ATOM     12  C   UNL     1       2.986   4.127  18.058  0.00  0.00    +0.000 C 
ATOM     13  O   UNL     1       2.835   3.764  16.888  0.00  0.00    +0.000 OA
ENDROOT
BRANCH   8  14
ATOM     14  C   UNL     1       1.350   9.401  19.618  0.00  0.00    +0.000 A 
ATOM     15  C   UNL     1       0.948   9.829  20.905  0.00  0.00    +0.000 A 
ATOM     16  C   UNL     1       0.721   8.895  22.066  0.00  0.00    +0.000 C 
ATOM     17  C   UNL     1       0.722  11.200  21.140  0.00  0.00    +0.000 A 
ATOM     18  C   UNL     1       0.932  12.147  20.142  0.00  0.00    +0.000 A 
ATOM     19  C   UNL     1       1.384  11.734  18.884  0.00  0.00    +0.000 A 
ATOM     20  C   UNL     1       1.590  10.374  18.635  0.00  0.00    +0.000 A 
BRANCH  20  21
ATOM     21  O   UNL     1       2.035  10.000  17.394  0.00  0.00    +0.000 OA
ATOM     22  H   UNL     1       2.020  10.771  16.819  0.00  0.00    +0.000 HD
ENDBRANCH  20  21
ENDBRANCH   8  14
BRANCH   1  23
ATOM     23  O   UNL     1       5.226   3.275  19.054  0.00  0.00    +0.000 OA
BRANCH  23  24
ATOM     24  C   UNL     1       5.883   4.453  19.008  0.00  0.00    +0.000 C 
ATOM     25  O   UNL     1       6.359   4.983  20.004  0.00  0.00    +0.000 OA
BRANCH  24  27
ATOM     26  C   UNL     1       6.147   4.449  16.418  0.00  0.00    +0.000 C 
ATOM     27  C   UNL     1       6.030   5.073  17.620  0.00  0.00    +0.000 C 
ATOM     28  C   UNL     1       6.048   6.585  17.718  0.00  0.00    +0.000 C 
BRANCH  26  29
ATOM     29  C   UNL     1       6.231   5.192  15.063  0.00  0.00    +0.000 C 
ATOM     30  C   UNL     1       7.656   5.116  14.477  0.00  0.00    +0.000 C 
BRANCH  29  31
ATOM     31  C   UNL     1       5.252   4.774  13.936  0.00  0.00    +0.000 C 
BRANCH  31  32
ATOM     32  C   UNL     1       5.285   3.329  13.430  0.00  0.00    +0.000 C 
BRANCH  32  33
ATOM     33  C   UNL     1       6.069   3.072  12.134  0.00  0.00    +0.000 C 
BRANCH  33  34
ATOM     34  C   UNL     1       5.097   2.623  11.027  0.00  0.00    +0.000 C 
BRANCH  34  36
ATOM     35  C   UNL     1       3.156   3.784   9.909  0.00  0.00    +0.000 C 
ATOM     36  C   UNL     1       3.677   3.161  11.201  0.00  0.00    +0.000 C 
ENDBRANCH  34  36
ENDBRANCH  33  34
ENDBRANCH  32  33
ENDBRANCH  31  32
ENDBRANCH  29  31
ENDBRANCH  26  29
ENDBRANCH  24  27
ENDBRANCH  23  24
ENDBRANCH   1  23
TORSDOF 11
ENDMDL
MODEL 2
REMARK VINA RESULT:      -7.7      4.602      8.525
REMARK  Name = 
REMARK  16 active torsions:
REMARK  status: ('A' for Active; 'I' for Inactive)
REMARK    1  A    between atoms: C_1  and  C_2
REMARK    2  A    between atoms: C_2  and  C_3
REMARK    3  A    between atoms: C_3  and  C_4
REMARK    4  A    between atoms: C_4  and  C_5
REMARK    5  A    between atoms: C_5  and  C_6
REMARK    6  A    between atoms: C_6  and  C_7
REMARK    7  A    between atoms: C_7  and  C_8
REMARK    8  A    between atoms: C_7  and  C_9
REMARK    9  A    between atoms: C_10  and  C_11
REMARK   10  A    between atoms: C_10  and  C_12
REMARK   11  A    between atoms: C_12  and  O_14
REMARK   12  A    between atoms: O_14  and  C_15
REMARK   13  A    between atoms: C_15  and  C_16
REMARK   14  A    between atoms: C_22  and  C_23
REMARK   15  A    between atoms: C_24  and  C_25
REMARK   16  A    between atoms: C_29  and  O_30
REMARK                            x       y       z     vdW  Elec       q    Type
REMARK                         _______ _______ _______ _____ _____    ______ ____
ROOT
ATOM      1  C   UNL     1       0.808  12.621  19.567  0.00  0.00    +0.000 C 
ATOM      2  C   UNL     1       2.305  12.988  19.686  0.00  0.00    +0.000 C 
ATOM      3  C   UNL     1       0.064  13.944  19.225  0.00  0.00    +0.000 C 
ATOM      4  O   UNL     1       0.508  14.772  18.427  0.00  0.00    +0.000 OA
ATOM      5  C   UNL     1      -1.264  14.237  19.834  0.00  0.00    +0.000 C 
ATOM      6  C   UNL     1      -1.777  13.506  20.833  0.00  0.00    +0.000 C 
ATOM      7  C   UNL     1      -3.162  13.704  21.275  0.00  0.00    +0.000 C 
ATOM      8  C   UNL     1      -3.656  12.862  22.212  0.00  0.00    +0.000 C 
ATOM      9  O   UNL     1      -2.867  11.931  22.876  0.00  0.00    +0.000 OA
ATOM     10  C   UNL     1      -1.556  11.772  22.471  0.00  0.00    +0.000 C 
ATOM     11  C   UNL     1      -0.995  12.454  21.457  0.00  0.00    +0.000 C 
ATOM     12  C   UNL     1       0.382  12.118  20.981  0.00  0.00    +0.000 C 
ATOM     13  O   UNL     1       1.142  11.477  21.712  0.00  0.00    +0.000 OA
ENDROOT
BRANCH   8  14
ATOM     14  C   UNL     1      -5.116  12.772  22.488  0.00  0.00    +0.000 A 
ATOM     15  C   UNL     1      -6.027  12.469  21.450  0.00  0.00    +0.000 A 
ATOM     16  C   UNL     1      -5.614  12.161  20.034  0.00  0.00    +0.000 C 
ATOM     17  C   UNL     1      -7.410  12.462  21.723  0.00  0.00    +0.000 A 
ATOM     18  C   UNL     1      -7.894  12.704  23.005  0.00  0.00    +0.000 A 
ATOM     19  C   UNL     1      -6.992  12.950  24.047  0.00  0.00    +0.000 A 
ATOM     20  C   UNL     1      -5.620  12.979  23.781  0.00  0.00    +0.000 A 
BRANCH  20  21
ATOM     21  O   UNL     1      -4.762  13.220  24.822  0.00  0.00    +0.000 OA
ATOM     22  H   UNL     1      -4.123  12.502  24.863  0.00  0.00    +0.000 HD
ENDBRANCH  20  21
ENDBRANCH   8  14
BRANCH   1  23
ATOM     23  O   UNL     1       0.839  11.657  18.468  0.00  0.00    +0.000 OA
BRANCH  23  24
ATOM     24  C   UNL     1       0.239  10.458  18.625  0.00  0.00    +0.000 C 
ATOM     25  O   UNL     1      -0.978  10.321  18.598  0.00  0.00    +0.000 OA
BRANCH  24  27
ATOM     26  C   UNL     1       1.966   8.659  17.878  0.00  0.00    +0.000 C 
ATOM     27  C   UNL     1       1.178   9.267  18.803  0.00  0.00    +0.000 C 
ATOM     28  C   UNL     1       1.136   8.773  20.235  0.00  0.00    +0.000 C 
BRANCH  26  29
ATOM     29  C   UNL     1       2.927   7.489  18.195  0.00  0.00    +0.000 C 
ATOM     30  C   UNL     1       2.192   6.134  18.126  0.00  0.00    +0.000 C 
BRANCH  29  31
ATOM     31  C   UNL     1       4.219   7.350  17.348  0.00  0.00    +0.000 C 
BRANCH  31  32
ATOM     32  C   UNL     1       4.600   5.970  16.808  0.00  0.00    +0.000 C 
BRANCH  32  33
ATOM     33  C   UNL     1       6.057   5.527  17.018  0.00  0.00    +0.000 C 
BRANCH  33  34
ATOM     34  C   UNL     1       6.983   6.753  16.928  0.00  0.00    +0.000 C 
BRANCH  34  36
ATOM     35  C   UNL     1       7.760   5.804  19.134  0.00  0.00    +0.000 C 
ATOM     36  C   UNL     1       7.781   7.015  18.205  0.00  0.00    +0.000 C 
ENDBRANCH  34  36
ENDBRANCH  33  34
ENDBRANCH  32  33
ENDBRANCH  31  32
ENDBRANCH  29  31
ENDBRANCH  26  29
ENDBRANCH  24  27
ENDBRANCH  23  24
ENDBRANCH   1  23
TORSDOF 11
ENDMDL
MODEL 3
REMARK VINA RESULT:      -7.6      0.679      1.106
REMARK  Name = 
REMARK  16 active torsions:
REMARK  status: ('A' for Active; 'I' for Inactive)
REMARK    1  A    between atoms: C_1  and  C_2
REMARK    2  A    between atoms: C_2  and  C_3
REMARK    3  A    between atoms: C_3  and  C_4
REMARK    4  A    between atoms: C_4  and  C_5
REMARK    5  A    between atoms: C_5  and  C_6
REMARK    6  A    between atoms: C_6  and  C_7
REMARK    7  A    between atoms: C_7  and  C_8
REMARK    8  A    between atoms: C_7  and  C_9
REMARK    9  A    between atoms: C_10  and  C_11
REMARK   10  A    between atoms: C_10  and  C_12
REMARK   11  A    between atoms: C_12  and  O_14
REMARK   12  A    between atoms: O_14  and  C_15
REMARK   13  A    between atoms: C_15  and  C_16
REMARK   14  A    between atoms: C_22  and  C_23
REMARK   15  A    between atoms: C_24  and  C_25
REMARK   16  A    between atoms: C_29  and  O_30
REMARK                            x       y       z     vdW  Elec       q    Type
REMARK                         _______ _______ _______ _____ _____    ______ ____
ROOT
ATOM      1  C   UNL     1       3.723   3.328  19.270  0.00  0.00    +0.000 C 
ATOM      2  C   UNL     1       3.422   1.849  18.934  0.00  0.00    +0.000 C 
ATOM      3  C   UNL     1       3.109   3.587  20.675  0.00  0.00    +0.000 C 
ATOM      4  O   UNL     1       3.186   2.771  21.597  0.00  0.00    +0.000 OA
ATOM      5  C   UNL     1       2.432   4.880  20.972  0.00  0.00    +0.000 C 
ATOM      6  C   UNL     1       2.139   5.776  20.019  0.00  0.00    +0.000 C 
ATOM      7  C   UNL     1       1.649   7.114  20.371  0.00  0.00    +0.000 C 
ATOM      8  C   UNL     1       1.475   8.010  19.372  0.00  0.00    +0.000 C 
ATOM      9  O   UNL     1       1.591   7.669  18.030  0.00  0.00    +0.000 OA
ATOM     10  C   UNL     1       2.026   6.397  17.709  0.00  0.00    +0.000 C 
ATOM     11  C   UNL     1       2.362   5.467  18.619  0.00  0.00    +0.000 C 
ATOM     12  C   UNL     1       2.968   4.168  18.193  0.00  0.00    +0.000 C 
ATOM     13  O   UNL     1       2.844   3.789  17.026  0.00  0.00    +0.000 OA
ENDROOT
BRANCH   8  14
ATOM     14  C   UNL     1       1.297   9.461  19.647  0.00  0.00    +0.000 A 
ATOM     15  C   UNL     1       0.876   9.906  20.923  0.00  0.00    +0.000 A 
ATOM     16  C   UNL     1       0.637   8.988  22.094  0.00  0.00    +0.000 C 
ATOM     17  C   UNL     1       0.645  11.279  21.135  0.00  0.00    +0.000 A 
ATOM     18  C   UNL     1       0.866  12.213  20.127  0.00  0.00    +0.000 A 
ATOM     19  C   UNL     1       1.335  11.784  18.880  0.00  0.00    +0.000 A 
ATOM     20  C   UNL     1       1.547  10.420  18.654  0.00  0.00    +0.000 A 
BRANCH  20  21
ATOM     21  O   UNL     1       2.010  10.030  17.425  0.00  0.00    +0.000 OA
ATOM     22  H   UNL     1       1.511  10.498  16.748  0.00  0.00    +0.000 HD
ENDBRANCH  20  21
ENDBRANCH   8  14
BRANCH   1  23
ATOM     23  O   UNL     1       5.185   3.330  19.251  0.00  0.00    +0.000 OA
BRANCH  23  24
ATOM     24  C   UNL     1       5.841   4.481  18.988  0.00  0.00    +0.000 C 
ATOM     25  O   UNL     1       6.346   5.168  19.868  0.00  0.00    +0.000 OA
BRANCH  24  27
ATOM     26  C   UNL     1       6.227   4.063  16.448  0.00  0.00    +0.000 C 
ATOM     27  C   UNL     1       5.946   4.860  17.513  0.00  0.00    +0.000 C 
ATOM     28  C   UNL     1       5.700   6.343  17.331  0.00  0.00    +0.000 C 
BRANCH  26  29
ATOM     29  C   UNL     1       6.247   4.555  14.982  0.00  0.00    +0.000 C 
ATOM     30  C   UNL     1       7.583   5.252  14.650  0.00  0.00    +0.000 C 
BRANCH  29  31
ATOM     31  C   UNL     1       5.982   3.521  13.857  0.00  0.00    +0.000 C 
BRANCH  31  32
ATOM     32  C   UNL     1       5.015   3.891  12.729  0.00  0.00    +0.000 C 
BRANCH  32  33
ATOM     33  C   UNL     1       5.365   3.372  11.326  0.00  0.00    +0.000 C 
BRANCH  33  34
ATOM     34  C   UNL     1       5.147   1.849  11.273  0.00  0.00    +0.000 C 
BRANCH  34  36
ATOM     35  C   UNL     1       7.638   1.961  10.886  0.00  0.00    +0.000 C 
ATOM     36  C   UNL     1       6.440   1.047  11.129  0.00  0.00    +0.000 C 
ENDBRANCH  34  36
ENDBRANCH  33  34
ENDBRANCH  32  33
ENDBRANCH  31  32
ENDBRANCH  29  31
ENDBRANCH  26  29
ENDBRANCH  24  27
ENDBRANCH  23  24
ENDBRANCH   1  23
TORSDOF 11
ENDMDL
MODEL 4
REMARK VINA RESULT:      -7.5      3.237     10.575
REMARK  Name = 
REMARK  16 active torsions:
REMARK  status: ('A' for Active; 'I' for Inactive)
REMARK    1  A    between atoms: C_1  and  C_2
REMARK    2  A    between atoms: C_2  and  C_3
REMARK    3  A    between atoms: C_3  and  C_4
REMARK    4  A    between atoms: C_4  and  C_5
REMARK    5  A    between atoms: C_5  and  C_6
REMARK    6  A    between atoms: C_6  and  C_7
REMARK    7  A    between atoms: C_7  and  C_8
REMARK    8  A    between atoms: C_7  and  C_9
REMARK    9  A    between atoms: C_10  and  C_11
REMARK   10  A    between atoms: C_10  and  C_12
REMARK   11  A    between atoms: C_12  and  O_14
REMARK   12  A    between atoms: O_14  and  C_15
REMARK   13  A    between atoms: C_15  and  C_16
REMARK   14  A    between atoms: C_22  and  C_23
REMARK   15  A    between atoms: C_24  and  C_25
REMARK   16  A    between atoms: C_29  and  O_30
REMARK                            x       y       z     vdW  Elec       q    Type
REMARK                         _______ _______ _______ _____ _____    ______ ____
ROOT
ATOM      1  C   UNL     1       0.244  10.631  20.421  0.00  0.00    +0.000 C 
ATOM      2  C   UNL     1       0.580  12.110  20.723  0.00  0.00    +0.000 C 
ATOM      3  C   UNL     1       0.682   9.823  21.676  0.00  0.00    +0.000 C 
ATOM      4  O   UNL     1       0.490  10.222  22.827  0.00  0.00    +0.000 OA
ATOM      5  C   UNL     1       1.322   8.486  21.522  0.00  0.00    +0.000 C 
ATOM      6  C   UNL     1       1.733   8.015  20.337  0.00  0.00    +0.000 C 
ATOM      7  C   UNL     1       2.181   6.625  20.195  0.00  0.00    +0.000 C 
ATOM      8  C   UNL     1       2.480   6.177  18.954  0.00  0.00    +0.000 C 
ATOM      9  O   UNL     1       2.528   7.014  17.846  0.00  0.00    +0.000 OA
ATOM     10  C   UNL     1       2.131   8.329  17.996  0.00  0.00    +0.000 C 
ATOM     11  C   UNL     1       1.682   8.850  19.151  0.00  0.00    +0.000 C 
ATOM     12  C   UNL     1       1.129  10.238  19.197  0.00  0.00    +0.000 C 
ATOM     13  O   UNL     1       1.395  11.033  18.290  0.00  0.00    +0.000 OA
ENDROOT
BRANCH   8  14
ATOM     14  C   UNL     1       2.627   4.726  18.663  0.00  0.00    +0.000 A 
ATOM     15  C   UNL     1       1.816   3.772  19.323  0.00  0.00    +0.000 A 
ATOM     16  C   UNL     1       0.728   4.131  20.301  0.00  0.00    +0.000 C 
ATOM     17  C   UNL     1       2.027   2.400  19.083  0.00  0.00    +0.000 A 
ATOM     18  C   UNL     1       2.987   1.965  18.175  0.00  0.00    +0.000 A 
ATOM     19  C   UNL     1       3.754   2.906  17.478  0.00  0.00    +0.000 A 
ATOM     20  C   UNL     1       3.566   4.269  17.725  0.00  0.00    +0.000 A 
BRANCH  20  21
ATOM     21  O   UNL     1       4.330   5.167  17.025  0.00  0.00    +0.000 OA
ATOM     22  H   UNL     1       4.410   4.858  16.118  0.00  0.00    +0.000 HD
ENDBRANCH  20  21
ENDBRANCH   8  14
BRANCH   1  23
ATOM     23  O   UNL     1      -1.204  10.702  20.235  0.00  0.00    +0.000 OA
BRANCH  23  24
ATOM     24  C   UNL     1      -1.772  11.884  19.912  0.00  0.00    +0.000 C 
ATOM     25  O   UNL     1      -1.638  12.401  18.810  0.00  0.00    +0.000 OA
BRANCH  24  27
ATOM     26  C   UNL     1      -2.417  12.550  22.345  0.00  0.00    +0.000 C 
ATOM     27  C   UNL     1      -2.628  12.525  21.002  0.00  0.00    +0.000 C 
ATOM     28  C   UNL     1      -3.852  13.177  20.394  0.00  0.00    +0.000 C 
BRANCH  26  29
ATOM     29  C   UNL     1      -3.332  13.288  23.350  0.00  0.00    +0.000 C 
ATOM     30  C   UNL     1      -4.108  12.287  24.231  0.00  0.00    +0.000 C 
BRANCH  29  31
ATOM     31  C   UNL     1      -2.687  14.328  24.302  0.00  0.00    +0.000 C 
BRANCH  31  32
ATOM     32  C   UNL     1      -1.218  14.705  24.094  0.00  0.00    +0.000 C 
BRANCH  32  33
ATOM     33  C   UNL     1      -0.938  15.903  23.174  0.00  0.00    +0.000 C 
BRANCH  33  34
ATOM     34  C   UNL     1      -0.156  15.428  21.936  0.00  0.00    +0.000 C 
BRANCH  34  36
ATOM     35  C   UNL     1      -0.622  15.651  19.466  0.00  0.00    +0.000 C 
ATOM     36  C   UNL     1      -0.243  16.386  20.749  0.00  0.00    +0.000 C 
ENDBRANCH  34  36
ENDBRANCH  33  34
ENDBRANCH  32  33
ENDBRANCH  31  32
ENDBRANCH  29  31
ENDBRANCH  26  29
ENDBRANCH  24  27
ENDBRANCH  23  24
ENDBRANCH   1  23
TORSDOF 11
ENDMDL
MODEL 5
REMARK VINA RESULT:      -7.5      4.066     11.081
REMARK  Name = 
REMARK  16 active torsions:
REMARK  status: ('A' for Active; 'I' for Inactive)
REMARK    1  A    between atoms: C_1  and  C_2
REMARK    2  A    between atoms: C_2  and  C_3
REMARK    3  A    between atoms: C_3  and  C_4
REMARK    4  A    between atoms: C_4  and  C_5
REMARK    5  A    between atoms: C_5  and  C_6
REMARK    6  A    between atoms: C_6  and  C_7
REMARK    7  A    between atoms: C_7  and  C_8
REMARK    8  A    between atoms: C_7  and  C_9
REMARK    9  A    between atoms: C_10  and  C_11
REMARK   10  A    between atoms: C_10  and  C_12
REMARK   11  A    between atoms: C_12  and  O_14
REMARK   12  A    between atoms: O_14  and  C_15
REMARK   13  A    between atoms: C_15  and  C_16
REMARK   14  A    between atoms: C_22  and  C_23
REMARK   15  A    between atoms: C_24  and  C_25
REMARK   16  A    between atoms: C_29  and  O_30
REMARK                            x       y       z     vdW  Elec       q    Type
REMARK                         _______ _______ _______ _____ _____    ______ ____
ROOT
ATOM      1  C   UNL     1       0.346  10.558  20.125  0.00  0.00    +0.000 C 
ATOM      2  C   UNL     1       0.691  12.037  20.413  0.00  0.00    +0.000 C 
ATOM      3  C   UNL     1       0.674   9.775  21.428  0.00  0.00    +0.000 C 
ATOM      4  O   UNL     1       0.407  10.209  22.552  0.00  0.00    +0.000 OA
ATOM      5  C   UNL     1       1.294   8.422  21.357  0.00  0.00    +0.000 C 
ATOM      6  C   UNL     1       1.780   7.911  20.217  0.00  0.00    +0.000 C 
ATOM      7  C   UNL     1       2.206   6.509  20.144  0.00  0.00    +0.000 C 
ATOM      8  C   UNL     1       2.585   6.022  18.939  0.00  0.00    +0.000 C 
ATOM      9  O   UNL     1       2.732   6.828  17.817  0.00  0.00    +0.000 OA
ATOM     10  C   UNL     1       2.354   8.154  17.904  0.00  0.00    +0.000 C 
ATOM     11  C   UNL     1       1.834   8.715  19.009  0.00  0.00    +0.000 C 
ATOM     12  C   UNL     1       1.308  10.114  18.979  0.00  0.00    +0.000 C 
ATOM     13  O   UNL     1       1.657  10.879  18.075  0.00  0.00    +0.000 OA
ENDROOT
BRANCH   8  14
ATOM     14  C   UNL     1       2.721   4.561  18.697  0.00  0.00    +0.000 A 
ATOM     15  C   UNL     1       1.881   3.638  19.363  0.00  0.00    +0.000 A 
ATOM     16  C   UNL     1       0.771   4.040  20.300  0.00  0.00    +0.000 C 
ATOM     17  C   UNL     1       2.080   2.256  19.172  0.00  0.00    +0.000 A 
ATOM     18  C   UNL     1       3.059   1.782  18.304  0.00  0.00    +0.000 A 
ATOM     19  C   UNL     1       3.857   2.692  17.600  0.00  0.00    +0.000 A 
ATOM     20  C   UNL     1       3.680   4.064  17.800  0.00  0.00    +0.000 A 
BRANCH  20  21
ATOM     21  O   UNL     1       4.473   4.931  17.095  0.00  0.00    +0.000 OA
ATOM     22  H   UNL     1       5.389   4.651  17.188  0.00  0.00    +0.000 HD
ENDBRANCH  20  21
ENDBRANCH   8  14
BRANCH   1  23
ATOM     23  O   UNL     1      -1.083  10.652  19.832  0.00  0.00    +0.000 OA
BRANCH  23  24
ATOM     24  C   UNL     1      -1.622  11.858  19.555  0.00  0.00    +0.000 C 
ATOM     25  O   UNL     1      -1.292  12.520  18.579  0.00  0.00    +0.000 OA
BRANCH  24  27
ATOM     26  C   UNL     1      -2.598  12.609  21.848  0.00  0.00    +0.000 C 
ATOM     27  C   UNL     1      -2.704  12.336  20.521  0.00  0.00    +0.000 C 
ATOM     28  C   UNL     1      -4.029  12.476  19.800  0.00  0.00    +0.000 C 
BRANCH  26  29
ATOM     29  C   UNL     1      -3.761  13.148  22.715  0.00  0.00    +0.000 C 
ATOM     30  C   UNL     1      -3.794  12.452  24.092  0.00  0.00    +0.000 C 
BRANCH  29  31
ATOM     31  C   UNL     1      -3.837  14.675  22.974  0.00  0.00    +0.000 C 
BRANCH  31  32
ATOM     32  C   UNL     1      -4.934  15.212  23.897  0.00  0.00    +0.000 C 
BRANCH  32  33
ATOM     33  C   UNL     1      -6.385  15.004  23.435  0.00  0.00    +0.000 C 
BRANCH  33  34
ATOM     34  C   UNL     1      -6.505  15.367  21.944  0.00  0.00    +0.000 C 
BRANCH  34  36
ATOM     35  C   UNL     1      -7.398  13.007  21.916  0.00  0.00    +0.000 C 
ATOM     36  C   UNL     1      -7.041  14.230  21.075  0.00  0.00    +0.000 C 
ENDBRANCH  34  36
ENDBRANCH  33  34
ENDBRANCH  32  33
ENDBRANCH  31  32
ENDBRANCH  29  31
ENDBRANCH  26  29
ENDBRANCH  24  27
ENDBRANCH  23  24
ENDBRANCH   1  23
TORSDOF 11
ENDMDL
MODEL 6
REMARK VINA RESULT:      -7.4      3.651     10.361
REMARK  Name = 
REMARK  16 active torsions:
REMARK  status: ('A' for Active; 'I' for Inactive)
REMARK    1  A    between atoms: C_1  and  C_2
REMARK    2  A    between atoms: C_2  and  C_3
REMARK    3  A    between atoms: C_3  and  C_4
REMARK    4  A    between atoms: C_4  and  C_5
REMARK    5  A    between atoms: C_5  and  C_6
REMARK    6  A    between atoms: C_6  and  C_7
REMARK    7  A    between atoms: C_7  and  C_8
REMARK    8  A    between atoms: C_7  and  C_9
REMARK    9  A    between atoms: C_10  and  C_11
REMARK   10  A    between atoms: C_10  and  C_12
REMARK   11  A    between atoms: C_12  and  O_14
REMARK   12  A    between atoms: O_14  and  C_15
REMARK   13  A    between atoms: C_15  and  C_16
REMARK   14  A    between atoms: C_22  and  C_23
REMARK   15  A    between atoms: C_24  and  C_25
REMARK   16  A    between atoms: C_29  and  O_30
REMARK                            x       y       z     vdW  Elec       q    Type
REMARK                         _______ _______ _______ _____ _____    ______ ____
ROOT
ATOM      1  C   UNL     1       0.296  10.400  20.351  0.00  0.00    +0.000 C 
ATOM      2  C   UNL     1       0.611  11.883  20.654  0.00  0.00    +0.000 C 
ATOM      3  C   UNL     1       0.731   9.599  21.611  0.00  0.00    +0.000 C 
ATOM      4  O   UNL     1       0.522   9.997  22.759  0.00  0.00    +0.000 OA
ATOM      5  C   UNL     1       1.388   8.269  21.465  0.00  0.00    +0.000 C 
ATOM      6  C   UNL     1       1.817   7.802  20.285  0.00  0.00    +0.000 C 
ATOM      7  C   UNL     1       2.282   6.417  20.150  0.00  0.00    +0.000 C 
ATOM      8  C   UNL     1       2.599   5.971  18.912  0.00  0.00    +0.000 C 
ATOM      9  O   UNL     1       2.649   6.808  17.803  0.00  0.00    +0.000 OA
ATOM     10  C   UNL     1       2.235   8.118  17.948  0.00  0.00    +0.000 C 
ATOM     11  C   UNL     1       1.768   8.635  19.097  0.00  0.00    +0.000 C 
ATOM     12  C   UNL     1       1.197  10.017  19.136  0.00  0.00    +0.000 C 
ATOM     13  O   UNL     1       1.463  10.813  18.231  0.00  0.00    +0.000 OA
ENDROOT
BRANCH   8  14
ATOM     14  C   UNL     1       2.767   4.521  18.624  0.00  0.00    +0.000 A 
ATOM     15  C   UNL     1       1.956   3.560  19.272  0.00  0.00    +0.000 A 
ATOM     16  C   UNL     1       0.848   3.907  20.232  0.00  0.00    +0.000 C 
ATOM     17  C   UNL     1       2.186   2.189  19.037  0.00  0.00    +0.000 A 
ATOM     18  C   UNL     1       3.165   1.764  18.144  0.00  0.00    +0.000 A 
ATOM     19  C   UNL     1       3.932   2.713  17.459  0.00  0.00    +0.000 A 
ATOM     20  C   UNL     1       3.726   4.075  17.702  0.00  0.00    +0.000 A 
BRANCH  20  21
ATOM     21  O   UNL     1       4.490   4.981  17.014  0.00  0.00    +0.000 OA
ATOM     22  H   UNL     1       5.391   4.938  17.350  0.00  0.00    +0.000 HD
ENDBRANCH  20  21
ENDBRANCH   8  14
BRANCH   1  23
ATOM     23  O   UNL     1      -1.152  10.453  20.150  0.00  0.00    +0.000 OA
BRANCH  23  24
ATOM     24  C   UNL     1      -1.638  10.769  18.931  0.00  0.00    +0.000 C 
ATOM     25  O   UNL     1      -1.183  10.297  17.897  0.00  0.00    +0.000 OA
BRANCH  24  27
ATOM     26  C   UNL     1      -4.080  11.529  18.444  0.00  0.00    +0.000 C 
ATOM     27  C   UNL     1      -2.824  11.732  18.923  0.00  0.00    +0.000 C 
ATOM     28  C   UNL     1      -2.430  13.058  19.540  0.00  0.00    +0.000 C 
BRANCH  26  29
ATOM     29  C   UNL     1      -5.221  12.569  18.546  0.00  0.00    +0.000 C 
ATOM     30  C   UNL     1      -6.005  12.662  17.221  0.00  0.00    +0.000 C 
BRANCH  29  31
ATOM     31  C   UNL     1      -6.264  12.403  19.682  0.00  0.00    +0.000 C 
BRANCH  31  32
ATOM     32  C   UNL     1      -5.767  12.208  21.116  0.00  0.00    +0.000 C 
BRANCH  32  33
ATOM     33  C   UNL     1      -5.266  13.463  21.847  0.00  0.00    +0.000 C 
BRANCH  33  34
ATOM     34  C   UNL     1      -4.768  13.075  23.252  0.00  0.00    +0.000 C 
BRANCH  34  36
ATOM     35  C   UNL     1      -2.503  11.983  23.044  0.00  0.00    +0.000 C 
ATOM     36  C   UNL     1      -3.261  13.247  23.439  0.00  0.00    +0.000 C 
ENDBRANCH  34  36
ENDBRANCH  33  34
ENDBRANCH  32  33
ENDBRANCH  31  32
ENDBRANCH  29  31
ENDBRANCH  26  29
ENDBRANCH  24  27
ENDBRANCH  23  24
ENDBRANCH   1  23
TORSDOF 11
ENDMDL
MODEL 7
REMARK VINA RESULT:      -7.3      2.513      5.026
REMARK  Name = 
REMARK  16 active torsions:
REMARK  status: ('A' for Active; 'I' for Inactive)
REMARK    1  A    between atoms: C_1  and  C_2
REMARK    2  A    between atoms: C_2  and  C_3
REMARK    3  A    between atoms: C_3  and  C_4
REMARK    4  A    between atoms: C_4  and  C_5
REMARK    5  A    between atoms: C_5  and  C_6
REMARK    6  A    between atoms: C_6  and  C_7
REMARK    7  A    between atoms: C_7  and  C_8
REMARK    8  A    between atoms: C_7  and  C_9
REMARK    9  A    between atoms: C_10  and  C_11
REMARK   10  A    between atoms: C_10  and  C_12
REMARK   11  A    between atoms: C_12  and  O_14
REMARK   12  A    between atoms: O_14  and  C_15
REMARK   13  A    between atoms: C_15  and  C_16
REMARK   14  A    between atoms: C_22  and  C_23
REMARK   15  A    between atoms: C_24  and  C_25
REMARK   16  A    between atoms: C_29  and  O_30
REMARK                            x       y       z     vdW  Elec       q    Type
REMARK                         _______ _______ _______ _____ _____    ______ ____
ROOT
ATOM      1  C   UNL     1       2.609   6.377  18.809  0.00  0.00    +0.000 C 
ATOM      2  C   UNL     1       3.906   5.637  19.213  0.00  0.00    +0.000 C 
ATOM      3  C   UNL     1       3.060   7.671  18.074  0.00  0.00    +0.000 C 
ATOM      4  O   UNL     1       3.996   7.691  17.271  0.00  0.00    +0.000 OA
ATOM      5  C   UNL     1       2.328   8.951  18.290  0.00  0.00    +0.000 C 
ATOM      6  C   UNL     1       1.407   9.102  19.252  0.00  0.00    +0.000 C 
ATOM      7  C   UNL     1       0.574  10.308  19.311  0.00  0.00    +0.000 C 
ATOM      8  C   UNL     1      -0.412  10.355  20.238  0.00  0.00    +0.000 C 
ATOM      9  O   UNL     1      -0.562   9.386  21.222  0.00  0.00    +0.000 OA
ATOM     10  C   UNL     1       0.247   8.267  21.174  0.00  0.00    +0.000 C 
ATOM     11  C   UNL     1       1.167   8.046  20.218  0.00  0.00    +0.000 C 
ATOM     12  C   UNL     1       1.896   6.743  20.148  0.00  0.00    +0.000 C 
ATOM     13  O   UNL     1       1.932   6.008  21.139  0.00  0.00    +0.000 OA
ENDROOT
BRANCH   8  14
ATOM     14  C   UNL     1      -1.498  11.369  20.171  0.00  0.00    +0.000 A 
ATOM     15  C   UNL     1      -1.561  12.420  21.117  0.00  0.00    +0.000 A 
ATOM     16  C   UNL     1      -0.537  12.635  22.201  0.00  0.00    +0.000 C 
ATOM     17  C   UNL     1      -2.641  13.324  21.076  0.00  0.00    +0.000 A 
ATOM     18  C   UNL     1      -3.623  13.231  20.094  0.00  0.00    +0.000 A 
ATOM     19  C   UNL     1      -3.535  12.227  19.123  0.00  0.00    +0.000 A 
ATOM     20  C   UNL     1      -2.478  11.313  19.169  0.00  0.00    +0.000 A 
BRANCH  20  21
ATOM     21  O   UNL     1      -2.417  10.342  18.203  0.00  0.00    +0.000 OA
ATOM     22  H   UNL     1      -3.297   9.970  18.088  0.00  0.00    +0.000 HD
ENDBRANCH  20  21
ENDBRANCH   8  14
BRANCH   1  23
ATOM     23  O   UNL     1       1.979   5.387  17.937  0.00  0.00    +0.000 OA
BRANCH  23  24
ATOM     24  C   UNL     1       2.321   4.087  18.058  0.00  0.00    +0.000 C 
ATOM     25  O   UNL     1       1.643   3.282  18.685  0.00  0.00    +0.000 OA
BRANCH  24  27
ATOM     26  C   UNL     1       4.304   4.352  16.393  0.00  0.00    +0.000 C 
ATOM     27  C   UNL     1       3.597   3.668  17.330  0.00  0.00    +0.000 C 
ATOM     28  C   UNL     1       4.032   2.289  17.781  0.00  0.00    +0.000 C 
BRANCH  26  29
ATOM     29  C   UNL     1       5.624   3.845  15.766  0.00  0.00    +0.000 C 
ATOM     30  C   UNL     1       5.674   4.153  14.255  0.00  0.00    +0.000 C 
BRANCH  29  31
ATOM     31  C   UNL     1       6.962   4.338  16.376  0.00  0.00    +0.000 C 
BRANCH  31  32
ATOM     32  C   UNL     1       6.928   5.461  17.416  0.00  0.00    +0.000 C 
BRANCH  32  33
ATOM     33  C   UNL     1       7.395   6.848  16.948  0.00  0.00    +0.000 C 
BRANCH  33  34
ATOM     34  C   UNL     1       8.048   7.594  18.126  0.00  0.00    +0.000 C 
BRANCH  34  36
ATOM     35  C   UNL     1       9.115   9.759  18.862  0.00  0.00    +0.000 C 
ATOM     36  C   UNL     1       8.075   9.112  17.952  0.00  0.00    +0.000 C 
ENDBRANCH  34  36
ENDBRANCH  33  34
ENDBRANCH  32  33
ENDBRANCH  31  32
ENDBRANCH  29  31
ENDBRANCH  26  29
ENDBRANCH  24  27
ENDBRANCH  23  24
ENDBRANCH   1  23
TORSDOF 11
ENDMDL
MODEL 8
REMARK VINA RESULT:      -7.3      3.812      7.089
REMARK  Name = 
REMARK  16 active torsions:
REMARK  status: ('A' for Active; 'I' for Inactive)
REMARK    1  A    between atoms: C_1  and  C_2
REMARK    2  A    between atoms: C_2  and  C_3
REMARK    3  A    between atoms: C_3  and  C_4
REMARK    4  A    between atoms: C_4  and  C_5
REMARK    5  A    between atoms: C_5  and  C_6
REMARK    6  A    between atoms: C_6  and  C_7
REMARK    7  A    between atoms: C_7  and  C_8
REMARK    8  A    between atoms: C_7  and  C_9
REMARK    9  A    between atoms: C_10  and  C_11
REMARK   10  A    between atoms: C_10  and  C_12
REMARK   11  A    between atoms: C_12  and  O_14
REMARK   12  A    between atoms: O_14  and  C_15
REMARK   13  A    between atoms: C_15  and  C_16
REMARK   14  A    between atoms: C_22  and  C_23
REMARK   15  A    between atoms: C_24  and  C_25
REMARK   16  A    between atoms: C_29  and  O_30
REMARK                            x       y       z     vdW  Elec       q    Type
REMARK                         _______ _______ _______ _____ _____    ______ ____
ROOT
ATOM      1  C   UNL     1       0.198   9.377  20.775  0.00  0.00    +0.000 C 
ATOM      2  C   UNL     1      -0.663   8.204  21.298  0.00  0.00    +0.000 C 
ATOM      3  C   UNL     1       0.428  10.321  21.990  0.00  0.00    +0.000 C 
ATOM      4  O   UNL     1       0.672   9.902  23.123  0.00  0.00    +0.000 OA
ATOM      5  C   UNL     1       0.403  11.800  21.807  0.00  0.00    +0.000 C 
ATOM      6  C   UNL     1      -0.011  12.379  20.671  0.00  0.00    +0.000 C 
ATOM      7  C   UNL     1       0.159  13.821  20.459  0.00  0.00    +0.000 C 
ATOM      8  C   UNL     1      -0.178  14.329  19.251  0.00  0.00    +0.000 C 
ATOM      9  O   UNL     1      -0.816  13.576  18.272  0.00  0.00    +0.000 OA
ATOM     10  C   UNL     1      -0.996  12.225  18.494  0.00  0.00    +0.000 C 
ATOM     11  C   UNL     1      -0.577  11.583  19.598  0.00  0.00    +0.000 C 
ATOM     12  C   UNL     1      -0.674  10.094  19.698  0.00  0.00    +0.000 C 
ATOM     13  O   UNL     1      -1.440   9.480  18.951  0.00  0.00    +0.000 OA
ENDROOT
BRANCH   8  14
ATOM     14  C   UNL     1       0.250  15.690  18.830  0.00  0.00    +0.000 A 
ATOM     15  C   UNL     1       1.578  15.929  18.405  0.00  0.00    +0.000 A 
ATOM     16  C   UNL     1       2.627  14.853  18.287  0.00  0.00    +0.000 C 
ATOM     17  C   UNL     1       1.977  17.241  18.083  0.00  0.00    +0.000 A 
ATOM     18  C   UNL     1       1.076  18.301  18.130  0.00  0.00    +0.000 A 
ATOM     19  C   UNL     1      -0.253  18.061  18.496  0.00  0.00    +0.000 A 
ATOM     20  C   UNL     1      -0.652  16.765  18.838  0.00  0.00    +0.000 A 
BRANCH  20  21
ATOM     21  O   UNL     1      -1.961  16.560  19.190  0.00  0.00    +0.000 OA
ATOM     22  H   UNL     1      -1.992  16.317  20.120  0.00  0.00    +0.000 HD
ENDBRANCH  20  21
ENDBRANCH   8  14
BRANCH   1  23
ATOM     23  O   UNL     1       1.401   8.671  20.336  0.00  0.00    +0.000 OA
BRANCH  23  24
ATOM     24  C   UNL     1       1.840   8.839  19.070  0.00  0.00    +0.000 C 
ATOM     25  O   UNL     1       1.631   9.862  18.430  0.00  0.00    +0.000 OA
BRANCH  24  27
ATOM     26  C   UNL     1       2.722   6.394  18.924  0.00  0.00    +0.000 C 
ATOM     27  C   UNL     1       2.652   7.682  18.493  0.00  0.00    +0.000 C 
ATOM     28  C   UNL     1       3.456   8.147  17.297  0.00  0.00    +0.000 C 
BRANCH  26  29
ATOM     29  C   UNL     1       3.540   5.289  18.215  0.00  0.00    +0.000 C 
ATOM     30  C   UNL     1       4.504   4.596  19.200  0.00  0.00    +0.000 C 
BRANCH  29  31
ATOM     31  C   UNL     1       2.769   4.170  17.469  0.00  0.00    +0.000 C 
BRANCH  31  32
ATOM     32  C   UNL     1       1.350   3.822  17.926  0.00  0.00    +0.000 C 
BRANCH  32  33
ATOM     33  C   UNL     1       1.226   2.813  19.079  0.00  0.00    +0.000 C 
BRANCH  33  34
ATOM     34  C   UNL     1       0.768   3.545  20.354  0.00  0.00    +0.000 C 
BRANCH  34  36
ATOM     35  C   UNL     1       2.677   2.463  21.599  0.00  0.00    +0.000 C 
ATOM     36  C   UNL     1       1.882   3.746  21.381  0.00  0.00    +0.000 C 
ENDBRANCH  34  36
ENDBRANCH  33  34
ENDBRANCH  32  33
ENDBRANCH  31  32
ENDBRANCH  29  31
ENDBRANCH  26  29
ENDBRANCH  24  27
ENDBRANCH  23  24
ENDBRANCH   1  23
TORSDOF 11
ENDMDL
MODEL 9
REMARK VINA RESULT:      -7.2      3.288      6.690
REMARK  Name = 
REMARK  16 active torsions:
REMARK  status: ('A' for Active; 'I' for Inactive)
REMARK    1  A    between atoms: C_1  and  C_2
REMARK    2  A    between atoms: C_2  and  C_3
REMARK    3  A    between atoms: C_3  and  C_4
REMARK    4  A    between atoms: C_4  and  C_5
REMARK    5  A    between atoms: C_5  and  C_6
REMARK    6  A    between atoms: C_6  and  C_7
REMARK    7  A    between atoms: C_7  and  C_8
REMARK    8  A    between atoms: C_7  and  C_9
REMARK    9  A    between atoms: C_10  and  C_11
REMARK   10  A    between atoms: C_10  and  C_12
REMARK   11  A    between atoms: C_12  and  O_14
REMARK   12  A    between atoms: O_14  and  C_15
REMARK   13  A    between atoms: C_15  and  C_16
REMARK   14  A    between atoms: C_22  and  C_23
REMARK   15  A    between atoms: C_24  and  C_25
REMARK   16  A    between atoms: C_29  and  O_30
REMARK                            x       y       z     vdW  Elec       q    Type
REMARK                         _______ _______ _______ _____ _____    ______ ____
ROOT
ATOM      1  C   UNL     1       0.107   9.542  21.013  0.00  0.00    +0.000 C 
ATOM      2  C   UNL     1      -0.771   8.330  21.404  0.00  0.00    +0.000 C 
ATOM      3  C   UNL     1       0.024  10.539  22.204  0.00  0.00    +0.000 C 
ATOM      4  O   UNL     1       0.056  10.175  23.382  0.00  0.00    +0.000 OA
ATOM      5  C   UNL     1      -0.052  12.005  21.952  0.00  0.00    +0.000 C 
ATOM      6  C   UNL     1      -0.259  12.517  20.731  0.00  0.00    +0.000 C 
ATOM      7  C   UNL     1      -0.136  13.960  20.490  0.00  0.00    +0.000 C 
ATOM      8  C   UNL     1      -0.249  14.403  19.217  0.00  0.00    +0.000 C 
ATOM      9  O   UNL     1      -0.625  13.577  18.165  0.00  0.00    +0.000 OA
ATOM     10  C   UNL     1      -0.765  12.224  18.408  0.00  0.00    +0.000 C 
ATOM     11  C   UNL     1      -0.543  11.650  19.603  0.00  0.00    +0.000 C 
ATOM     12  C   UNL     1      -0.567  10.162  19.749  0.00  0.00    +0.000 C 
ATOM     13  O   UNL     1      -1.126   9.472  18.892  0.00  0.00    +0.000 OA
ENDROOT
BRANCH   8  14
ATOM     14  C   UNL     1       0.173  15.776  18.829  0.00  0.00    +0.000 A 
ATOM     15  C   UNL     1       1.500  16.031  18.412  0.00  0.00    +0.000 A 
ATOM     16  C   UNL     1       2.554  14.964  18.269  0.00  0.00    +0.000 C 
ATOM     17  C   UNL     1       1.893  17.353  18.121  0.00  0.00    +0.000 A 
ATOM     18  C   UNL     1       0.987  18.408  18.193  0.00  0.00    +0.000 A 
ATOM     19  C   UNL     1      -0.341  18.152  18.552  0.00  0.00    +0.000 A 
ATOM     20  C   UNL     1      -0.734  16.847  18.862  0.00  0.00    +0.000 A 
BRANCH  20  21
ATOM     21  O   UNL     1      -2.042  16.627  19.208  0.00  0.00    +0.000 OA
ATOM     22  H   UNL     1      -2.089  16.500  20.160  0.00  0.00    +0.000 HD
ENDBRANCH  20  21
ENDBRANCH   8  14
BRANCH   1  23
ATOM     23  O   UNL     1       1.414   8.906  20.859  0.00  0.00    +0.000 OA
BRANCH  23  24
ATOM     24  C   UNL     1       1.778   8.427  19.651  0.00  0.00    +0.000 C 
ATOM     25  O   UNL     1       1.864   9.139  18.658  0.00  0.00    +0.000 OA
BRANCH  24  27
ATOM     26  C   UNL     1       2.720   6.234  18.613  0.00  0.00    +0.000 C 
ATOM     27  C   UNL     1       2.112   6.938  19.603  0.00  0.00    +0.000 C 
ATOM     28  C   UNL     1       1.647   6.253  20.872  0.00  0.00    +0.000 C 
BRANCH  26  29
ATOM     29  C   UNL     1       3.060   4.727  18.706  0.00  0.00    +0.000 C 
ATOM     30  C   UNL     1       2.830   4.023  17.353  0.00  0.00    +0.000 C 
BRANCH  29  31
ATOM     31  C   UNL     1       4.476   4.324  19.195  0.00  0.00    +0.000 C 
BRANCH  31  32
ATOM     32  C   UNL     1       5.596   5.366  19.147  0.00  0.00    +0.000 C 
BRANCH  32  33
ATOM     33  C   UNL     1       6.436   5.416  17.861  0.00  0.00    +0.000 C 
BRANCH  33  34
ATOM     34  C   UNL     1       6.066   6.675  17.056  0.00  0.00    +0.000 C 
BRANCH  34  36
ATOM     35  C   UNL     1       5.662   5.152  15.084  0.00  0.00    +0.000 C 
ATOM     36  C   UNL     1       5.186   6.390  15.840  0.00  0.00    +0.000 C 
ENDBRANCH  34  36
ENDBRANCH  33  34
ENDBRANCH  32  33
ENDBRANCH  31  32
ENDBRANCH  29  31
ENDBRANCH  26  29
ENDBRANCH  24  27
ENDBRANCH  23  24
ENDBRANCH   1  23
TORSDOF 11
ENDMDL
