MODEL 1
REMARK VINA RESULT:      -7.8      0.000      0.000
REMARK  Name = 
REMARK  12 active torsions:
REMARK  status: ('A' for Active; 'I' for Inactive)
REMARK    1  A    between atoms: C_1  and  C_2
REMARK    2  A    between atoms: C_2  and  C_3
REMARK    3  A    between atoms: C_3  and  O_4
REMARK    4  A    between atoms: O_4  and  C_5
REMARK    5  A    between atoms: N_13  and  C_14
REMARK    6  A    between atoms: C_14  and  C_15
REMARK    7  A    between atoms: C_15  and  N_16
REMARK    8  A    between atoms: N_16  and  C_17
REMARK    9  A    between atoms: N_16  and  C_19
REMARK   10  A    between atoms: C_17  and  C_18
REMARK   11  A    between atoms: C_19  and  C_20
REMARK   12  A    between atoms: C_24  and  N_25
REMARK                            x       y       z     vdW  Elec       q    Type
REMARK                         _______ _______ _______ _____ _____    ______ ____
ROOT
ATOM      1  C   UNL     1       0.488  10.136  20.370  0.00  0.00    +0.000 A 
ATOM      2  C   UNL     1      -0.044   9.416  21.450  0.00  0.00    +0.000 A 
ATOM      3  C   UNL     1       0.292   8.076  21.660  0.00  0.00    +0.000 A 
ATOM      4  C   UNL     1       1.146   7.426  20.773  0.00  0.00    +0.000 A 
ATOM      5  C   UNL     1       1.706   8.164  19.674  0.00  0.00    +0.000 A 
ATOM      6  C   UNL     1       1.373   9.507  19.484  0.00  0.00    +0.000 A 
ATOM      7  C   UNL     1       2.604   7.422  18.787  0.00  0.00    +0.000 A 
ATOM      8  N   UNL     1       3.269   7.799  17.690  0.00  0.00    +0.000 NA
ATOM      9  N   UNL     1       3.949   6.669  17.320  0.00  0.00    +0.000 N 
ATOM     10  C   UNL     1       3.721   5.582  18.142  0.00  0.00    +0.000 A 
ATOM     11  C   UNL     1       4.164   4.260  18.216  0.00  0.00    +0.000 A 
ATOM     12  C   UNL     1       3.657   3.480  19.281  0.00  0.00    +0.000 A 
ATOM     13  C   UNL     1       2.760   4.011  20.240  0.00  0.00    +0.000 A 
ATOM     14  C   UNL     1       2.327   5.337  20.155  0.00  0.00    +0.000 A 
ATOM     15  C   UNL     1       2.845   6.071  19.085  0.00  0.00    +0.000 A 
ATOM     16  N   UNL     1       1.532   6.071  21.041  0.00  0.00    +0.000 N 
ATOM     17  H   UNL     1       0.872   5.532  21.600  0.00  0.00    +0.000 HD
ENDROOT
BRANCH  13  18
ATOM     18  N   UNL     1       2.260   3.137  21.308  0.00  0.00    +0.000 N 
ATOM     19  O   UNL     1       3.092   2.483  21.952  0.00  0.00    +0.000 OA
ATOM     20  O   UNL     1       1.034   3.078  21.495  0.00  0.00    +0.000 OA
ENDBRANCH  13  18
BRANCH   1  21
ATOM     21  O   UNL     1       0.213  11.453  20.095  0.00  0.00    +0.000 OA
BRANCH  21  22
ATOM     22  C   UNL     1      -0.203  11.741  18.758  0.00  0.00    +0.000 C 
BRANCH  22  24
ATOM     23  C   UNL     1      -1.774  10.252  17.486  0.00  0.00    +0.000 C 
ATOM     24  C   UNL     1      -1.654  11.308  18.573  0.00  0.00    +0.000 C 
ENDBRANCH  22  24
ENDBRANCH  21  22
ENDBRANCH   1  21
BRANCH   9  25
ATOM     25  C   UNL     1       4.923   6.748  16.236  0.00  0.00    +0.000 C 
BRANCH  25  26
ATOM     26  C   UNL     1       6.372   6.921  16.725  0.00  0.00    +0.000 C 
BRANCH  26  27
ATOM     27  N   UNL     1       7.303   5.798  16.430  0.00  0.00    +0.000 NA
BRANCH  27  28
ATOM     28  C   UNL     1       7.530   4.888  17.565  0.00  0.00    +0.000 C 
ATOM     29  C   UNL     1       7.732   5.551  18.924  0.00  0.00    +0.000 C 
ENDBRANCH  27  28
BRANCH  27  30
ATOM     30  C   UNL     1       6.870   5.113  15.196  0.00  0.00    +0.000 C 
ATOM     31  C   UNL     1       6.312   3.706  15.392  0.00  0.00    +0.000 C 
ENDBRANCH  27  30
ENDBRANCH  26  27
ENDBRANCH  25  26
ENDBRANCH   9  25
TORSDOF 9
ENDMDL
MODEL 2
REMARK VINA RESULT:      -7.4      1.042      1.340
REMARK  Name = 
REMARK  12 active torsions:
REMARK  status: ('A' for Active; 'I' for Inactive)
REMARK    1  A    between atoms: C_1  and  C_2
REMARK    2  A    between atoms: C_2  and  C_3
REMARK    3  A    between atoms: C_3  and  O_4
REMARK    4  A    between atoms: O_4  and  C_5
REMARK    5  A    between atoms: N_13  and  C_14
REMARK    6  A    between atoms: C_14  and  C_15
REMARK    7  A    between atoms: C_15  and  N_16
REMARK    8  A    between atoms: N_16  and  C_17
REMARK    9  A    between atoms: N_16  and  C_19
REMARK   10  A    between atoms: C_17  and  C_18
REMARK   11  A    between atoms: C_19  and  C_20
REMARK   12  A    between atoms: C_24  and  N_25
REMARK                            x       y       z     vdW  Elec       q    Type
REMARK                         _______ _______ _______ _____ _____    ______ ____
ROOT
ATOM      1  C   UNL     1       0.835  10.077  20.065  0.00  0.00    +0.000 A 
ATOM      2  C   UNL     1       0.272   9.426  21.173  0.00  0.00    +0.000 A 
ATOM      3  C   UNL     1       0.545   8.081  21.436  0.00  0.00    +0.000 A 
ATOM      4  C   UNL     1       1.366   7.358  20.575  0.00  0.00    +0.000 A 
ATOM      5  C   UNL     1       1.958   8.024  19.448  0.00  0.00    +0.000 A 
ATOM      6  C   UNL     1       1.688   9.372  19.204  0.00  0.00    +0.000 A 
ATOM      7  C   UNL     1       2.819   7.206  18.591  0.00  0.00    +0.000 A 
ATOM      8  N   UNL     1       3.500   7.508  17.480  0.00  0.00    +0.000 NA
ATOM      9  N   UNL     1       4.125   6.334  17.156  0.00  0.00    +0.000 N 
ATOM     10  C   UNL     1       3.848   5.291  18.021  0.00  0.00    +0.000 A 
ATOM     11  C   UNL     1       4.229   3.955  18.147  0.00  0.00    +0.000 A 
ATOM     12  C   UNL     1       3.689   3.242  19.243  0.00  0.00    +0.000 A 
ATOM     13  C   UNL     1       2.819   3.852  20.179  0.00  0.00    +0.000 A 
ATOM     14  C   UNL     1       2.448   5.192  20.041  0.00  0.00    +0.000 A 
ATOM     15  C   UNL     1       2.998   5.858  18.943  0.00  0.00    +0.000 A 
ATOM     16  N   UNL     1       1.690   5.998  20.897  0.00  0.00    +0.000 N 
ATOM     17  H   UNL     1       1.006   5.512  21.477  0.00  0.00    +0.000 HD
ENDROOT
BRANCH  13  18
ATOM     18  N   UNL     1       2.281   3.045  21.281  0.00  0.00    +0.000 N 
ATOM     19  O   UNL     1       3.079   2.362  21.937  0.00  0.00    +0.000 OA
ATOM     20  O   UNL     1       1.056   3.070  21.485  0.00  0.00    +0.000 OA
ENDBRANCH  13  18
BRANCH   1  21
ATOM     21  O   UNL     1       0.621  11.393  19.738  0.00  0.00    +0.000 OA
BRANCH  21  22
ATOM     22  C   UNL     1       0.293  12.264  20.824  0.00  0.00    +0.000 C 
BRANCH  22  24
ATOM     23  C   UNL     1       1.498  13.724  19.176  0.00  0.00    +0.000 C 
ATOM     24  C   UNL     1       0.881  13.647  20.563  0.00  0.00    +0.000 C 
ENDBRANCH  22  24
ENDBRANCH  21  22
ENDBRANCH   1  21
BRANCH   9  25
ATOM     25  C   UNL     1       5.100   6.324  16.070  0.00  0.00    +0.000 C 
BRANCH  25  26
ATOM     26  C   UNL     1       6.549   6.531  16.544  0.00  0.00    +0.000 C 
BRANCH  26  27
ATOM     27  N   UNL     1       7.432   5.333  16.500  0.00  0.00    +0.000 NA
BRANCH  27  28
ATOM     28  C   UNL     1       7.658   4.701  17.810  0.00  0.00    +0.000 C 
ATOM     29  C   UNL     1       7.644   5.636  19.015  0.00  0.00    +0.000 C 
ENDBRANCH  27  28
BRANCH  27  30
ATOM     30  C   UNL     1       6.942   4.400  15.466  0.00  0.00    +0.000 C 
ATOM     31  C   UNL     1       7.226   4.815  14.024  0.00  0.00    +0.000 C 
ENDBRANCH  27  30
ENDBRANCH  26  27
ENDBRANCH  25  26
ENDBRANCH   9  25
TORSDOF 9
ENDMDL
MODEL 3
REMARK VINA RESULT:      -7.4      0.931      1.508
REMARK  Name = 
REMARK  12 active torsions:
REMARK  status: ('A' for Active; 'I' for Inactive)
REMARK    1  A    between atoms: C_1  and  C_2
REMARK    2  A    between atoms: C_2  and  C_3
REMARK    3  A    between atoms: C_3  and  O_4
REMARK    4  A    between atoms: O_4  and  C_5
REMARK    5  A    between atoms: N_13  and  C_14
REMARK    6  A    between atoms: C_14  and  C_15
REMARK    7  A    between atoms: C_15  and  N_16
REMARK    8  A    between atoms: N_16  and  C_17
REMARK    9  A    between atoms: N_16  and  C_19
REMARK   10  A    between atoms: C_17  and  C_18
REMARK   11  A    between atoms: C_19  and  C_20
REMARK   12  A    between atoms: C_24  and  N_25
REMARK                            x       y       z     vdW  Elec       q    Type
REMARK                         _______ _______ _______ _____ _____    ______ ____
ROOT
ATOM      1  C   UNL     1       0.869   9.886  20.011  0.00  0.00    +0.000 A 
ATOM      2  C   UNL     1       0.335   9.242  21.137  0.00  0.00    +0.000 A 
ATOM      3  C   UNL     1       0.633   7.905  21.412  0.00  0.00    +0.000 A 
ATOM      4  C   UNL     1       1.451   7.183  20.547  0.00  0.00    +0.000 A 
ATOM      5  C   UNL     1       2.013   7.843  19.402  0.00  0.00    +0.000 A 
ATOM      6  C   UNL     1       1.717   9.184  19.145  0.00  0.00    +0.000 A 
ATOM      7  C   UNL     1       2.872   7.028  18.540  0.00  0.00    +0.000 A 
ATOM      8  N   UNL     1       3.529   7.325  17.414  0.00  0.00    +0.000 NA
ATOM      9  N   UNL     1       4.167   6.157  17.094  0.00  0.00    +0.000 N 
ATOM     10  C   UNL     1       3.921   5.122  17.977  0.00  0.00    +0.000 A 
ATOM     11  C   UNL     1       4.325   3.793  18.114  0.00  0.00    +0.000 A 
ATOM     12  C   UNL     1       3.815   3.086  19.228  0.00  0.00    +0.000 A 
ATOM     13  C   UNL     1       2.951   3.695  20.171  0.00  0.00    +0.000 A 
ATOM     14  C   UNL     1       2.558   5.027  20.022  0.00  0.00    +0.000 A 
ATOM     15  C   UNL     1       3.078   5.687  18.906  0.00  0.00    +0.000 A 
ATOM     16  N   UNL     1       1.801   5.832  20.881  0.00  0.00    +0.000 N 
ATOM     17  H   UNL     1       1.135   5.344  21.479  0.00  0.00    +0.000 HD
ENDROOT
BRANCH  13  18
ATOM     18  N   UNL     1       2.445   2.895  21.293  0.00  0.00    +0.000 N 
ATOM     19  O   UNL     1       3.264   2.229  21.941  0.00  0.00    +0.000 OA
ATOM     20  O   UNL     1       1.224   2.905  21.519  0.00  0.00    +0.000 OA
ENDBRANCH  13  18
BRANCH   1  21
ATOM     21  O   UNL     1       0.628  11.195  19.671  0.00  0.00    +0.000 OA
BRANCH  21  22
ATOM     22  C   UNL     1      -0.702  11.497  19.242  0.00  0.00    +0.000 C 
BRANCH  22  24
ATOM     23  C   UNL     1      -2.622  10.622  17.883  0.00  0.00    +0.000 C 
ATOM     24  C   UNL     1      -1.139  10.484  18.189  0.00  0.00    +0.000 C 
ENDBRANCH  22  24
ENDBRANCH  21  22
ENDBRANCH   1  21
BRANCH   9  25
ATOM     25  C   UNL     1       5.123   6.148  15.991  0.00  0.00    +0.000 C 
BRANCH  25  26
ATOM     26  C   UNL     1       6.587   6.035  16.450  0.00  0.00    +0.000 C 
BRANCH  26  27
ATOM     27  N   UNL     1       6.966   6.841  17.643  0.00  0.00    +0.000 NA
BRANCH  27  28
ATOM     28  C   UNL     1       7.589   6.062  18.725  0.00  0.00    +0.000 C 
ATOM     29  C   UNL     1       8.019   4.643  18.365  0.00  0.00    +0.000 C 
ENDBRANCH  27  28
BRANCH  27  30
ATOM     30  C   UNL     1       7.765   8.007  17.215  0.00  0.00    +0.000 C 
ATOM     31  C   UNL     1       8.259   8.910  18.342  0.00  0.00    +0.000 C 
ENDBRANCH  27  30
ENDBRANCH  26  27
ENDBRANCH  25  26
ENDBRANCH   9  25
TORSDOF 9
ENDMDL
MODEL 4
REMARK VINA RESULT:      -7.3      1.261      2.026
REMARK  Name = 
REMARK  12 active torsions:
REMARK  status: ('A' for Active; 'I' for Inactive)
REMARK    1  A    between atoms: C_1  and  C_2
REMARK    2  A    between atoms: C_2  and  C_3
REMARK    3  A    between atoms: C_3  and  O_4
REMARK    4  A    between atoms: O_4  and  C_5
REMARK    5  A    between atoms: N_13  and  C_14
REMARK    6  A    between atoms: C_14  and  C_15
REMARK    7  A    between atoms: C_15  and  N_16
REMARK    8  A    between atoms: N_16  and  C_17
REMARK    9  A    between atoms: N_16  and  C_19
REMARK   10  A    between atoms: C_17  and  C_18
REMARK   11  A    between atoms: C_19  and  C_20
REMARK   12  A    between atoms: C_24  and  N_25
REMARK                            x       y       z     vdW  Elec       q    Type
REMARK                         _______ _______ _______ _____ _____    ______ ____
ROOT
ATOM      1  C   UNL     1       1.065   9.970  19.690  0.00  0.00    +0.000 A 
ATOM      2  C   UNL     1       0.519   9.389  20.843  0.00  0.00    +0.000 A 
ATOM      3  C   UNL     1       0.782   8.056  21.174  0.00  0.00    +0.000 A 
ATOM      4  C   UNL     1       1.577   7.277  20.338  0.00  0.00    +0.000 A 
ATOM      5  C   UNL     1       2.153   7.873  19.164  0.00  0.00    +0.000 A 
ATOM      6  C   UNL     1       1.892   9.209  18.852  0.00  0.00    +0.000 A 
ATOM      7  C   UNL     1       2.986   7.000  18.336  0.00  0.00    +0.000 A 
ATOM      8  N   UNL     1       3.647   7.232  17.196  0.00  0.00    +0.000 NA
ATOM      9  N   UNL     1       4.252   6.034  16.924  0.00  0.00    +0.000 N 
ATOM     10  C   UNL     1       3.982   5.044  17.851  0.00  0.00    +0.000 A 
ATOM     11  C   UNL     1       4.351   3.712  18.042  0.00  0.00    +0.000 A 
ATOM     12  C   UNL     1       3.825   3.066  19.186  0.00  0.00    +0.000 A 
ATOM     13  C   UNL     1       2.982   3.738  20.105  0.00  0.00    +0.000 A 
ATOM     14  C   UNL     1       2.624   5.073  19.902  0.00  0.00    +0.000 A 
ATOM     15  C   UNL     1       3.157   5.671  18.758  0.00  0.00    +0.000 A 
ATOM     16  N   UNL     1       1.892   5.933  20.727  0.00  0.00    +0.000 N 
ATOM     17  H   UNL     1       1.215   5.488  21.347  0.00  0.00    +0.000 HD
ENDROOT
BRANCH  13  18
ATOM     18  N   UNL     1       2.458   2.999  21.261  0.00  0.00    +0.000 N 
ATOM     19  O   UNL     1       3.248   2.284  21.892  0.00  0.00    +0.000 OA
ATOM     20  O   UNL     1       1.251   3.109  21.531  0.00  0.00    +0.000 OA
ENDBRANCH  13  18
BRANCH   1  21
ATOM     21  O   UNL     1       0.859  11.270  19.295  0.00  0.00    +0.000 OA
BRANCH  21  22
ATOM     22  C   UNL     1       1.920  11.875  18.552  0.00  0.00    +0.000 C 
BRANCH  22  24
ATOM     23  C   UNL     1       2.948  14.132  18.167  0.00  0.00    +0.000 C 
ATOM     24  C   UNL     1       2.280  13.218  19.180  0.00  0.00    +0.000 C 
ENDBRANCH  22  24
ENDBRANCH  21  22
ENDBRANCH   1  21
BRANCH   9  25
ATOM     25  C   UNL     1       5.204   5.953  15.821  0.00  0.00    +0.000 C 
BRANCH  25  26
ATOM     26  C   UNL     1       6.506   5.220  16.186  0.00  0.00    +0.000 C 
BRANCH  26  27
ATOM     27  N   UNL     1       7.444   5.952  17.082  0.00  0.00    +0.000 NA
BRANCH  27  28
ATOM     28  C   UNL     1       6.987   7.297  17.464  0.00  0.00    +0.000 C 
ATOM     29  C   UNL     1       8.079   8.344  17.660  0.00  0.00    +0.000 C 
ENDBRANCH  27  28
BRANCH  27  30
ATOM     30  C   UNL     1       7.794   5.094  18.232  0.00  0.00    +0.000 C 
ATOM     31  C   UNL     1       7.313   5.595  19.591  0.00  0.00    +0.000 C 
ENDBRANCH  27  30
ENDBRANCH  26  27
ENDBRANCH  25  26
ENDBRANCH   9  25
TORSDOF 9
ENDMDL
MODEL 5
REMARK VINA RESULT:      -7.3      1.310      2.068
REMARK  Name = 
REMARK  12 active torsions:
REMARK  status: ('A' for Active; 'I' for Inactive)
REMARK    1  A    between atoms: C_1  and  C_2
REMARK    2  A    between atoms: C_2  and  C_3
REMARK    3  A    between atoms: C_3  and  O_4
REMARK    4  A    between atoms: O_4  and  C_5
REMARK    5  A    between atoms: N_13  and  C_14
REMARK    6  A    between atoms: C_14  and  C_15
REMARK    7  A    between atoms: C_15  and  N_16
REMARK    8  A    between atoms: N_16  and  C_17
REMARK    9  A    between atoms: N_16  and  C_19
REMARK   10  A    between atoms: C_17  and  C_18
REMARK   11  A    between atoms: C_19  and  C_20
REMARK   12  A    between atoms: C_24  and  N_25
REMARK                            x       y       z     vdW  Elec       q    Type
REMARK                         _______ _______ _______ _____ _____    ______ ____
ROOT
ATOM      1  C   UNL     1       1.127   9.886  19.820  0.00  0.00    +0.000 A 
ATOM      2  C   UNL     1       0.564   9.297  20.962  0.00  0.00    +0.000 A 
ATOM      3  C   UNL     1       0.795   7.953  21.269  0.00  0.00    +0.000 A 
ATOM      4  C   UNL     1       1.573   7.170  20.420  0.00  0.00    +0.000 A 
ATOM      5  C   UNL     1       2.165   7.774  19.258  0.00  0.00    +0.000 A 
ATOM      6  C   UNL     1       1.937   9.121  18.970  0.00  0.00    +0.000 A 
ATOM      7  C   UNL     1       2.980   6.896  18.416  0.00  0.00    +0.000 A 
ATOM      8  N   UNL     1       3.648   7.132  17.282  0.00  0.00    +0.000 NA
ATOM      9  N   UNL     1       4.225   5.926  16.989  0.00  0.00    +0.000 N 
ATOM     10  C   UNL     1       3.930   4.926  17.898  0.00  0.00    +0.000 A 
ATOM     11  C   UNL     1       4.267   3.582  18.066  0.00  0.00    +0.000 A 
ATOM     12  C   UNL     1       3.724   2.929  19.197  0.00  0.00    +0.000 A 
ATOM     13  C   UNL     1       2.895   3.604  20.126  0.00  0.00    +0.000 A 
ATOM     14  C   UNL     1       2.569   4.950  19.946  0.00  0.00    +0.000 A 
ATOM     15  C   UNL     1       3.118   5.556  18.814  0.00  0.00    +0.000 A 
ATOM     16  N   UNL     1       1.856   5.812  20.786  0.00  0.00    +0.000 N 
ATOM     17  H   UNL     1       1.168   5.373  21.396  0.00  0.00    +0.000 HD
ENDROOT
BRANCH  13  18
ATOM     18  N   UNL     1       2.352   2.857  21.268  0.00  0.00    +0.000 N 
ATOM     19  O   UNL     1       1.121   2.823  21.400  0.00  0.00    +0.000 OA
ATOM     20  O   UNL     1       3.150   2.320  22.053  0.00  0.00    +0.000 OA
ENDBRANCH  13  18
BRANCH   1  21
ATOM     21  O   UNL     1       0.952  11.197  19.449  0.00  0.00    +0.000 OA
BRANCH  21  22
ATOM     22  C   UNL     1       1.750  11.649  18.351  0.00  0.00    +0.000 C 
BRANCH  22  24
ATOM     23  C   UNL     1       1.398  14.067  18.927  0.00  0.00    +0.000 C 
ATOM     24  C   UNL     1       2.426  12.965  18.723  0.00  0.00    +0.000 C 
ENDBRANCH  22  24
ENDBRANCH  21  22
ENDBRANCH   1  21
BRANCH   9  25
ATOM     25  C   UNL     1       5.178   5.843  15.886  0.00  0.00    +0.000 C 
BRANCH  25  26
ATOM     26  C   UNL     1       6.638   6.064  16.318  0.00  0.00    +0.000 C 
BRANCH  26  27
ATOM     27  N   UNL     1       6.841   6.781  17.607  0.00  0.00    +0.000 NA
BRANCH  27  28
ATOM     28  C   UNL     1       7.552   5.997  18.629  0.00  0.00    +0.000 C 
ATOM     29  C   UNL     1       7.912   4.565  18.243  0.00  0.00    +0.000 C 
ENDBRANCH  27  28
BRANCH  27  30
ATOM     30  C   UNL     1       7.446   8.102  17.343  0.00  0.00    +0.000 C 
ATOM     31  C   UNL     1       8.477   8.565  18.369  0.00  0.00    +0.000 C 
ENDBRANCH  27  30
ENDBRANCH  26  27
ENDBRANCH  25  26
ENDBRANCH   9  25
TORSDOF 9
ENDMDL
MODEL 6
REMARK VINA RESULT:      -7.1      1.096      2.049
REMARK  Name = 
REMARK  12 active torsions:
REMARK  status: ('A' for Active; 'I' for Inactive)
REMARK    1  A    between atoms: C_1  and  C_2
REMARK    2  A    between atoms: C_2  and  C_3
REMARK    3  A    between atoms: C_3  and  O_4
REMARK    4  A    between atoms: O_4  and  C_5
REMARK    5  A    between atoms: N_13  and  C_14
REMARK    6  A    between atoms: C_14  and  C_15
REMARK    7  A    between atoms: C_15  and  N_16
REMARK    8  A    between atoms: N_16  and  C_17
REMARK    9  A    between atoms: N_16  and  C_19
REMARK   10  A    between atoms: C_17  and  C_18
REMARK   11  A    between atoms: C_19  and  C_20
REMARK   12  A    between atoms: C_24  and  N_25
REMARK                            x       y       z     vdW  Elec       q    Type
REMARK                         _______ _______ _______ _____ _____    ______ ____
ROOT
ATOM      1  C   UNL     1       0.619  10.297  20.452  0.00  0.00    +0.000 A 
ATOM      2  C   UNL     1       0.073   9.589  21.533  0.00  0.00    +0.000 A 
ATOM      3  C   UNL     1       0.348   8.232  21.721  0.00  0.00    +0.000 A 
ATOM      4  C   UNL     1       1.155   7.554  20.810  0.00  0.00    +0.000 A 
ATOM      5  C   UNL     1       1.730   8.279  19.711  0.00  0.00    +0.000 A 
ATOM      6  C   UNL     1       1.457   9.638  19.542  0.00  0.00    +0.000 A 
ATOM      7  C   UNL     1       2.576   7.507  18.798  0.00  0.00    +0.000 A 
ATOM      8  N   UNL     1       3.239   7.866  17.694  0.00  0.00    +0.000 NA
ATOM      9  N   UNL     1       3.858   6.710  17.299  0.00  0.00    +0.000 N 
ATOM     10  C   UNL     1       3.594   5.624  18.112  0.00  0.00    +0.000 A 
ATOM     11  C   UNL     1       3.976   4.283  18.162  0.00  0.00    +0.000 A 
ATOM     12  C   UNL     1       3.452   3.514  19.228  0.00  0.00    +0.000 A 
ATOM     13  C   UNL     1       2.597   4.075  20.208  0.00  0.00    +0.000 A 
ATOM     14  C   UNL     1       2.226   5.420  20.147  0.00  0.00    +0.000 A 
ATOM     15  C   UNL     1       2.759   6.142  19.076  0.00  0.00    +0.000 A 
ATOM     16  N   UNL     1       1.482   6.180  21.056  0.00  0.00    +0.000 N 
ATOM     17  H   UNL     1       0.807   5.665  21.621  0.00  0.00    +0.000 HD
ENDROOT
BRANCH  13  18
ATOM     18  N   UNL     1       2.076   3.211  21.276  0.00  0.00    +0.000 N 
ATOM     19  O   UNL     1       2.408   3.472  22.440  0.00  0.00    +0.000 OA
ATOM     20  O   UNL     1       1.353   2.253  20.957  0.00  0.00    +0.000 OA
ENDBRANCH  13  18
BRANCH   1  21
ATOM     21  O   UNL     1       0.401  11.629  20.197  0.00  0.00    +0.000 OA
BRANCH  21  22
ATOM     22  C   UNL     1       1.372  12.276  19.371  0.00  0.00    +0.000 C 
BRANCH  22  24
ATOM     23  C   UNL     1       2.871  14.288  19.286  0.00  0.00    +0.000 C 
ATOM     24  C   UNL     1       2.118  13.325  20.190  0.00  0.00    +0.000 C 
ENDBRANCH  22  24
ENDBRANCH  21  22
ENDBRANCH   1  21
BRANCH   9  25
ATOM     25  C   UNL     1       4.816   6.757  16.198  0.00  0.00    +0.000 C 
BRANCH  25  26
ATOM     26  C   UNL     1       6.252   6.399  16.619  0.00  0.00    +0.000 C 
BRANCH  26  27
ATOM     27  N   UNL     1       6.684   4.999  16.355  0.00  0.00    +0.000 NA
BRANCH  27  28
ATOM     28  C   UNL     1       7.157   4.762  14.981  0.00  0.00    +0.000 C 
ATOM     29  C   UNL     1       6.281   3.859  14.118  0.00  0.00    +0.000 C 
ENDBRANCH  27  28
BRANCH  27  30
ATOM     30  C   UNL     1       7.644   4.578  17.395  0.00  0.00    +0.000 C 
ATOM     31  C   UNL     1       7.706   5.476  18.628  0.00  0.00    +0.000 C 
ENDBRANCH  27  30
ENDBRANCH  26  27
ENDBRANCH  25  26
ENDBRANCH   9  25
TORSDOF 9
ENDMDL
MODEL 7
REMARK VINA RESULT:      -7.0      2.359      7.340
REMARK  Name = 
REMARK  12 active torsions:
REMARK  status: ('A' for Active; 'I' for Inactive)
REMARK    1  A    between atoms: C_1  and  C_2
REMARK    2  A    between atoms: C_2  and  C_3
REMARK    3  A    between atoms: C_3  and  O_4
REMARK    4  A    between atoms: O_4  and  C_5
REMARK    5  A    between atoms: N_13  and  C_14
REMARK    6  A    between atoms: C_14  and  C_15
REMARK    7  A    between atoms: C_15  and  N_16
REMARK    8  A    between atoms: N_16  and  C_17
REMARK    9  A    between atoms: N_16  and  C_19
REMARK   10  A    between atoms: C_17  and  C_18
REMARK   11  A    between atoms: C_19  and  C_20
REMARK   12  A    between atoms: C_24  and  N_25
REMARK                            x       y       z     vdW  Elec       q    Type
REMARK                         _______ _______ _______ _____ _____    ______ ____
ROOT
ATOM      1  C   UNL     1       6.019   5.128  15.136  0.00  0.00    +0.000 A 
ATOM      2  C   UNL     1       6.088   3.811  15.611  0.00  0.00    +0.000 A 
ATOM      3  C   UNL     1       5.370   3.413  16.743  0.00  0.00    +0.000 A 
ATOM      4  C   UNL     1       4.592   4.339  17.434  0.00  0.00    +0.000 A 
ATOM      5  C   UNL     1       4.506   5.686  16.941  0.00  0.00    +0.000 A 
ATOM      6  C   UNL     1       5.218   6.067  15.802  0.00  0.00    +0.000 A 
ATOM      7  C   UNL     1       3.663   6.604  17.709  0.00  0.00    +0.000 A 
ATOM      8  N   UNL     1       3.382   7.899  17.534  0.00  0.00    +0.000 NA
ATOM      9  N   UNL     1       2.526   8.186  18.563  0.00  0.00    +0.000 N 
ATOM     10  C   UNL     1       2.268   7.113  19.396  0.00  0.00    +0.000 A 
ATOM     11  C   UNL     1       1.485   6.877  20.527  0.00  0.00    +0.000 A 
ATOM     12  C   UNL     1       1.516   5.567  21.058  0.00  0.00    +0.000 A 
ATOM     13  C   UNL     1       2.288   4.536  20.467  0.00  0.00    +0.000 A 
ATOM     14  C   UNL     1       3.065   4.787  19.333  0.00  0.00    +0.000 A 
ATOM     15  C   UNL     1       3.011   6.094  18.845  0.00  0.00    +0.000 A 
ATOM     16  N   UNL     1       3.810   3.898  18.552  0.00  0.00    +0.000 N 
ATOM     17  H   UNL     1       4.162   3.069  19.031  0.00  0.00    +0.000 HD
ENDROOT
BRANCH  13  18
ATOM     18  N   UNL     1       2.287   3.204  21.084  0.00  0.00    +0.000 N 
ATOM     19  O   UNL     1       1.191   2.700  21.364  0.00  0.00    +0.000 OA
ATOM     20  O   UNL     1       3.380   2.663  21.316  0.00  0.00    +0.000 OA
ENDBRANCH  13  18
BRANCH   1  21
ATOM     21  O   UNL     1       6.689   5.599  14.033  0.00  0.00    +0.000 OA
BRANCH  21  22
ATOM     22  C   UNL     1       7.569   4.672  13.391  0.00  0.00    +0.000 C 
BRANCH  22  24
ATOM     23  C   UNL     1       5.995   3.237  12.065  0.00  0.00    +0.000 C 
ATOM     24  C   UNL     1       7.035   4.344  12.001  0.00  0.00    +0.000 C 
ENDBRANCH  22  24
ENDBRANCH  21  22
ENDBRANCH   1  21
BRANCH   9  25
ATOM     25  C   UNL     1       1.873   9.491  18.602  0.00  0.00    +0.000 C 
BRANCH  25  26
ATOM     26  C   UNL     1       0.479   9.499  17.951  0.00  0.00    +0.000 C 
BRANCH  26  27
ATOM     27  N   UNL     1      -0.409  10.639  18.311  0.00  0.00    +0.000 NA
BRANCH  27  28
ATOM     28  C   UNL     1      -1.840  10.298  18.357  0.00  0.00    +0.000 C 
ATOM     29  C   UNL     1      -2.488   9.950  17.020  0.00  0.00    +0.000 C 
ENDBRANCH  27  28
BRANCH  27  30
ATOM     30  C   UNL     1       0.090  11.277  19.546  0.00  0.00    +0.000 C 
ATOM     31  C   UNL     1      -0.727  10.995  20.804  0.00  0.00    +0.000 C 
ENDBRANCH  27  30
ENDBRANCH  26  27
ENDBRANCH  25  26
ENDBRANCH   9  25
TORSDOF 9
ENDMDL
MODEL 8
REMARK VINA RESULT:      -7.0      4.048      8.296
REMARK  Name = 
REMARK  12 active torsions:
REMARK  status: ('A' for Active; 'I' for Inactive)
REMARK    1  A    between atoms: C_1  and  C_2
REMARK    2  A    between atoms: C_2  and  C_3
REMARK    3  A    between atoms: C_3  and  O_4
REMARK    4  A    between atoms: O_4  and  C_5
REMARK    5  A    between atoms: N_13  and  C_14
REMARK    6  A    between atoms: C_14  and  C_15
REMARK    7  A    between atoms: C_15  and  N_16
REMARK    8  A    between atoms: N_16  and  C_17
REMARK    9  A    between atoms: N_16  and  C_19
REMARK   10  A    between atoms: C_17  and  C_18
REMARK   11  A    between atoms: C_19  and  C_20
REMARK   12  A    between atoms: C_24  and  N_25
REMARK                            x       y       z     vdW  Elec       q    Type
REMARK                         _______ _______ _______ _____ _____    ______ ____
ROOT
ATOM      1  C   UNL     1       6.195   3.434  12.290  0.00  0.00    +0.000 A 
ATOM      2  C   UNL     1       7.175   4.430  12.165  0.00  0.00    +0.000 A 
ATOM      3  C   UNL     1       7.554   5.211  13.261  0.00  0.00    +0.000 A 
ATOM      4  C   UNL     1       6.936   5.024  14.494  0.00  0.00    +0.000 A 
ATOM      5  C   UNL     1       5.943   3.994  14.631  0.00  0.00    +0.000 A 
ATOM      6  C   UNL     1       5.583   3.212  13.531  0.00  0.00    +0.000 A 
ATOM      7  C   UNL     1       5.341   3.846  15.957  0.00  0.00    +0.000 A 
ATOM      8  N   UNL     1       4.401   3.010  16.411  0.00  0.00    +0.000 NA
ATOM      9  N   UNL     1       4.281   3.347  17.733  0.00  0.00    +0.000 N 
ATOM     10  C   UNL     1       5.107   4.382  18.127  0.00  0.00    +0.000 A 
ATOM     11  C   UNL     1       5.377   5.063  19.315  0.00  0.00    +0.000 A 
ATOM     12  C   UNL     1       6.354   6.085  19.253  0.00  0.00    +0.000 A 
ATOM     13  C   UNL     1       7.039   6.395  18.053  0.00  0.00    +0.000 A 
ATOM     14  C   UNL     1       6.760   5.703  16.872  0.00  0.00    +0.000 A 
ATOM     15  C   UNL     1       5.786   4.707  16.974  0.00  0.00    +0.000 A 
ATOM     16  N   UNL     1       7.384   5.787  15.623  0.00  0.00    +0.000 N 
ATOM     17  H   UNL     1       7.816   6.684  15.400  0.00  0.00    +0.000 HD
ENDROOT
BRANCH  13  18
ATOM     18  N   UNL     1       8.027   7.481  18.058  0.00  0.00    +0.000 N 
ATOM     19  O   UNL     1       8.087   8.209  17.058  0.00  0.00    +0.000 OA
ATOM     20  O   UNL     1       8.765   7.600  19.049  0.00  0.00    +0.000 OA
ENDBRANCH  13  18
BRANCH   1  21
ATOM     21  O   UNL     1       5.768   2.623  11.267  0.00  0.00    +0.000 OA
BRANCH  21  22
ATOM     22  C   UNL     1       4.353   2.551  11.072  0.00  0.00    +0.000 C 
BRANCH  22  24
ATOM     23  C   UNL     1       2.899   3.899   9.533  0.00  0.00    +0.000 C 
ATOM     24  C   UNL     1       3.813   3.940  10.747  0.00  0.00    +0.000 C 
ENDBRANCH  22  24
ENDBRANCH  21  22
ENDBRANCH   1  21
BRANCH   9  25
ATOM     25  C   UNL     1       3.446   2.524  18.602  0.00  0.00    +0.000 C 
BRANCH  25  26
ATOM     26  C   UNL     1       1.944   2.842  18.492  0.00  0.00    +0.000 C 
BRANCH  26  27
ATOM     27  N   UNL     1       1.348   3.600  19.626  0.00  0.00    +0.000 NA
BRANCH  27  28
ATOM     28  C   UNL     1       1.124   2.795  20.838  0.00  0.00    +0.000 C 
ATOM     29  C   UNL     1       2.285   2.736  21.826  0.00  0.00    +0.000 C 
ENDBRANCH  27  28
BRANCH  27  30
ATOM     30  C   UNL     1       2.134   4.827  19.864  0.00  0.00    +0.000 C 
ATOM     31  C   UNL     1       1.405   5.933  20.621  0.00  0.00    +0.000 C 
ENDBRANCH  27  30
ENDBRANCH  26  27
ENDBRANCH  25  26
ENDBRANCH   9  25
TORSDOF 9
ENDMDL
MODEL 9
REMARK VINA RESULT:      -7.0      1.572      2.486
REMARK  Name = 
REMARK  12 active torsions:
REMARK  status: ('A' for Active; 'I' for Inactive)
REMARK    1  A    between atoms: C_1  and  C_2
REMARK    2  A    between atoms: C_2  and  C_3
REMARK    3  A    between atoms: C_3  and  O_4
REMARK    4  A    between atoms: O_4  and  C_5
REMARK    5  A    between atoms: N_13  and  C_14
REMARK    6  A    between atoms: C_14  and  C_15
REMARK    7  A    between atoms: C_15  and  N_16
REMARK    8  A    between atoms: N_16  and  C_17
REMARK    9  A    between atoms: N_16  and  C_19
REMARK   10  A    between atoms: C_17  and  C_18
REMARK   11  A    between atoms: C_19  and  C_20
REMARK   12  A    between atoms: C_24  and  N_25
REMARK                            x       y       z     vdW  Elec       q    Type
REMARK                         _______ _______ _______ _____ _____    ______ ____
ROOT
ATOM      1  C   UNL     1       1.526   9.967  18.975  0.00  0.00    +0.000 A 
ATOM      2  C   UNL     1       0.879   9.531  20.140  0.00  0.00    +0.000 A 
ATOM      3  C   UNL     1       1.039   8.225  20.609  0.00  0.00    +0.000 A 
ATOM      4  C   UNL     1       1.831   7.324  19.900  0.00  0.00    +0.000 A 
ATOM      5  C   UNL     1       2.508   7.771  18.715  0.00  0.00    +0.000 A 
ATOM      6  C   UNL     1       2.350   9.084  18.264  0.00  0.00    +0.000 A 
ATOM      7  C   UNL     1       3.331   6.776  18.025  0.00  0.00    +0.000 A 
ATOM      8  N   UNL     1       4.069   6.859  16.913  0.00  0.00    +0.000 NA
ATOM      9  N   UNL     1       4.613   5.608  16.791  0.00  0.00    +0.000 N 
ATOM     10  C   UNL     1       4.229   4.729  17.787  0.00  0.00    +0.000 A 
ATOM     11  C   UNL     1       4.503   3.403  18.124  0.00  0.00    +0.000 A 
ATOM     12  C   UNL     1       3.873   2.902  19.288  0.00  0.00    +0.000 A 
ATOM     13  C   UNL     1       3.023   3.705  20.086  0.00  0.00    +0.000 A 
ATOM     14  C   UNL     1       2.761   5.032  19.737  0.00  0.00    +0.000 A 
ATOM     15  C   UNL     1       3.395   5.486  18.578  0.00  0.00    +0.000 A 
ATOM     16  N   UNL     1       2.038   6.008  20.432  0.00  0.00    +0.000 N 
ATOM     17  H   UNL     1       1.301   5.665  21.047  0.00  0.00    +0.000 HD
ENDROOT
BRANCH  13  18
ATOM     18  N   UNL     1       2.389   3.112  21.270  0.00  0.00    +0.000 N 
ATOM     19  O   UNL     1       3.106   2.461  22.041  0.00  0.00    +0.000 OA
ATOM     20  O   UNL     1       1.167   3.271  21.425  0.00  0.00    +0.000 OA
ENDBRANCH  13  18
BRANCH   1  21
ATOM     21  O   UNL     1       1.424  11.232  18.449  0.00  0.00    +0.000 OA
BRANCH  21  22
ATOM     22  C   UNL     1       1.459  12.308  19.391  0.00  0.00    +0.000 C 
BRANCH  22  24
ATOM     23  C   UNL     1      -0.794  12.779  18.390  0.00  0.00    +0.000 C 
ATOM     24  C   UNL     1       0.474  13.391  18.963  0.00  0.00    +0.000 C 
ENDBRANCH  22  24
ENDBRANCH  21  22
ENDBRANCH   1  21
BRANCH   9  25
ATOM     25  C   UNL     1       5.619   5.368  15.762  0.00  0.00    +0.000 C 
BRANCH  25  26
ATOM     26  C   UNL     1       5.316   4.143  14.881  0.00  0.00    +0.000 C 
BRANCH  26  27
ATOM     27  N   UNL     1       6.300   3.849  13.804  0.00  0.00    +0.000 NA
BRANCH  27  28
ATOM     28  C   UNL     1       5.706   3.721  12.463  0.00  0.00    +0.000 C 
ATOM     29  C   UNL     1       5.949   2.396  11.747  0.00  0.00    +0.000 C 
ENDBRANCH  27  28
BRANCH  27  30
ATOM     30  C   UNL     1       7.409   4.822  13.873  0.00  0.00    +0.000 C 
ATOM     31  C   UNL     1       7.869   5.384  12.530  0.00  0.00    +0.000 C 
ENDBRANCH  27  30
ENDBRANCH  26  27
ENDBRANCH  25  26
ENDBRANCH   9  25
TORSDOF 9
ENDMDL
