MODEL 1
REMARK VINA RESULT:      -7.2      0.000      0.000
REMARK  Name = 
REMARK  8 active torsions:
REMARK  status: ('A' for Active; 'I' for Inactive)
REMARK    1  A    between atoms: C_1  and  O_2
REMARK    2  A    between atoms: O_2  and  C_3
REMARK    3  A    between atoms: C_6  and  C_7
REMARK    4  A    between atoms: C_10  and  C_11
REMARK    5  A    between atoms: C_16  and  O_17
REMARK    6  A    between atoms: O_17  and  C_18
REMARK    7  A    between atoms: C_20  and  O_21
REMARK    8  A    between atoms: O_21  and  C_22
REMARK                            x       y       z     vdW  Elec       q    Type
REMARK                         _______ _______ _______ _____ _____    ______ ____
ROOT
ATOM      1  C   UNL     1       1.727   8.561  19.381  0.00  0.00    +0.000 A 
ATOM      2  N   UNL     1       2.206   9.051  18.253  0.00  0.00    +0.000 NA
ATOM      3  C   UNL     1       2.748   7.970  17.625  0.00  0.00    +0.000 A 
ATOM      4  C   UNL     1       2.623   6.843  18.404  0.00  0.00    +0.000 A 
ATOM      5  O   UNL     1       1.973   7.214  19.557  0.00  0.00    +0.000 OA
ENDROOT
BRANCH   1   9
ATOM      6  C   UNL     1      -0.535  10.592  22.411  0.00  0.00    +0.000 A 
ATOM      7  C   UNL     1       0.358   9.577  22.755  0.00  0.00    +0.000 A 
ATOM      8  C   UNL     1       1.086   8.903  21.767  0.00  0.00    +0.000 A 
ATOM      9  C   UNL     1       0.938   9.242  20.412  0.00  0.00    +0.000 A 
ATOM     10  C   UNL     1       0.028  10.267  20.066  0.00  0.00    +0.000 A 
ATOM     11  C   UNL     1      -0.700  10.929  21.066  0.00  0.00    +0.000 A 
BRANCH   6  13
ATOM     12  C   UNL     1      -2.355  11.931  23.153  0.00  0.00    +0.000 C 
ATOM     13  O   UNL     1      -1.186  11.180  23.462  0.00  0.00    +0.000 OA
ENDBRANCH   6  13
BRANCH  10  14
ATOM     14  O   UNL     1      -0.114  10.542  18.726  0.00  0.00    +0.000 OA
ATOM     15  C   UNL     1      -1.407  10.487  18.150  0.00  0.00    +0.000 C 
ENDBRANCH  10  14
ENDBRANCH   1   9
BRANCH   4  16
ATOM     16  C   UNL     1       2.956   5.435  18.180  0.00  0.00    +0.000 A 
ATOM     17  C   UNL     1       1.872   4.552  17.963  0.00  0.00    +0.000 A 
ATOM     18  C   UNL     1       2.073   3.201  17.686  0.00  0.00    +0.000 A 
ATOM     19  C   UNL     1       3.366   2.704  17.612  0.00  0.00    +0.000 A 
ATOM     20  C   UNL     1       4.452   3.551  17.835  0.00  0.00    +0.000 A 
ATOM     21  C   UNL     1       4.263   4.914  18.133  0.00  0.00    +0.000 A 
BRANCH  21  22
ATOM     22  O   UNL     1       5.314   5.781  18.310  0.00  0.00    +0.000 OA
ATOM     23  C   UNL     1       6.324   5.363  19.225  0.00  0.00    +0.000 C 
ENDBRANCH  21  22
ENDBRANCH   4  16
TORSDOF 5
ENDMDL
MODEL 2
REMARK VINA RESULT:      -7.0      2.368      7.769
REMARK  Name = 
REMARK  8 active torsions:
REMARK  status: ('A' for Active; 'I' for Inactive)
REMARK    1  A    between atoms: C_1  and  O_2
REMARK    2  A    between atoms: O_2  and  C_3
REMARK    3  A    between atoms: C_6  and  C_7
REMARK    4  A    between atoms: C_10  and  C_11
REMARK    5  A    between atoms: C_16  and  O_17
REMARK    6  A    between atoms: O_17  and  C_18
REMARK    7  A    between atoms: C_20  and  O_21
REMARK    8  A    between atoms: O_21  and  C_22
REMARK                            x       y       z     vdW  Elec       q    Type
REMARK                         _______ _______ _______ _____ _____    ______ ____
ROOT
ATOM      1  C   UNL     1       2.533   7.393  18.680  0.00  0.00    +0.000 A 
ATOM      2  N   UNL     1       2.306   7.416  19.980  0.00  0.00    +0.000 NA
ATOM      3  C   UNL     1       1.420   8.438  20.145  0.00  0.00    +0.000 A 
ATOM      4  C   UNL     1       1.152   9.046  18.940  0.00  0.00    +0.000 A 
ATOM      5  O   UNL     1       1.880   8.386  17.979  0.00  0.00    +0.000 OA
ENDROOT
BRANCH   1   9
ATOM      6  C   UNL     1       4.888   4.568  16.467  0.00  0.00    +0.000 A 
ATOM      7  C   UNL     1       5.280   5.905  16.551  0.00  0.00    +0.000 A 
ATOM      8  C   UNL     1       4.504   6.830  17.260  0.00  0.00    +0.000 A 
ATOM      9  C   UNL     1       3.324   6.430  17.907  0.00  0.00    +0.000 A 
ATOM     10  C   UNL     1       2.928   5.076  17.816  0.00  0.00    +0.000 A 
ATOM     11  C   UNL     1       3.710   4.161  17.096  0.00  0.00    +0.000 A 
BRANCH   6  13
ATOM     12  C   UNL     1       6.539   4.386  14.764  0.00  0.00    +0.000 C 
ATOM     13  O   UNL     1       5.727   3.757  15.751  0.00  0.00    +0.000 OA
ENDBRANCH   6  13
BRANCH  10  14
ATOM     14  O   UNL     1       1.748   4.734  18.433  0.00  0.00    +0.000 OA
ATOM     15  C   UNL     1       1.390   3.365  18.515  0.00  0.00    +0.000 C 
ENDBRANCH  10  14
ENDBRANCH   1   9
BRANCH   4  16
ATOM     16  C   UNL     1       0.235  10.118  18.546  0.00  0.00    +0.000 A 
ATOM     17  C   UNL     1      -0.914   9.734  17.816  0.00  0.00    +0.000 A 
ATOM     18  C   UNL     1      -1.883  10.661  17.437  0.00  0.00    +0.000 A 
ATOM     19  C   UNL     1      -1.726  11.994  17.786  0.00  0.00    +0.000 A 
ATOM     20  C   UNL     1      -0.595  12.401  18.494  0.00  0.00    +0.000 A 
ATOM     21  C   UNL     1       0.400  11.478  18.870  0.00  0.00    +0.000 A 
BRANCH  21  22
ATOM     22  O   UNL     1       1.499  11.842  19.608  0.00  0.00    +0.000 OA
ATOM     23  C   UNL     1       2.096  13.091  19.270  0.00  0.00    +0.000 C 
ENDBRANCH  21  22
ENDBRANCH   4  16
TORSDOF 5
ENDMDL
MODEL 3
REMARK VINA RESULT:      -6.9      1.822      7.629
REMARK  Name = 
REMARK  8 active torsions:
REMARK  status: ('A' for Active; 'I' for Inactive)
REMARK    1  A    between atoms: C_1  and  O_2
REMARK    2  A    between atoms: O_2  and  C_3
REMARK    3  A    between atoms: C_6  and  C_7
REMARK    4  A    between atoms: C_10  and  C_11
REMARK    5  A    between atoms: C_16  and  O_17
REMARK    6  A    between atoms: O_17  and  C_18
REMARK    7  A    between atoms: C_20  and  O_21
REMARK    8  A    between atoms: O_21  and  C_22
REMARK                            x       y       z     vdW  Elec       q    Type
REMARK                         _______ _______ _______ _____ _____    ______ ____
ROOT
ATOM      1  C   UNL     1       2.252   8.060  18.519  0.00  0.00    +0.000 A 
ATOM      2  N   UNL     1       1.784   8.822  17.548  0.00  0.00    +0.000 NA
ATOM      3  C   UNL     1       0.932   9.678  18.179  0.00  0.00    +0.000 A 
ATOM      4  C   UNL     1       0.868   9.395  19.524  0.00  0.00    +0.000 A 
ATOM      5  O   UNL     1       1.711   8.334  19.758  0.00  0.00    +0.000 OA
ENDROOT
BRANCH   1   9
ATOM      6  C   UNL     1       5.332   5.075  18.352  0.00  0.00    +0.000 A 
ATOM      7  C   UNL     1       5.334   6.145  17.456  0.00  0.00    +0.000 A 
ATOM      8  C   UNL     1       4.322   7.111  17.500  0.00  0.00    +0.000 A 
ATOM      9  C   UNL     1       3.291   7.028  18.451  0.00  0.00    +0.000 A 
ATOM     10  C   UNL     1       3.290   5.940  19.353  0.00  0.00    +0.000 A 
ATOM     11  C   UNL     1       4.306   4.974  19.293  0.00  0.00    +0.000 A 
BRANCH   6  13
ATOM     12  C   UNL     1       7.407   4.564  17.308  0.00  0.00    +0.000 C 
ATOM     13  O   UNL     1       6.374   4.197  18.216  0.00  0.00    +0.000 OA
ENDBRANCH   6  13
BRANCH  10  14
ATOM     14  O   UNL     1       2.243   5.876  20.243  0.00  0.00    +0.000 OA
ATOM     15  C   UNL     1       1.832   4.608  20.726  0.00  0.00    +0.000 C 
ENDBRANCH  10  14
ENDBRANCH   1   9
BRANCH   4  16
ATOM     16  C   UNL     1       0.184  10.039  20.647  0.00  0.00    +0.000 A 
ATOM     17  C   UNL     1      -0.042   9.243  21.794  0.00  0.00    +0.000 A 
ATOM     18  C   UNL     1      -0.635   9.764  22.942  0.00  0.00    +0.000 A 
ATOM     19  C   UNL     1      -1.009  11.100  22.970  0.00  0.00    +0.000 A 
ATOM     20  C   UNL     1      -0.809  11.903  21.847  0.00  0.00    +0.000 A 
ATOM     21  C   UNL     1      -0.227  11.385  20.675  0.00  0.00    +0.000 A 
BRANCH  21  22
ATOM     22  O   UNL     1       0.025  12.164  19.572  0.00  0.00    +0.000 OA
ATOM     23  C   UNL     1      -1.116  12.723  18.926  0.00  0.00    +0.000 C 
ENDBRANCH  21  22
ENDBRANCH   4  16
TORSDOF 5
ENDMDL
MODEL 4
REMARK VINA RESULT:      -6.9      1.955      7.802
REMARK  Name = 
REMARK  8 active torsions:
REMARK  status: ('A' for Active; 'I' for Inactive)
REMARK    1  A    between atoms: C_1  and  O_2
REMARK    2  A    between atoms: O_2  and  C_3
REMARK    3  A    between atoms: C_6  and  C_7
REMARK    4  A    between atoms: C_10  and  C_11
REMARK    5  A    between atoms: C_16  and  O_17
REMARK    6  A    between atoms: O_17  and  C_18
REMARK    7  A    between atoms: C_20  and  O_21
REMARK    8  A    between atoms: O_21  and  C_22
REMARK                            x       y       z     vdW  Elec       q    Type
REMARK                         _______ _______ _______ _____ _____    ______ ____
ROOT
ATOM      1  C   UNL     1       2.636   6.441  19.357  0.00  0.00    +0.000 A 
ATOM      2  N   UNL     1       2.097   6.019  20.486  0.00  0.00    +0.000 NA
ATOM      3  C   UNL     1       1.365   7.082  20.922  0.00  0.00    +0.000 A 
ATOM      4  C   UNL     1       1.503   8.151  20.067  0.00  0.00    +0.000 A 
ATOM      5  O   UNL     1       2.339   7.754  19.050  0.00  0.00    +0.000 OA
ENDROOT
BRANCH   1   9
ATOM      6  C   UNL     1       5.019   4.209  16.572  0.00  0.00    +0.000 A 
ATOM      7  C   UNL     1       5.505   5.392  17.130  0.00  0.00    +0.000 A 
ATOM      8  C   UNL     1       4.722   6.129  18.027  0.00  0.00    +0.000 A 
ATOM      9  C   UNL     1       3.439   5.688  18.389  0.00  0.00    +0.000 A 
ATOM     10  C   UNL     1       2.948   4.492  17.818  0.00  0.00    +0.000 A 
ATOM     11  C   UNL     1       3.740   3.767  16.914  0.00  0.00    +0.000 A 
BRANCH   6  13
ATOM     12  C   UNL     1       6.015   4.140  14.413  0.00  0.00    +0.000 C 
ATOM     13  O   UNL     1       5.874   3.574  15.712  0.00  0.00    +0.000 OA
ENDBRANCH   6  13
BRANCH  10  14
ATOM     14  O   UNL     1       1.673   4.116  18.171  0.00  0.00    +0.000 OA
ATOM     15  C   UNL     1       1.414   2.749  18.444  0.00  0.00    +0.000 C 
ENDBRANCH  10  14
ENDBRANCH   1   9
BRANCH   4  16
ATOM     16  C   UNL     1       0.888   9.479  20.023  0.00  0.00    +0.000 A 
ATOM     17  C   UNL     1       0.447   9.934  18.758  0.00  0.00    +0.000 A 
ATOM     18  C   UNL     1      -0.201  11.157  18.606  0.00  0.00    +0.000 A 
ATOM     19  C   UNL     1      -0.430  11.952  19.720  0.00  0.00    +0.000 A 
ATOM     20  C   UNL     1       0.006  11.532  20.977  0.00  0.00    +0.000 A 
ATOM     21  C   UNL     1       0.677  10.306  21.143  0.00  0.00    +0.000 A 
BRANCH  21  22
ATOM     22  O   UNL     1       1.076   9.846  22.374  0.00  0.00    +0.000 OA
ATOM     23  C   UNL     1       0.033   9.545  23.298  0.00  0.00    +0.000 C 
ENDBRANCH  21  22
ENDBRANCH   4  16
TORSDOF 5
ENDMDL
MODEL 5
REMARK VINA RESULT:      -6.9      1.009      1.212
REMARK  Name = 
REMARK  8 active torsions:
REMARK  status: ('A' for Active; 'I' for Inactive)
REMARK    1  A    between atoms: C_1  and  O_2
REMARK    2  A    between atoms: O_2  and  C_3
REMARK    3  A    between atoms: C_6  and  C_7
REMARK    4  A    between atoms: C_10  and  C_11
REMARK    5  A    between atoms: C_16  and  O_17
REMARK    6  A    between atoms: O_17  and  C_18
REMARK    7  A    between atoms: C_20  and  O_21
REMARK    8  A    between atoms: O_21  and  C_22
REMARK                            x       y       z     vdW  Elec       q    Type
REMARK                         _______ _______ _______ _____ _____    ______ ____
ROOT
ATOM      1  C   UNL     1       1.705   8.646  19.273  0.00  0.00    +0.000 A 
ATOM      2  N   UNL     1       2.153   9.125  18.128  0.00  0.00    +0.000 NA
ATOM      3  C   UNL     1       2.661   8.035  17.488  0.00  0.00    +0.000 A 
ATOM      4  C   UNL     1       2.546   6.912  18.276  0.00  0.00    +0.000 A 
ATOM      5  O   UNL     1       1.939   7.297  19.447  0.00  0.00    +0.000 OA
ENDROOT
BRANCH   1   9
ATOM      6  C   UNL     1      -0.431  10.687  22.387  0.00  0.00    +0.000 A 
ATOM      7  C   UNL     1      -0.215   9.310  22.461  0.00  0.00    +0.000 A 
ATOM      8  C   UNL     1       0.468   8.641  21.439  0.00  0.00    +0.000 A 
ATOM      9  C   UNL     1       0.957   9.342  20.325  0.00  0.00    +0.000 A 
ATOM     10  C   UNL     1       0.733  10.736  20.251  0.00  0.00    +0.000 A 
ATOM     11  C   UNL     1       0.039  11.393  21.279  0.00  0.00    +0.000 A 
BRANCH   6  13
ATOM     12  C   UNL     1      -2.316  11.920  23.149  0.00  0.00    +0.000 C 
ATOM     13  O   UNL     1      -1.106  11.230  23.446  0.00  0.00    +0.000 OA
ENDBRANCH   6  13
BRANCH  10  14
ATOM     14  O   UNL     1       1.195  11.378  19.126  0.00  0.00    +0.000 OA
ATOM     15  C   UNL     1       1.818  12.643  19.268  0.00  0.00    +0.000 C 
ENDBRANCH  10  14
ENDBRANCH   1   9
BRANCH   4  16
ATOM     16  C   UNL     1       2.853   5.499  18.049  0.00  0.00    +0.000 A 
ATOM     17  C   UNL     1       1.787   4.583  18.208  0.00  0.00    +0.000 A 
ATOM     18  C   UNL     1       1.950   3.221  17.964  0.00  0.00    +0.000 A 
ATOM     19  C   UNL     1       3.185   2.744  17.548  0.00  0.00    +0.000 A 
ATOM     20  C   UNL     1       4.256   3.625  17.396  0.00  0.00    +0.000 A 
ATOM     21  C   UNL     1       4.110   5.001  17.655  0.00  0.00    +0.000 A 
BRANCH  21  22
ATOM     22  O   UNL     1       5.134   5.897  17.468  0.00  0.00    +0.000 OA
ATOM     23  C   UNL     1       5.574   6.075  16.124  0.00  0.00    +0.000 C 
ENDBRANCH  21  22
ENDBRANCH   4  16
TORSDOF 5
ENDMDL
MODEL 6
REMARK VINA RESULT:      -6.9      2.308      7.692
REMARK  Name = 
REMARK  8 active torsions:
REMARK  status: ('A' for Active; 'I' for Inactive)
REMARK    1  A    between atoms: C_1  and  O_2
REMARK    2  A    between atoms: O_2  and  C_3
REMARK    3  A    between atoms: C_6  and  C_7
REMARK    4  A    between atoms: C_10  and  C_11
REMARK    5  A    between atoms: C_16  and  O_17
REMARK    6  A    between atoms: O_17  and  C_18
REMARK    7  A    between atoms: C_20  and  O_21
REMARK    8  A    between atoms: O_21  and  C_22
REMARK                            x       y       z     vdW  Elec       q    Type
REMARK                         _______ _______ _______ _____ _____    ______ ____
ROOT
ATOM      1  C   UNL     1       0.600  10.113  18.694  0.00  0.00    +0.000 A 
ATOM      2  N   UNL     1       0.963  11.362  18.914  0.00  0.00    +0.000 NA
ATOM      3  C   UNL     1      -0.185  12.076  18.747  0.00  0.00    +0.000 A 
ATOM      4  C   UNL     1      -1.224  11.248  18.388  0.00  0.00    +0.000 A 
ATOM      5  O   UNL     1      -0.725   9.968  18.335  0.00  0.00    +0.000 OA
ENDROOT
BRANCH   1   9
ATOM      6  C   UNL     1       2.983   6.569  19.127  0.00  0.00    +0.000 A 
ATOM      7  C   UNL     1       2.964   7.266  17.918  0.00  0.00    +0.000 A 
ATOM      8  C   UNL     1       2.176   8.414  17.771  0.00  0.00    +0.000 A 
ATOM      9  C   UNL     1       1.397   8.890  18.838  0.00  0.00    +0.000 A 
ATOM     10  C   UNL     1       1.414   8.178  20.059  0.00  0.00    +0.000 A 
ATOM     11  C   UNL     1       2.203   7.025  20.191  0.00  0.00    +0.000 A 
BRANCH   6  13
ATOM     12  C   UNL     1       4.933   5.487  18.299  0.00  0.00    +0.000 C 
ATOM     13  O   UNL     1       3.793   5.466  19.153  0.00  0.00    +0.000 OA
ENDBRANCH   6  13
BRANCH  10  14
ATOM     14  O   UNL     1       0.609   8.658  21.066  0.00  0.00    +0.000 OA
ATOM     15  C   UNL     1       1.214   9.239  22.208  0.00  0.00    +0.000 C 
ENDBRANCH  10  14
ENDBRANCH   1   9
BRANCH   4  16
ATOM     16  C   UNL     1      -2.652  11.479  18.166  0.00  0.00    +0.000 A 
ATOM     17  C   UNL     1      -3.415  11.872  19.290  0.00  0.00    +0.000 A 
ATOM     18  C   UNL     1      -4.771  12.172  19.186  0.00  0.00    +0.000 A 
ATOM     19  C   UNL     1      -5.395  12.092  17.950  0.00  0.00    +0.000 A 
ATOM     20  C   UNL     1      -4.669  11.694  16.827  0.00  0.00    +0.000 A 
ATOM     21  C   UNL     1      -3.302  11.372  16.921  0.00  0.00    +0.000 A 
BRANCH  21  22
ATOM     22  O   UNL     1      -2.551  11.023  15.825  0.00  0.00    +0.000 OA
ATOM     23  C   UNL     1      -3.029   9.916  15.065  0.00  0.00    +0.000 C 
ENDBRANCH  21  22
ENDBRANCH   4  16
TORSDOF 5
ENDMDL
MODEL 7
REMARK VINA RESULT:      -6.8      1.347      1.374
REMARK  Name = 
REMARK  8 active torsions:
REMARK  status: ('A' for Active; 'I' for Inactive)
REMARK    1  A    between atoms: C_1  and  O_2
REMARK    2  A    between atoms: O_2  and  C_3
REMARK    3  A    between atoms: C_6  and  C_7
REMARK    4  A    between atoms: C_10  and  C_11
REMARK    5  A    between atoms: C_16  and  O_17
REMARK    6  A    between atoms: O_17  and  C_18
REMARK    7  A    between atoms: C_20  and  O_21
REMARK    8  A    between atoms: O_21  and  C_22
REMARK                            x       y       z     vdW  Elec       q    Type
REMARK                         _______ _______ _______ _____ _____    ______ ____
ROOT
ATOM      1  C   UNL     1       1.408   8.302  20.170  0.00  0.00    +0.000 A 
ATOM      2  N   UNL     1       2.052   8.514  19.037  0.00  0.00    +0.000 NA
ATOM      3  C   UNL     1       2.540   7.289  18.697  0.00  0.00    +0.000 A 
ATOM      4  C   UNL     1       2.215   6.354  19.654  0.00  0.00    +0.000 A 
ATOM      5  O   UNL     1       1.491   7.002  20.626  0.00  0.00    +0.000 OA
ENDROOT
BRANCH   1   9
ATOM      6  C   UNL     1      -0.932  11.077  22.459  0.00  0.00    +0.000 A 
ATOM      7  C   UNL     1      -0.246  10.039  23.091  0.00  0.00    +0.000 A 
ATOM      8  C   UNL     1       0.505   9.124  22.344  0.00  0.00    +0.000 A 
ATOM      9  C   UNL     1       0.591   9.239  20.947  0.00  0.00    +0.000 A 
ATOM     10  C   UNL     1      -0.109  10.288  20.310  0.00  0.00    +0.000 A 
ATOM     11  C   UNL     1      -0.865  11.194  21.070  0.00  0.00    +0.000 A 
BRANCH   6  13
ATOM     12  C   UNL     1      -1.349  13.303  23.189  0.00  0.00    +0.000 C 
ATOM     13  O   UNL     1      -1.629  11.910  23.293  0.00  0.00    +0.000 OA
ENDBRANCH   6  13
BRANCH  10  14
ATOM     14  O   UNL     1      -0.028  10.342  18.938  0.00  0.00    +0.000 OA
ATOM     15  C   UNL     1      -1.227  10.412  18.184  0.00  0.00    +0.000 C 
ENDBRANCH  10  14
ENDBRANCH   1   9
BRANCH   4  16
ATOM     16  C   UNL     1       2.419   4.907  19.744  0.00  0.00    +0.000 A 
ATOM     17  C   UNL     1       1.260   4.109  19.883  0.00  0.00    +0.000 A 
ATOM     18  C   UNL     1       1.329   2.719  19.923  0.00  0.00    +0.000 A 
ATOM     19  C   UNL     1       2.563   2.093  19.818  0.00  0.00    +0.000 A 
ATOM     20  C   UNL     1       3.723   2.858  19.693  0.00  0.00    +0.000 A 
ATOM     21  C   UNL     1       3.669   4.264  19.668  0.00  0.00    +0.000 A 
BRANCH  21  22
ATOM     22  O   UNL     1       4.790   5.040  19.499  0.00  0.00    +0.000 OA
ATOM     23  C   UNL     1       5.580   4.757  18.347  0.00  0.00    +0.000 C 
ENDBRANCH  21  22
ENDBRANCH   4  16
TORSDOF 5
ENDMDL
MODEL 8
REMARK VINA RESULT:      -6.8      1.089      1.791
REMARK  Name = 
REMARK  8 active torsions:
REMARK  status: ('A' for Active; 'I' for Inactive)
REMARK    1  A    between atoms: C_1  and  O_2
REMARK    2  A    between atoms: O_2  and  C_3
REMARK    3  A    between atoms: C_6  and  C_7
REMARK    4  A    between atoms: C_10  and  C_11
REMARK    5  A    between atoms: C_16  and  O_17
REMARK    6  A    between atoms: O_17  and  C_18
REMARK    7  A    between atoms: C_20  and  O_21
REMARK    8  A    between atoms: O_21  and  C_22
REMARK                            x       y       z     vdW  Elec       q    Type
REMARK                         _______ _______ _______ _____ _____    ______ ____
ROOT
ATOM      1  C   UNL     1       1.819   8.386  19.370  0.00  0.00    +0.000 A 
ATOM      2  N   UNL     1       2.336   8.886  18.263  0.00  0.00    +0.000 NA
ATOM      3  C   UNL     1       2.865   7.804  17.626  0.00  0.00    +0.000 A 
ATOM      4  C   UNL     1       2.691   6.665  18.378  0.00  0.00    +0.000 A 
ATOM      5  O   UNL     1       2.025   7.030  19.523  0.00  0.00    +0.000 OA
ENDROOT
BRANCH   1   9
ATOM      6  C   UNL     1      -0.463  10.420  22.383  0.00  0.00    +0.000 A 
ATOM      7  C   UNL     1       0.472   9.446  22.739  0.00  0.00    +0.000 A 
ATOM      8  C   UNL     1       1.206   8.772  21.756  0.00  0.00    +0.000 A 
ATOM      9  C   UNL     1       1.023   9.067  20.396  0.00  0.00    +0.000 A 
ATOM     10  C   UNL     1       0.072  10.051  20.039  0.00  0.00    +0.000 A 
ATOM     11  C   UNL     1      -0.662  10.714  21.034  0.00  0.00    +0.000 A 
BRANCH   6  13
ATOM     12  C   UNL     1      -2.157  11.926  23.101  0.00  0.00    +0.000 C 
ATOM     13  O   UNL     1      -1.116  11.013  23.430  0.00  0.00    +0.000 OA
ENDBRANCH   6  13
BRANCH  10  14
ATOM     14  O   UNL     1      -0.102  10.283  18.695  0.00  0.00    +0.000 OA
ATOM     15  C   UNL     1      -1.420  10.348  18.177  0.00  0.00    +0.000 C 
ENDBRANCH  10  14
ENDBRANCH   1   9
BRANCH   4  16
ATOM     16  C   UNL     1       2.993   5.253  18.133  0.00  0.00    +0.000 A 
ATOM     17  C   UNL     1       4.078   4.975  17.270  0.00  0.00    +0.000 A 
ATOM     18  C   UNL     1       4.490   3.670  17.009  0.00  0.00    +0.000 A 
ATOM     19  C   UNL     1       3.828   2.611  17.613  0.00  0.00    +0.000 A 
ATOM     20  C   UNL     1       2.746   2.858  18.459  0.00  0.00    +0.000 A 
ATOM     21  C   UNL     1       2.308   4.170  18.718  0.00  0.00    +0.000 A 
BRANCH  21  22
ATOM     22  O   UNL     1       1.277   4.445  19.583  0.00  0.00    +0.000 OA
ATOM     23  C   UNL     1       1.102   3.528  20.660  0.00  0.00    +0.000 C 
ENDBRANCH  21  22
ENDBRANCH   4  16
TORSDOF 5
ENDMDL
MODEL 9
REMARK VINA RESULT:      -6.8      2.312      7.904
REMARK  Name = 
REMARK  8 active torsions:
REMARK  status: ('A' for Active; 'I' for Inactive)
REMARK    1  A    between atoms: C_1  and  O_2
REMARK    2  A    between atoms: O_2  and  C_3
REMARK    3  A    between atoms: C_6  and  C_7
REMARK    4  A    between atoms: C_10  and  C_11
REMARK    5  A    between atoms: C_16  and  O_17
REMARK    6  A    between atoms: O_17  and  C_18
REMARK    7  A    between atoms: C_20  and  O_21
REMARK    8  A    between atoms: O_21  and  C_22
REMARK                            x       y       z     vdW  Elec       q    Type
REMARK                         _______ _______ _______ _____ _____    ______ ____
ROOT
ATOM      1  C   UNL     1       2.320   7.656  18.999  0.00  0.00    +0.000 A 
ATOM      2  N   UNL     1       1.879   7.556  20.238  0.00  0.00    +0.000 NA
ATOM      3  C   UNL     1       1.177   8.707  20.435  0.00  0.00    +0.000 A 
ATOM      4  C   UNL     1       1.237   9.509  19.318  0.00  0.00    +0.000 A 
ATOM      5  O   UNL     1       1.990   8.844  18.380  0.00  0.00    +0.000 OA
ENDROOT
BRANCH   1   9
ATOM      6  C   UNL     1       4.492   4.740  16.717  0.00  0.00    +0.000 A 
ATOM      7  C   UNL     1       4.866   6.085  16.687  0.00  0.00    +0.000 A 
ATOM      8  C   UNL     1       4.149   7.039  17.419  0.00  0.00    +0.000 A 
ATOM      9  C   UNL     1       3.047   6.661  18.204  0.00  0.00    +0.000 A 
ATOM     10  C   UNL     1       2.668   5.299  18.228  0.00  0.00    +0.000 A 
ATOM     11  C   UNL     1       3.391   4.355  17.483  0.00  0.00    +0.000 A 
BRANCH   6  13
ATOM     12  C   UNL     1       6.490   4.435  15.463  0.00  0.00    +0.000 C 
ATOM     13  O   UNL     1       5.269   3.901  15.965  0.00  0.00    +0.000 OA
ENDBRANCH   6  13
BRANCH  10  14
ATOM     14  O   UNL     1       1.562   4.978  18.979  0.00  0.00    +0.000 OA
ATOM     15  C   UNL     1       1.641   3.888  19.881  0.00  0.00    +0.000 C 
ENDBRANCH  10  14
ENDBRANCH   1   9
BRANCH   4  16
ATOM     16  C   UNL     1       0.611  10.787  18.974  0.00  0.00    +0.000 A 
ATOM     17  C   UNL     1       1.452  11.924  18.967  0.00  0.00    +0.000 A 
ATOM     18  C   UNL     1       0.978  13.182  18.601  0.00  0.00    +0.000 A 
ATOM     19  C   UNL     1      -0.350  13.329  18.225  0.00  0.00    +0.000 A 
ATOM     20  C   UNL     1      -1.203  12.225  18.236  0.00  0.00    +0.000 A 
ATOM     21  C   UNL     1      -0.742  10.952  18.620  0.00  0.00    +0.000 A 
BRANCH  21  22
ATOM     22  O   UNL     1      -1.547   9.839  18.594  0.00  0.00    +0.000 OA
ATOM     23  C   UNL     1      -2.574   9.832  17.606  0.00  0.00    +0.000 C 
ENDBRANCH  21  22
ENDBRANCH   4  16
TORSDOF 5
ENDMDL
