MODEL 1
REMARK VINA RESULT:      -8.5      0.000      0.000
REMARK  Name = 
REMARK  4 active torsions:
REMARK  status: ('A' for Active; 'I' for Inactive)
REMARK    1  A    between atoms: N_6  and  C_7
REMARK    2  A    between atoms: C_7  and  C_8
REMARK    3  A    between atoms: C_11  and  N_12
REMARK    4  A    between atoms: C_14  and  C_15
REMARK                            x       y       z     vdW  Elec       q    Type
REMARK                         _______ _______ _______ _____ _____    ______ ____
ROOT
ATOM      1  C   UNL     1       0.976   9.615  19.292  0.00  0.00    +0.000 A 
ATOM      2  C   UNL     1       1.309   8.627  20.233  0.00  0.00    +0.000 A 
ATOM      3  C   UNL     1       2.087   7.513  19.871  0.00  0.00    +0.000 A 
ATOM      4  C   UNL     1       2.583   7.387  18.564  0.00  0.00    +0.000 A 
ATOM      5  C   UNL     1       2.279   8.391  17.635  0.00  0.00    +0.000 A 
ATOM      6  C   UNL     1       1.493   9.492  17.997  0.00  0.00    +0.000 A 
ENDROOT
BRANCH   4   7
ATOM      7  N   UNL     1       3.325   6.228  18.188  0.00  0.00    +0.000 N 
ATOM      8  N   UNL     1       4.580   6.363  17.667  0.00  0.00    +0.000 NA
ATOM      9  C   UNL     1       5.062   5.105  17.531  0.00  0.00    +0.000 A 
ATOM     10  C   UNL     1       4.052   4.162  17.820  0.00  0.00    +0.000 A 
ATOM     11  C   UNL     1       2.973   4.891  18.274  0.00  0.00    +0.000 A 
ATOM     12  C   UNL     1       1.634   4.306  18.588  0.00  0.00    +0.000 C 
ATOM     13  C   UNL     1       1.735   2.773  18.717  0.00  0.00    +0.000 C 
ATOM     14  C   UNL     1       2.603   2.148  17.615  0.00  0.00    +0.000 C 
ATOM     15  C   UNL     1       4.047   2.676  17.672  0.00  0.00    +0.000 C 
BRANCH   9  16
ATOM     16  C   UNL     1       6.471   4.786  17.093  0.00  0.00    +0.000 C 
ATOM     17  F   UNL     1       7.242   4.218  18.056  0.00  0.00    +0.000 F 
ATOM     18  F   UNL     1       6.477   3.925  16.034  0.00  0.00    +0.000 F 
ATOM     19  F   UNL     1       7.130   5.901  16.670  0.00  0.00    +0.000 F 
ENDBRANCH   9  16
ENDBRANCH   4   7
BRANCH   1  20
ATOM     20  C   UNL     1       0.028  10.747  19.634  0.00  0.00    +0.000 C 
BRANCH  20  26
ATOM     21  O   UNL     1      -0.874  13.010  17.948  0.00  0.00    +0.000 OA
ATOM     22  C   UNL     1      -1.483  11.956  18.027  0.00  0.00    +0.000 C 
ATOM     23  C   UNL     1      -2.808  11.660  17.365  0.00  0.00    +0.000 C 
ATOM     24  C   UNL     1      -2.824  10.137  17.330  0.00  0.00    +0.000 C 
ATOM     25  C   UNL     1      -2.045   9.740  18.570  0.00  0.00    +0.000 C 
ATOM     26  N   UNL     1      -1.133  10.837  18.769  0.00  0.00    +0.000 N 
ENDBRANCH  20  26
ENDBRANCH   1  20
TORSDOF 4
ENDMDL
MODEL 2
REMARK VINA RESULT:      -8.3      1.278      1.930
REMARK  Name = 
REMARK  4 active torsions:
REMARK  status: ('A' for Active; 'I' for Inactive)
REMARK    1  A    between atoms: N_6  and  C_7
REMARK    2  A    between atoms: C_7  and  C_8
REMARK    3  A    between atoms: C_11  and  N_12
REMARK    4  A    between atoms: C_14  and  C_15
REMARK                            x       y       z     vdW  Elec       q    Type
REMARK                         _______ _______ _______ _____ _____    ______ ____
ROOT
ATOM      1  C   UNL     1       0.878   9.576  19.590  0.00  0.00    +0.000 A 
ATOM      2  C   UNL     1       1.270   8.571  20.490  0.00  0.00    +0.000 A 
ATOM      3  C   UNL     1       2.037   7.473  20.062  0.00  0.00    +0.000 A 
ATOM      4  C   UNL     1       2.462   7.381  18.727  0.00  0.00    +0.000 A 
ATOM      5  C   UNL     1       2.100   8.401  17.839  0.00  0.00    +0.000 A 
ATOM      6  C   UNL     1       1.325   9.487  18.266  0.00  0.00    +0.000 A 
ENDROOT
BRANCH   4   7
ATOM      7  N   UNL     1       3.193   6.237  18.286  0.00  0.00    +0.000 N 
ATOM      8  N   UNL     1       4.415   6.396  17.699  0.00  0.00    +0.000 NA
ATOM      9  C   UNL     1       4.900   5.147  17.509  0.00  0.00    +0.000 A 
ATOM     10  C   UNL     1       3.917   4.187  17.833  0.00  0.00    +0.000 A 
ATOM     11  C   UNL     1       2.858   4.895  18.362  0.00  0.00    +0.000 A 
ATOM     12  C   UNL     1       1.544   4.290  18.737  0.00  0.00    +0.000 C 
ATOM     13  C   UNL     1       1.666   2.756  18.827  0.00  0.00    +0.000 C 
ATOM     14  C   UNL     1       2.478   2.163  17.666  0.00  0.00    +0.000 C 
ATOM     15  C   UNL     1       3.917   2.705  17.654  0.00  0.00    +0.000 C 
BRANCH   9  16
ATOM     16  C   UNL     1       6.286   4.851  16.988  0.00  0.00    +0.000 C 
ATOM     17  F   UNL     1       7.111   4.261  17.891  0.00  0.00    +0.000 F 
ATOM     18  F   UNL     1       6.240   4.021  15.905  0.00  0.00    +0.000 F 
ATOM     19  F   UNL     1       6.915   5.983  16.564  0.00  0.00    +0.000 F 
ENDBRANCH   9  16
ENDBRANCH   4   7
BRANCH   1  20
ATOM     20  C   UNL     1      -0.060  10.691  20.008  0.00  0.00    +0.000 C 
BRANCH  20  26
ATOM     21  O   UNL     1      -1.027  12.688  18.045  0.00  0.00    +0.000 OA
ATOM     22  C   UNL     1      -0.074  12.886  18.781  0.00  0.00    +0.000 C 
ATOM     23  C   UNL     1       0.806  14.114  18.761  0.00  0.00    +0.000 C 
ATOM     24  C   UNL     1       1.431  14.093  20.149  0.00  0.00    +0.000 C 
ATOM     25  C   UNL     1       1.528  12.615  20.477  0.00  0.00    +0.000 C 
ATOM     26  N   UNL     1       0.440  12.026  19.740  0.00  0.00    +0.000 N 
ENDBRANCH  20  26
ENDBRANCH   1  20
TORSDOF 4
ENDMDL
MODEL 3
REMARK VINA RESULT:      -8.3      4.713      8.428
REMARK  Name = 
REMARK  4 active torsions:
REMARK  status: ('A' for Active; 'I' for Inactive)
REMARK    1  A    between atoms: N_6  and  C_7
REMARK    2  A    between atoms: C_7  and  C_8
REMARK    3  A    between atoms: C_11  and  N_12
REMARK    4  A    between atoms: C_14  and  C_15
REMARK                            x       y       z     vdW  Elec       q    Type
REMARK                         _______ _______ _______ _____ _____    ______ ____
ROOT
ATOM      1  C   UNL     1       3.595   6.342  18.426  0.00  0.00    +0.000 A 
ATOM      2  C   UNL     1       3.443   7.462  17.592  0.00  0.00    +0.000 A 
ATOM      3  C   UNL     1       2.530   8.483  17.908  0.00  0.00    +0.000 A 
ATOM      4  C   UNL     1       1.777   8.422  19.091  0.00  0.00    +0.000 A 
ATOM      5  C   UNL     1       1.954   7.322  19.940  0.00  0.00    +0.000 A 
ATOM      6  C   UNL     1       2.856   6.301  19.615  0.00  0.00    +0.000 A 
ENDROOT
BRANCH   4   7
ATOM      7  N   UNL     1       0.812   9.433  19.379  0.00  0.00    +0.000 N 
ATOM      8  N   UNL     1       0.320  10.210  18.370  0.00  0.00    +0.000 NA
ATOM      9  C   UNL     1      -0.647  10.975  18.929  0.00  0.00    +0.000 A 
ATOM     10  C   UNL     1      -0.663  10.795  20.329  0.00  0.00    +0.000 A 
ATOM     11  C   UNL     1       0.239   9.785  20.590  0.00  0.00    +0.000 A 
ATOM     12  C   UNL     1       0.631   9.340  21.962  0.00  0.00    +0.000 C 
ATOM     13  C   UNL     1      -0.373   9.869  23.005  0.00  0.00    +0.000 C 
ATOM     14  C   UNL     1      -0.758  11.335  22.757  0.00  0.00    +0.000 C 
ATOM     15  C   UNL     1      -1.435  11.512  21.387  0.00  0.00    +0.000 C 
BRANCH   9  16
ATOM     16  C   UNL     1      -1.541  11.908  18.148  0.00  0.00    +0.000 C 
ATOM     17  F   UNL     1      -1.868  11.464  16.907  0.00  0.00    +0.000 F 
ATOM     18  F   UNL     1      -2.718  12.130  18.803  0.00  0.00    +0.000 F 
ATOM     19  F   UNL     1      -0.968  13.134  17.987  0.00  0.00    +0.000 F 
ENDBRANCH   9  16
ENDBRANCH   4   7
BRANCH   1  20
ATOM     20  C   UNL     1       4.474   5.173  18.030  0.00  0.00    +0.000 C 
BRANCH  20  26
ATOM     21  O   UNL     1       5.019   2.909  19.862  0.00  0.00    +0.000 OA
ATOM     22  C   UNL     1       4.161   2.871  18.994  0.00  0.00    +0.000 C 
ATOM     23  C   UNL     1       3.311   1.669  18.657  0.00  0.00    +0.000 C 
ATOM     24  C   UNL     1       2.119   2.298  17.948  0.00  0.00    +0.000 C 
ATOM     25  C   UNL     1       2.710   3.516  17.264  0.00  0.00    +0.000 C 
ATOM     26  N   UNL     1       3.820   3.880  18.106  0.00  0.00    +0.000 N 
ENDBRANCH  20  26
ENDBRANCH   1  20
TORSDOF 4
ENDMDL
MODEL 4
REMARK VINA RESULT:      -8.3      1.512      2.003
REMARK  Name = 
REMARK  4 active torsions:
REMARK  status: ('A' for Active; 'I' for Inactive)
REMARK    1  A    between atoms: N_6  and  C_7
REMARK    2  A    between atoms: C_7  and  C_8
REMARK    3  A    between atoms: C_11  and  N_12
REMARK    4  A    between atoms: C_14  and  C_15
REMARK                            x       y       z     vdW  Elec       q    Type
REMARK                         _______ _______ _______ _____ _____    ______ ____
ROOT
ATOM      1  C   UNL     1       0.589   9.718  19.644  0.00  0.00    +0.000 A 
ATOM      2  C   UNL     1       1.141   8.741  20.489  0.00  0.00    +0.000 A 
ATOM      3  C   UNL     1       1.989   7.740  19.984  0.00  0.00    +0.000 A 
ATOM      4  C   UNL     1       2.334   7.722  18.623  0.00  0.00    +0.000 A 
ATOM      5  C   UNL     1       1.811   8.717  17.788  0.00  0.00    +0.000 A 
ATOM      6  C   UNL     1       0.957   9.705  18.293  0.00  0.00    +0.000 A 
ENDROOT
BRANCH   4   7
ATOM      7  N   UNL     1       3.150   6.672  18.106  0.00  0.00    +0.000 N 
ATOM      8  N   UNL     1       4.353   6.966  17.530  0.00  0.00    +0.000 NA
ATOM      9  C   UNL     1       4.934   5.775  17.256  0.00  0.00    +0.000 A 
ATOM     10  C   UNL     1       4.032   4.721  17.516  0.00  0.00    +0.000 A 
ATOM     11  C   UNL     1       2.923   5.306  18.093  0.00  0.00    +0.000 A 
ATOM     12  C   UNL     1       1.664   4.574  18.428  0.00  0.00    +0.000 C 
ATOM     13  C   UNL     1       1.908   3.052  18.415  0.00  0.00    +0.000 C 
ATOM     14  C   UNL     1       2.756   2.604  17.216  0.00  0.00    +0.000 C 
ATOM     15  C   UNL     1       4.148   3.258  17.239  0.00  0.00    +0.000 C 
BRANCH   9  16
ATOM     16  C   UNL     1       6.335   5.625  16.714  0.00  0.00    +0.000 C 
ATOM     17  F   UNL     1       7.078   4.673  17.334  0.00  0.00    +0.000 F 
ATOM     18  F   UNL     1       6.320   5.303  15.387  0.00  0.00    +0.000 F 
ATOM     19  F   UNL     1       7.035   6.790  16.806  0.00  0.00    +0.000 F 
ENDBRANCH   9  16
ENDBRANCH   4   7
BRANCH   1  20
ATOM     20  C   UNL     1      -0.431  10.718  20.150  0.00  0.00    +0.000 C 
BRANCH  20  26
ATOM     21  O   UNL     1       1.709  12.475  21.206  0.00  0.00    +0.000 OA
ATOM     22  C   UNL     1       0.888  12.847  20.382  0.00  0.00    +0.000 C 
ATOM     23  C   UNL     1       0.772  14.251  19.837  0.00  0.00    +0.000 C 
ATOM     24  C   UNL     1       0.017  14.034  18.533  0.00  0.00    +0.000 C 
ATOM     25  C   UNL     1      -0.869  12.837  18.823  0.00  0.00    +0.000 C 
ATOM     26  N   UNL     1      -0.133  12.098  19.817  0.00  0.00    +0.000 N 
ENDBRANCH  20  26
ENDBRANCH   1  20
TORSDOF 4
ENDMDL
MODEL 5
REMARK VINA RESULT:      -8.2      2.166      3.088
REMARK  Name = 
REMARK  4 active torsions:
REMARK  status: ('A' for Active; 'I' for Inactive)
REMARK    1  A    between atoms: N_6  and  C_7
REMARK    2  A    between atoms: C_7  and  C_8
REMARK    3  A    between atoms: C_11  and  N_12
REMARK    4  A    between atoms: C_14  and  C_15
REMARK                            x       y       z     vdW  Elec       q    Type
REMARK                         _______ _______ _______ _____ _____    ______ ____
ROOT
ATOM      1  C   UNL     1       0.978   9.357  20.298  0.00  0.00    +0.000 A 
ATOM      2  C   UNL     1       1.226   8.232  21.101  0.00  0.00    +0.000 A 
ATOM      3  C   UNL     1       1.830   7.080  20.569  0.00  0.00    +0.000 A 
ATOM      4  C   UNL     1       2.237   7.047  19.226  0.00  0.00    +0.000 A 
ATOM      5  C   UNL     1       2.021   8.182  18.435  0.00  0.00    +0.000 A 
ATOM      6  C   UNL     1       1.407   9.323  18.966  0.00  0.00    +0.000 A 
ENDROOT
BRANCH   4   7
ATOM      7  N   UNL     1       2.800   5.856  18.677  0.00  0.00    +0.000 N 
ATOM      8  N   UNL     1       2.416   4.638  19.159  0.00  0.00    +0.000 NA
ATOM      9  C   UNL     1       3.020   3.720  18.368  0.00  0.00    +0.000 A 
ATOM     10  C   UNL     1       3.914   4.354  17.480  0.00  0.00    +0.000 A 
ATOM     11  C   UNL     1       3.732   5.709  17.662  0.00  0.00    +0.000 A 
ATOM     12  C   UNL     1       4.559   6.766  17.006  0.00  0.00    +0.000 C 
ATOM     13  C   UNL     1       5.355   6.171  15.827  0.00  0.00    +0.000 C 
ATOM     14  C   UNL     1       5.982   4.812  16.171  0.00  0.00    +0.000 C 
ATOM     15  C   UNL     1       4.907   3.772  16.528  0.00  0.00    +0.000 C 
BRANCH   9  16
ATOM     16  C   UNL     1       2.781   2.232  18.469  0.00  0.00    +0.000 C 
ATOM     17  F   UNL     1       1.832   1.877  19.373  0.00  0.00    +0.000 F 
ATOM     18  F   UNL     1       2.390   1.711  17.270  0.00  0.00    +0.000 F 
ATOM     19  F   UNL     1       3.918   1.564  18.813  0.00  0.00    +0.000 F 
ENDBRANCH   9  16
ENDBRANCH   4   7
BRANCH   1  20
ATOM     20  C   UNL     1       0.206  10.551  20.824  0.00  0.00    +0.000 C 
BRANCH  20  26
ATOM     21  O   UNL     1       1.490  12.912  19.577  0.00  0.00    +0.000 OA
ATOM     22  C   UNL     1       0.369  12.532  19.283  0.00  0.00    +0.000 C 
ATOM     23  C   UNL     1      -0.565  13.227  18.321  0.00  0.00    +0.000 C 
ATOM     24  C   UNL     1      -1.520  12.109  17.925  0.00  0.00    +0.000 C 
ATOM     25  C   UNL     1      -1.588  11.237  19.165  0.00  0.00    +0.000 C 
ATOM     26  N   UNL     1      -0.307  11.433  19.793  0.00  0.00    +0.000 N 
ENDBRANCH  20  26
ENDBRANCH   1  20
TORSDOF 4
ENDMDL
MODEL 6
REMARK VINA RESULT:      -8.2      1.596      2.334
REMARK  Name = 
REMARK  4 active torsions:
REMARK  status: ('A' for Active; 'I' for Inactive)
REMARK    1  A    between atoms: N_6  and  C_7
REMARK    2  A    between atoms: C_7  and  C_8
REMARK    3  A    between atoms: C_11  and  N_12
REMARK    4  A    between atoms: C_14  and  C_15
REMARK                            x       y       z     vdW  Elec       q    Type
REMARK                         _______ _______ _______ _____ _____    ______ ____
ROOT
ATOM      1  C   UNL     1       0.811   9.688  19.256  0.00  0.00    +0.000 A 
ATOM      2  C   UNL     1       1.244   8.774  20.231  0.00  0.00    +0.000 A 
ATOM      3  C   UNL     1       2.040   7.668  19.886  0.00  0.00    +0.000 A 
ATOM      4  C   UNL     1       2.454   7.477  18.558  0.00  0.00    +0.000 A 
ATOM      5  C   UNL     1       2.051   8.408  17.593  0.00  0.00    +0.000 A 
ATOM      6  C   UNL     1       1.247   9.501  17.939  0.00  0.00    +0.000 A 
ENDROOT
BRANCH   4   7
ATOM      7  N   UNL     1       3.216   6.324  18.205  0.00  0.00    +0.000 N 
ATOM      8  N   UNL     1       4.482   6.469  17.715  0.00  0.00    +0.000 NA
ATOM      9  C   UNL     1       4.979   5.215  17.594  0.00  0.00    +0.000 A 
ATOM     10  C   UNL     1       3.971   4.263  17.860  0.00  0.00    +0.000 A 
ATOM     11  C   UNL     1       2.873   4.984  18.284  0.00  0.00    +0.000 A 
ATOM     12  C   UNL     1       1.532   4.387  18.565  0.00  0.00    +0.000 C 
ATOM     13  C   UNL     1       1.643   2.856  18.700  0.00  0.00    +0.000 C 
ATOM     14  C   UNL     1       2.545   2.237  17.623  0.00  0.00    +0.000 C 
ATOM     15  C   UNL     1       3.982   2.777  17.716  0.00  0.00    +0.000 C 
BRANCH   9  16
ATOM     16  C   UNL     1       6.401   4.907  17.194  0.00  0.00    +0.000 C 
ATOM     17  F   UNL     1       7.144   4.321  18.168  0.00  0.00    +0.000 F 
ATOM     18  F   UNL     1       6.442   4.068  16.118  0.00  0.00    +0.000 F 
ATOM     19  F   UNL     1       7.070   6.032  16.814  0.00  0.00    +0.000 F 
ENDBRANCH   9  16
ENDBRANCH   4   7
BRANCH   1  20
ATOM     20  C   UNL     1      -0.157  10.804  19.592  0.00  0.00    +0.000 C 
BRANCH  20  26
ATOM     21  O   UNL     1      -0.011  12.039  22.281  0.00  0.00    +0.000 OA
ATOM     22  C   UNL     1       0.476  12.552  21.286  0.00  0.00    +0.000 C 
ATOM     23  C   UNL     1       1.146  13.905  21.239  0.00  0.00    +0.000 C 
ATOM     24  C   UNL     1       2.004  13.802  19.986  0.00  0.00    +0.000 C 
ATOM     25  C   UNL     1       1.210  12.881  19.079  0.00  0.00    +0.000 C 
ATOM     26  N   UNL     1       0.477  12.045  19.995  0.00  0.00    +0.000 N 
ENDBRANCH  20  26
ENDBRANCH   1  20
TORSDOF 4
ENDMDL
MODEL 7
REMARK VINA RESULT:      -8.2      0.766      1.426
REMARK  Name = 
REMARK  4 active torsions:
REMARK  status: ('A' for Active; 'I' for Inactive)
REMARK    1  A    between atoms: N_6  and  C_7
REMARK    2  A    between atoms: C_7  and  C_8
REMARK    3  A    between atoms: C_11  and  N_12
REMARK    4  A    between atoms: C_14  and  C_15
REMARK                            x       y       z     vdW  Elec       q    Type
REMARK                         _______ _______ _______ _____ _____    ______ ____
ROOT
ATOM      1  C   UNL     1       1.118   9.829  19.268  0.00  0.00    +0.000 A 
ATOM      2  C   UNL     1       1.597   9.645  17.960  0.00  0.00    +0.000 A 
ATOM      3  C   UNL     1       2.295   8.479  17.601  0.00  0.00    +0.000 A 
ATOM      4  C   UNL     1       2.492   7.452  18.537  0.00  0.00    +0.000 A 
ATOM      5  C   UNL     1       1.984   7.621  19.831  0.00  0.00    +0.000 A 
ATOM      6  C   UNL     1       1.300   8.790  20.189  0.00  0.00    +0.000 A 
ENDROOT
BRANCH   4   7
ATOM      7  N   UNL     1       3.249   6.295  18.182  0.00  0.00    +0.000 N 
ATOM      8  N   UNL     1       4.513   6.435  17.687  0.00  0.00    +0.000 NA
ATOM      9  C   UNL     1       5.005   5.180  17.566  0.00  0.00    +0.000 A 
ATOM     10  C   UNL     1       3.996   4.232  17.838  0.00  0.00    +0.000 A 
ATOM     11  C   UNL     1       2.902   4.957  18.266  0.00  0.00    +0.000 A 
ATOM     12  C   UNL     1       1.561   4.365  18.555  0.00  0.00    +0.000 C 
ATOM     13  C   UNL     1       1.668   2.833  18.692  0.00  0.00    +0.000 C 
ATOM     14  C   UNL     1       2.563   2.209  17.612  0.00  0.00    +0.000 C 
ATOM     15  C   UNL     1       4.002   2.746  17.697  0.00  0.00    +0.000 C 
BRANCH   9  16
ATOM     16  C   UNL     1       6.425   4.867  17.159  0.00  0.00    +0.000 C 
ATOM     17  F   UNL     1       7.160   5.952  16.805  0.00  0.00    +0.000 F 
ATOM     18  F   UNL     1       7.105   4.250  18.169  0.00  0.00    +0.000 F 
ATOM     19  F   UNL     1       6.466   4.005  16.103  0.00  0.00    +0.000 F 
ENDBRANCH   9  16
ENDBRANCH   4   7
BRANCH   1  20
ATOM     20  C   UNL     1       0.485  11.135  19.703  0.00  0.00    +0.000 C 
BRANCH  20  26
ATOM     21  O   UNL     1      -1.401  13.331  20.333  0.00  0.00    +0.000 OA
ATOM     22  C   UNL     1      -1.720  12.345  19.690  0.00  0.00    +0.000 C 
ATOM     23  C   UNL     1      -3.113  12.040  19.190  0.00  0.00    +0.000 C 
ATOM     24  C   UNL     1      -2.847  11.058  18.057  0.00  0.00    +0.000 C 
ATOM     25  C   UNL     1      -1.600  10.319  18.506  0.00  0.00    +0.000 C 
ATOM     26  N   UNL     1      -0.910  11.278  19.329  0.00  0.00    +0.000 N 
ENDBRANCH  20  26
ENDBRANCH   1  20
TORSDOF 4
ENDMDL
MODEL 8
REMARK VINA RESULT:      -8.2      2.401      3.556
REMARK  Name = 
REMARK  4 active torsions:
REMARK  status: ('A' for Active; 'I' for Inactive)
REMARK    1  A    between atoms: N_6  and  C_7
REMARK    2  A    between atoms: C_7  and  C_8
REMARK    3  A    between atoms: C_11  and  N_12
REMARK    4  A    between atoms: C_14  and  C_15
REMARK                            x       y       z     vdW  Elec       q    Type
REMARK                         _______ _______ _______ _____ _____    ______ ____
ROOT
ATOM      1  C   UNL     1       0.915   9.755  19.636  0.00  0.00    +0.000 A 
ATOM      2  C   UNL     1       1.253   8.769  20.579  0.00  0.00    +0.000 A 
ATOM      3  C   UNL     1       1.868   7.568  20.184  0.00  0.00    +0.000 A 
ATOM      4  C   UNL     1       2.196   7.348  18.837  0.00  0.00    +0.000 A 
ATOM      5  C   UNL     1       1.891   8.346  17.903  0.00  0.00    +0.000 A 
ATOM      6  C   UNL     1       1.266   9.535  18.299  0.00  0.00    +0.000 A 
ENDROOT
BRANCH   4   7
ATOM      7  N   UNL     1       2.770   6.105  18.434  0.00  0.00    +0.000 N 
ATOM      8  N   UNL     1       2.312   4.937  18.975  0.00  0.00    +0.000 NA
ATOM      9  C   UNL     1       2.956   3.946  18.314  0.00  0.00    +0.000 A 
ATOM     10  C   UNL     1       3.939   4.488  17.459  0.00  0.00    +0.000 A 
ATOM     11  C   UNL     1       3.779   5.857  17.518  0.00  0.00    +0.000 A 
ATOM     12  C   UNL     1       4.687   6.840  16.854  0.00  0.00    +0.000 C 
ATOM     13  C   UNL     1       5.563   6.135  15.799  0.00  0.00    +0.000 C 
ATOM     14  C   UNL     1       6.122   4.796  16.302  0.00  0.00    +0.000 C 
ATOM     15  C   UNL     1       4.992   3.810  16.645  0.00  0.00    +0.000 C 
BRANCH   9  16
ATOM     16  C   UNL     1       2.668   2.477  18.511  0.00  0.00    +0.000 C 
ATOM     17  F   UNL     1       3.710   1.763  19.008  0.00  0.00    +0.000 F 
ATOM     18  F   UNL     1       1.624   2.288  19.370  0.00  0.00    +0.000 F 
ATOM     19  F   UNL     1       2.303   1.877  17.344  0.00  0.00    +0.000 F 
ENDBRANCH   9  16
ENDBRANCH   4   7
BRANCH   1  20
ATOM     20  C   UNL     1       0.131  10.990  20.029  0.00  0.00    +0.000 C 
BRANCH  20  26
ATOM     21  O   UNL     1      -0.620  13.034  18.020  0.00  0.00    +0.000 OA
ATOM     22  C   UNL     1       0.366  13.132  18.732  0.00  0.00    +0.000 C 
ATOM     23  C   UNL     1       1.392  14.239  18.657  0.00  0.00    +0.000 C 
ATOM     24  C   UNL     1       2.038  14.181  20.034  0.00  0.00    +0.000 C 
ATOM     25  C   UNL     1       1.957  12.713  20.409  0.00  0.00    +0.000 C 
ATOM     26  N   UNL     1       0.789  12.243  19.709  0.00  0.00    +0.000 N 
ENDBRANCH  20  26
ENDBRANCH   1  20
TORSDOF 4
ENDMDL
MODEL 9
REMARK VINA RESULT:      -8.1      1.525      2.377
REMARK  Name = 
REMARK  4 active torsions:
REMARK  status: ('A' for Active; 'I' for Inactive)
REMARK    1  A    between atoms: N_6  and  C_7
REMARK    2  A    between atoms: C_7  and  C_8
REMARK    3  A    between atoms: C_11  and  N_12
REMARK    4  A    between atoms: C_14  and  C_15
REMARK                            x       y       z     vdW  Elec       q    Type
REMARK                         _______ _______ _______ _____ _____    ______ ____
ROOT
ATOM      1  C   UNL     1       0.813   9.880  19.607  0.00  0.00    +0.000 A 
ATOM      2  C   UNL     1       1.138   9.795  18.243  0.00  0.00    +0.000 A 
ATOM      3  C   UNL     1       1.892   8.720  17.742  0.00  0.00    +0.000 A 
ATOM      4  C   UNL     1       2.302   7.682  18.593  0.00  0.00    +0.000 A 
ATOM      5  C   UNL     1       1.948   7.749  19.947  0.00  0.00    +0.000 A 
ATOM      6  C   UNL     1       1.208   8.829  20.444  0.00  0.00    +0.000 A 
ENDROOT
BRANCH   4   7
ATOM      7  N   UNL     1       3.113   6.622  18.090  0.00  0.00    +0.000 N 
ATOM      8  N   UNL     1       4.302   6.905  17.481  0.00  0.00    +0.000 NA
ATOM      9  C   UNL     1       4.884   5.708  17.230  0.00  0.00    +0.000 A 
ATOM     10  C   UNL     1       3.993   4.658  17.538  0.00  0.00    +0.000 A 
ATOM     11  C   UNL     1       2.893   5.254  18.120  0.00  0.00    +0.000 A 
ATOM     12  C   UNL     1       1.645   4.527  18.501  0.00  0.00    +0.000 C 
ATOM     13  C   UNL     1       1.895   3.006  18.527  0.00  0.00    +0.000 C 
ATOM     14  C   UNL     1       2.722   2.528  17.324  0.00  0.00    +0.000 C 
ATOM     15  C   UNL     1       4.111   3.189  17.300  0.00  0.00    +0.000 C 
BRANCH   9  16
ATOM     16  C   UNL     1       6.275   5.550  16.664  0.00  0.00    +0.000 C 
ATOM     17  F   UNL     1       6.986   4.526  17.203  0.00  0.00    +0.000 F 
ATOM     18  F   UNL     1       6.239   5.331  15.317  0.00  0.00    +0.000 F 
ATOM     19  F   UNL     1       7.019   6.678  16.839  0.00  0.00    +0.000 F 
ENDBRANCH   9  16
ENDBRANCH   4   7
BRANCH   1  20
ATOM     20  C   UNL     1       0.120  11.098  20.183  0.00  0.00    +0.000 C 
BRANCH  20  26
ATOM     21  O   UNL     1      -0.685  13.044  18.098  0.00  0.00    +0.000 OA
ATOM     22  C   UNL     1       0.291  13.201  18.814  0.00  0.00    +0.000 C 
ATOM     23  C   UNL     1       1.278  14.341  18.709  0.00  0.00    +0.000 C 
ATOM     24  C   UNL     1       1.913  14.353  20.092  0.00  0.00    +0.000 C 
ATOM     25  C   UNL     1       1.881  12.896  20.516  0.00  0.00    +0.000 C 
ATOM     26  N   UNL     1       0.736  12.362  19.825  0.00  0.00    +0.000 N 
ENDBRANCH  20  26
ENDBRANCH   1  20
TORSDOF 4
ENDMDL
