MODEL 1
REMARK VINA RESULT:      -6.2      0.000      0.000
REMARK  Name = 
REMARK  7 active torsions:
REMARK  status: ('A' for Active; 'I' for Inactive)
REMARK    1  A    between atoms: C_1  and  S_2
REMARK    2  A    between atoms: S_2  and  C_3
REMARK    3  A    between atoms: N_5  and  C_6
REMARK    4  A    between atoms: C_10  and  C_11
REMARK    5  A    between atoms: C_18  and  N_19
REMARK    6  A    between atoms: C_20  and  C_21
REMARK    7  A    between atoms: C_24  and  C_25
REMARK                            x       y       z     vdW  Elec       q    Type
REMARK                         _______ _______ _______ _____ _____    ______ ____
ROOT
ATOM      1  C   UNL     1      -5.514  13.143  22.650  0.00  0.00    +0.000 A 
ATOM      2  N   UNL     1      -5.483  12.342  21.584  0.00  0.00    +0.000 NA
ATOM      3  N   UNL     1      -4.731  13.007  20.666  0.00  0.00    +0.000 N 
ATOM      4  C   UNL     1      -4.378  14.275  21.130  0.00  0.00    +0.000 A 
ATOM      5  C   UNL     1      -4.800  14.341  22.447  0.00  0.00    +0.000 A 
ENDROOT
BRANCH   3   6
ATOM      6  C   UNL     1      -4.396  12.382  19.429  0.00  0.00    +0.000 A 
ATOM      7  C   UNL     1      -5.396  12.108  18.476  0.00  0.00    +0.000 A 
ATOM      8 CL   UNL     1      -7.047  12.629  18.606  0.00  0.00    +0.000 Cl
ATOM      9  C   UNL     1      -5.079  11.454  17.274  0.00  0.00    +0.000 A 
ATOM     10  C   UNL     1      -3.765  11.076  16.979  0.00  0.00    +0.000 A 
ATOM     11  C   UNL     1      -2.768  11.369  17.913  0.00  0.00    +0.000 A 
ATOM     12  C   UNL     1      -3.075  11.985  19.136  0.00  0.00    +0.000 A 
ATOM     13 CL   UNL     1      -1.750  12.032  20.254  0.00  0.00    +0.000 Cl
BRANCH  10  14
ATOM     14  C   UNL     1      -3.413  10.343  15.709  0.00  0.00    +0.000 C 
ATOM     15  F   UNL     1      -3.020   9.058  15.913  0.00  0.00    +0.000 F 
ATOM     16  F   UNL     1      -4.455  10.288  14.837  0.00  0.00    +0.000 F 
ATOM     17  F   UNL     1      -2.394  10.947  15.038  0.00  0.00    +0.000 F 
ENDBRANCH  10  14
ENDBRANCH   3   6
BRANCH   5  18
ATOM     18  C   UNL     1      -4.500  15.477  23.376  0.00  0.00    +0.000 A 
ATOM     19  C   UNL     1      -5.419  16.234  24.070  0.00  0.00    +0.000 A 
ATOM     20  C   UNL     1      -4.795  17.193  24.928  0.00  0.00    +0.000 A 
ATOM     21  C   UNL     1      -3.419  17.114  24.883  0.00  0.00    +0.000 A 
ATOM     22  C   UNL     1      -2.403  17.861  25.671  0.00  0.00    +0.000 C 
ATOM     23  S   UNL     1      -2.897  15.971  23.733  0.00  0.00    +0.000 S 
ENDBRANCH   5  18
BRANCH   4  24
ATOM     24  N   UNL     1      -3.806  15.257  20.364  0.00  0.00    +0.000 N 
ATOM     25  H   UNL     1      -4.063  16.229  20.510  0.00  0.00    +0.000 HD
ATOM     26  H   UNL     1      -3.701  15.060  19.370  0.00  0.00    +0.000 HD
ENDBRANCH   4  24
BRANCH   1  28
ATOM     27  C   UNL     1      -7.845  13.493  24.090  0.00  0.00    +0.000 C 
ATOM     28  S   UNL     1      -6.270  12.616  24.140  0.00  0.00    +0.000 S 
ENDBRANCH   1  28
TORSDOF 5
ENDMDL
MODEL 2
REMARK VINA RESULT:      -6.0      0.719      2.140
REMARK  Name = 
REMARK  7 active torsions:
REMARK  status: ('A' for Active; 'I' for Inactive)
REMARK    1  A    between atoms: C_1  and  S_2
REMARK    2  A    between atoms: S_2  and  C_3
REMARK    3  A    between atoms: N_5  and  C_6
REMARK    4  A    between atoms: C_10  and  C_11
REMARK    5  A    between atoms: C_18  and  N_19
REMARK    6  A    between atoms: C_20  and  C_21
REMARK    7  A    between atoms: C_24  and  C_25
REMARK                            x       y       z     vdW  Elec       q    Type
REMARK                         _______ _______ _______ _____ _____    ______ ____
ROOT
ATOM      1  C   UNL     1      -5.735  13.138  22.583  0.00  0.00    +0.000 A 
ATOM      2  N   UNL     1      -5.612  12.275  21.574  0.00  0.00    +0.000 NA
ATOM      3  N   UNL     1      -5.013  12.980  20.577  0.00  0.00    +0.000 N 
ATOM      4  C   UNL     1      -4.854  14.320  20.936  0.00  0.00    +0.000 A 
ATOM      5  C   UNL     1      -5.232  14.417  22.264  0.00  0.00    +0.000 A 
ENDROOT
BRANCH   3   6
ATOM      6  C   UNL     1      -4.626  12.324  19.372  0.00  0.00    +0.000 A 
ATOM      7  C   UNL     1      -3.278  11.977  19.153  0.00  0.00    +0.000 A 
ATOM      8 CL   UNL     1      -2.016  12.136  20.334  0.00  0.00    +0.000 Cl
ATOM      9  C   UNL     1      -2.883  11.368  17.949  0.00  0.00    +0.000 A 
ATOM     10  C   UNL     1      -3.813  11.073  16.947  0.00  0.00    +0.000 A 
ATOM     11  C   UNL     1      -5.154  11.394  17.175  0.00  0.00    +0.000 A 
ATOM     12  C   UNL     1      -5.558  12.038  18.353  0.00  0.00    +0.000 A 
ATOM     13 CL   UNL     1      -7.207  12.575  18.334  0.00  0.00    +0.000 Cl
BRANCH  10  14
ATOM     14  C   UNL     1      -3.401  10.451  15.637  0.00  0.00    +0.000 C 
ATOM     15  F   UNL     1      -2.583  11.242  14.892  0.00  0.00    +0.000 F 
ATOM     16  F   UNL     1      -2.740   9.275  15.806  0.00  0.00    +0.000 F 
ATOM     17  F   UNL     1      -4.473  10.169  14.846  0.00  0.00    +0.000 F 
ENDBRANCH  10  14
ENDBRANCH   3   6
BRANCH   5  18
ATOM     18  C   UNL     1      -5.087  15.652  23.097  0.00  0.00    +0.000 A 
ATOM     19  C   UNL     1      -6.110  16.417  23.616  0.00  0.00    +0.000 A 
ATOM     20  C   UNL     1      -5.627  17.490  24.429  0.00  0.00    +0.000 A 
ATOM     21  C   UNL     1      -4.251  17.489  24.528  0.00  0.00    +0.000 A 
ATOM     22  C   UNL     1      -3.361  18.368  25.332  0.00  0.00    +0.000 C 
ATOM     23  S   UNL     1      -3.557  16.274  23.558  0.00  0.00    +0.000 S 
ENDBRANCH   5  18
BRANCH   4  24
ATOM     24  N   UNL     1      -4.477  15.319  20.077  0.00  0.00    +0.000 N 
ATOM     25  H   UNL     1      -4.457  16.283  20.398  0.00  0.00    +0.000 HD
ATOM     26  H   UNL     1      -4.837  15.266  19.125  0.00  0.00    +0.000 HD
ENDBRANCH   4  24
BRANCH   1  28
ATOM     27  C   UNL     1      -4.815  12.375  25.073  0.00  0.00    +0.000 C 
ATOM     28  S   UNL     1      -6.340  12.613  24.140  0.00  0.00    +0.000 S 
ENDBRANCH   1  28
TORSDOF 5
ENDMDL
MODEL 3
REMARK VINA RESULT:      -5.9      0.752      2.144
REMARK  Name = 
REMARK  7 active torsions:
REMARK  status: ('A' for Active; 'I' for Inactive)
REMARK    1  A    between atoms: C_1  and  S_2
REMARK    2  A    between atoms: S_2  and  C_3
REMARK    3  A    between atoms: N_5  and  C_6
REMARK    4  A    between atoms: C_10  and  C_11
REMARK    5  A    between atoms: C_18  and  N_19
REMARK    6  A    between atoms: C_20  and  C_21
REMARK    7  A    between atoms: C_24  and  C_25
REMARK                            x       y       z     vdW  Elec       q    Type
REMARK                         _______ _______ _______ _____ _____    ______ ____
ROOT
ATOM      1  C   UNL     1      -5.344  13.003  22.664  0.00  0.00    +0.000 A 
ATOM      2  N   UNL     1      -5.387  12.254  21.560  0.00  0.00    +0.000 NA
ATOM      3  N   UNL     1      -4.486  12.821  20.715  0.00  0.00    +0.000 N 
ATOM      4  C   UNL     1      -3.953  13.991  21.260  0.00  0.00    +0.000 A 
ATOM      5  C   UNL     1      -4.430  14.072  22.557  0.00  0.00    +0.000 A 
ENDROOT
BRANCH   3   6
ATOM      6  C   UNL     1      -4.191  12.202  19.465  0.00  0.00    +0.000 A 
ATOM      7  C   UNL     1      -2.884  11.759  19.182  0.00  0.00    +0.000 A 
ATOM      8 CL   UNL     1      -1.578  11.753  20.325  0.00  0.00    +0.000 Cl
ATOM      9  C   UNL     1      -2.577  11.185  17.937  0.00  0.00    +0.000 A 
ATOM     10  C   UNL     1      -3.558  11.019  16.954  0.00  0.00    +0.000 A 
ATOM     11  C   UNL     1      -4.860  11.435  17.243  0.00  0.00    +0.000 A 
ATOM     12  C   UNL     1      -5.174  12.046  18.466  0.00  0.00    +0.000 A 
ATOM     13 CL   UNL     1      -6.773  12.715  18.531  0.00  0.00    +0.000 Cl
BRANCH  10  14
ATOM     14  C   UNL     1      -3.239  10.437  15.600  0.00  0.00    +0.000 C 
ATOM     15  F   UNL     1      -4.341  10.151  14.856  0.00  0.00    +0.000 F 
ATOM     16  F   UNL     1      -2.476  11.271  14.844  0.00  0.00    +0.000 F 
ATOM     17  F   UNL     1      -2.538   9.273  15.698  0.00  0.00    +0.000 F 
ENDBRANCH  10  14
ENDBRANCH   3   6
BRANCH   5  18
ATOM     18  C   UNL     1      -3.998  15.100  23.555  0.00  0.00    +0.000 A 
ATOM     19  C   UNL     1      -2.930  15.004  24.422  0.00  0.00    +0.000 A 
ATOM     20  C   UNL     1      -2.748  16.195  25.192  0.00  0.00    +0.000 A 
ATOM     21  C   UNL     1      -3.666  17.171  24.865  0.00  0.00    +0.000 A 
ATOM     22  C   UNL     1      -3.775  18.570  25.361  0.00  0.00    +0.000 C 
ATOM     23  S   UNL     1      -4.796  16.608  23.724  0.00  0.00    +0.000 S 
ENDBRANCH   5  18
BRANCH   4  24
ATOM     24  N   UNL     1      -3.184  14.894  20.573  0.00  0.00    +0.000 N 
ATOM     25  H   UNL     1      -3.020  15.819  20.960  0.00  0.00    +0.000 HD
ATOM     26  H   UNL     1      -3.329  14.947  19.566  0.00  0.00    +0.000 HD
ENDBRANCH   4  24
BRANCH   1  28
ATOM     27  C   UNL     1      -7.557  13.801  24.113  0.00  0.00    +0.000 C 
ATOM     28  S   UNL     1      -6.259  12.549  24.087  0.00  0.00    +0.000 S 
ENDBRANCH   1  28
TORSDOF 5
ENDMDL
MODEL 4
REMARK VINA RESULT:      -5.9      4.938      7.958
REMARK  Name = 
REMARK  7 active torsions:
REMARK  status: ('A' for Active; 'I' for Inactive)
REMARK    1  A    between atoms: C_1  and  S_2
REMARK    2  A    between atoms: S_2  and  C_3
REMARK    3  A    between atoms: N_5  and  C_6
REMARK    4  A    between atoms: C_10  and  C_11
REMARK    5  A    between atoms: C_18  and  N_19
REMARK    6  A    between atoms: C_20  and  C_21
REMARK    7  A    between atoms: C_24  and  C_25
REMARK                            x       y       z     vdW  Elec       q    Type
REMARK                         _______ _______ _______ _____ _____    ______ ____
ROOT
ATOM      1  C   UNL     1      -5.612  11.821  19.545  0.00  0.00    +0.000 A 
ATOM      2  N   UNL     1      -5.829  12.612  20.597  0.00  0.00    +0.000 NA
ATOM      3  N   UNL     1      -4.625  13.184  20.862  0.00  0.00    +0.000 N 
ATOM      4  C   UNL     1      -3.629  12.668  20.031  0.00  0.00    +0.000 A 
ATOM      5  C   UNL     1      -4.270  11.852  19.113  0.00  0.00    +0.000 A 
ENDROOT
BRANCH   3   6
ATOM      6  C   UNL     1      -4.517  14.186  21.871  0.00  0.00    +0.000 A 
ATOM      7  C   UNL     1      -4.806  15.531  21.571  0.00  0.00    +0.000 A 
ATOM      8 CL   UNL     1      -5.465  16.084  20.063  0.00  0.00    +0.000 Cl
ATOM      9  C   UNL     1      -4.662  16.530  22.550  0.00  0.00    +0.000 A 
ATOM     10  C   UNL     1      -4.248  16.216  23.849  0.00  0.00    +0.000 A 
ATOM     11  C   UNL     1      -3.985  14.878  24.154  0.00  0.00    +0.000 A 
ATOM     12  C   UNL     1      -4.086  13.876  23.177  0.00  0.00    +0.000 A 
ATOM     13 CL   UNL     1      -3.478  12.333  23.685  0.00  0.00    +0.000 Cl
BRANCH  10  14
ATOM     14  C   UNL     1      -4.055  17.279  24.901  0.00  0.00    +0.000 C 
ATOM     15  F   UNL     1      -3.019  17.027  25.746  0.00  0.00    +0.000 F 
ATOM     16  F   UNL     1      -3.816  18.504  24.362  0.00  0.00    +0.000 F 
ATOM     17  F   UNL     1      -5.157  17.424  25.688  0.00  0.00    +0.000 F 
ENDBRANCH  10  14
ENDBRANCH   3   6
BRANCH   5  18
ATOM     18  C   UNL     1      -3.597  11.203  17.944  0.00  0.00    +0.000 A 
ATOM     19  C   UNL     1      -2.516  10.350  17.990  0.00  0.00    +0.000 A 
ATOM     20  C   UNL     1      -2.166   9.847  16.697  0.00  0.00    +0.000 A 
ATOM     21  C   UNL     1      -3.013  10.310  15.713  0.00  0.00    +0.000 A 
ATOM     22  C   UNL     1      -3.054   9.971  14.265  0.00  0.00    +0.000 C 
ATOM     23  S   UNL     1      -4.142  11.424  16.333  0.00  0.00    +0.000 S 
ENDBRANCH   5  18
BRANCH   4  24
ATOM     24  N   UNL     1      -2.286  12.887  20.190  0.00  0.00    +0.000 N 
ATOM     25  H   UNL     1      -1.900  13.813  20.025  0.00  0.00    +0.000 HD
ATOM     26  H   UNL     1      -1.659  12.168  19.830  0.00  0.00    +0.000 HD
ENDBRANCH   4  24
BRANCH   1  28
ATOM     27  C   UNL     1      -7.027   9.456  19.729  0.00  0.00    +0.000 C 
ATOM     28  S   UNL     1      -6.939  10.981  18.770  0.00  0.00    +0.000 S 
ENDBRANCH   1  28
TORSDOF 5
ENDMDL
MODEL 5
REMARK VINA RESULT:      -5.9      4.914      8.050
REMARK  Name = 
REMARK  7 active torsions:
REMARK  status: ('A' for Active; 'I' for Inactive)
REMARK    1  A    between atoms: C_1  and  S_2
REMARK    2  A    between atoms: S_2  and  C_3
REMARK    3  A    between atoms: N_5  and  C_6
REMARK    4  A    between atoms: C_10  and  C_11
REMARK    5  A    between atoms: C_18  and  N_19
REMARK    6  A    between atoms: C_20  and  C_21
REMARK    7  A    between atoms: C_24  and  C_25
REMARK                            x       y       z     vdW  Elec       q    Type
REMARK                         _______ _______ _______ _____ _____    ______ ____
ROOT
ATOM      1  C   UNL     1      -5.548  11.653  19.585  0.00  0.00    +0.000 A 
ATOM      2  N   UNL     1      -5.738  12.468  20.624  0.00  0.00    +0.000 NA
ATOM      3  N   UNL     1      -4.567  13.144  20.761  0.00  0.00    +0.000 N 
ATOM      4  C   UNL     1      -3.607  12.672  19.863  0.00  0.00    +0.000 A 
ATOM      5  C   UNL     1      -4.255  11.772  19.035  0.00  0.00    +0.000 A 
ENDROOT
BRANCH   3   6
ATOM      6  C   UNL     1      -4.455  14.192  21.721  0.00  0.00    +0.000 A 
ATOM      7  C   UNL     1      -4.012  13.914  23.029  0.00  0.00    +0.000 A 
ATOM      8 CL   UNL     1      -3.412  12.374  23.558  0.00  0.00    +0.000 Cl
ATOM      9  C   UNL     1      -3.940  14.935  23.992  0.00  0.00    +0.000 A 
ATOM     10  C   UNL     1      -4.283  16.254  23.677  0.00  0.00    +0.000 A 
ATOM     11  C   UNL     1      -4.698  16.535  22.372  0.00  0.00    +0.000 A 
ATOM     12  C   UNL     1      -4.815  15.520  21.412  0.00  0.00    +0.000 A 
ATOM     13 CL   UNL     1      -5.582  16.026  19.940  0.00  0.00    +0.000 Cl
BRANCH  10  14
ATOM     14  C   UNL     1      -4.244  17.354  24.706  0.00  0.00    +0.000 C 
ATOM     15  F   UNL     1      -5.262  17.296  25.606  0.00  0.00    +0.000 F 
ATOM     16  F   UNL     1      -3.094  17.343  25.433  0.00  0.00    +0.000 F 
ATOM     17  F   UNL     1      -4.315  18.589  24.136  0.00  0.00    +0.000 F 
ENDBRANCH  10  14
ENDBRANCH   3   6
BRANCH   5  18
ATOM     18  C   UNL     1      -3.635  11.129  17.834  0.00  0.00    +0.000 A 
ATOM     19  C   UNL     1      -2.619  10.196  17.835  0.00  0.00    +0.000 A 
ATOM     20  C   UNL     1      -2.310   9.729  16.519  0.00  0.00    +0.000 A 
ATOM     21  C   UNL     1      -3.122  10.299  15.561  0.00  0.00    +0.000 A 
ATOM     22  C   UNL     1      -3.190  10.030  14.099  0.00  0.00    +0.000 C 
ATOM     23  S   UNL     1      -4.164  11.463  16.237  0.00  0.00    +0.000 S 
ENDBRANCH   5  18
BRANCH   4  24
ATOM     24  N   UNL     1      -2.278  13.003  19.894  0.00  0.00    +0.000 N 
ATOM     25  H   UNL     1      -1.819  13.340  19.052  0.00  0.00    +0.000 HD
ATOM     26  H   UNL     1      -1.662  12.377  20.412  0.00  0.00    +0.000 HD
ENDBRANCH   4  24
BRANCH   1  28
ATOM     27  C   UNL     1      -7.526   9.938  20.466  0.00  0.00    +0.000 C 
ATOM     28  S   UNL     1      -6.864  10.679  18.961  0.00  0.00    +0.000 S 
ENDBRANCH   1  28
TORSDOF 5
ENDMDL
MODEL 6
REMARK VINA RESULT:      -5.8      7.781     10.770
REMARK  Name = 
REMARK  7 active torsions:
REMARK  status: ('A' for Active; 'I' for Inactive)
REMARK    1  A    between atoms: C_1  and  S_2
REMARK    2  A    between atoms: S_2  and  C_3
REMARK    3  A    between atoms: N_5  and  C_6
REMARK    4  A    between atoms: C_10  and  C_11
REMARK    5  A    between atoms: C_18  and  N_19
REMARK    6  A    between atoms: C_20  and  C_21
REMARK    7  A    between atoms: C_24  and  C_25
REMARK                            x       y       z     vdW  Elec       q    Type
REMARK                         _______ _______ _______ _____ _____    ______ ____
ROOT
ATOM      1  C   UNL     1       2.137   6.012  20.290  0.00  0.00    +0.000 A 
ATOM      2  N   UNL     1       1.395   7.017  20.758  0.00  0.00    +0.000 NA
ATOM      3  N   UNL     1       1.574   8.030  19.868  0.00  0.00    +0.000 N 
ATOM      4  C   UNL     1       2.514   7.684  18.895  0.00  0.00    +0.000 A 
ATOM      5  C   UNL     1       2.818   6.349  19.102  0.00  0.00    +0.000 A 
ENDROOT
BRANCH   3   6
ATOM      6  C   UNL     1       0.829   9.238  20.002  0.00  0.00    +0.000 A 
ATOM      7  C   UNL     1       0.736   9.881  21.252  0.00  0.00    +0.000 A 
ATOM      8 CL   UNL     1       1.614   9.404  22.672  0.00  0.00    +0.000 Cl
ATOM      9  C   UNL     1      -0.031  11.049  21.401  0.00  0.00    +0.000 A 
ATOM     10  C   UNL     1      -0.704  11.617  20.314  0.00  0.00    +0.000 A 
ATOM     11  C   UNL     1      -0.592  10.994  19.068  0.00  0.00    +0.000 A 
ATOM     12  C   UNL     1       0.136   9.805  18.913  0.00  0.00    +0.000 A 
ATOM     13 CL   UNL     1      -0.054   9.060  17.358  0.00  0.00    +0.000 Cl
BRANCH  10  14
ATOM     14  C   UNL     1      -1.559  12.850  20.463  0.00  0.00    +0.000 C 
ATOM     15  F   UNL     1      -1.033  13.953  19.866  0.00  0.00    +0.000 F 
ATOM     16  F   UNL     1      -2.800  12.687  19.932  0.00  0.00    +0.000 F 
ATOM     17  F   UNL     1      -1.750  13.184  21.769  0.00  0.00    +0.000 F 
ENDBRANCH  10  14
ENDBRANCH   3   6
BRANCH   5  18
ATOM     18  C   UNL     1       3.682   5.528  18.197  0.00  0.00    +0.000 A 
ATOM     19  C   UNL     1       3.262   4.528  17.346  0.00  0.00    +0.000 A 
ATOM     20  C   UNL     1       4.335   3.994  16.565  0.00  0.00    +0.000 A 
ATOM     21  C   UNL     1       5.532   4.626  16.825  0.00  0.00    +0.000 A 
ATOM     22  C   UNL     1       6.860   4.438  16.180  0.00  0.00    +0.000 C 
ATOM     23  S   UNL     1       5.376   5.770  18.076  0.00  0.00    +0.000 S 
ENDBRANCH   5  18
BRANCH   4  24
ATOM     24  N   UNL     1       3.060   8.556  17.990  0.00  0.00    +0.000 N 
ATOM     25  H   UNL     1       2.492   9.300  17.596  0.00  0.00    +0.000 HD
ATOM     26  H   UNL     1       3.671   8.156  17.279  0.00  0.00    +0.000 HD
ENDBRANCH   4  24
BRANCH   1  28
ATOM     27  C   UNL     1       0.886   3.560  20.054  0.00  0.00    +0.000 C 
ATOM     28  S   UNL     1       2.098   4.439  21.061  0.00  0.00    +0.000 S 
ENDBRANCH   1  28
TORSDOF 5
ENDMDL
MODEL 7
REMARK VINA RESULT:      -5.7      5.352      6.629
REMARK  Name = 
REMARK  7 active torsions:
REMARK  status: ('A' for Active; 'I' for Inactive)
REMARK    1  A    between atoms: C_1  and  S_2
REMARK    2  A    between atoms: S_2  and  C_3
REMARK    3  A    between atoms: N_5  and  C_6
REMARK    4  A    between atoms: C_10  and  C_11
REMARK    5  A    between atoms: C_18  and  N_19
REMARK    6  A    between atoms: C_20  and  C_21
REMARK    7  A    between atoms: C_24  and  C_25
REMARK                            x       y       z     vdW  Elec       q    Type
REMARK                         _______ _______ _______ _____ _____    ______ ____
ROOT
ATOM      1  C   UNL     1      -1.685  11.935  19.751  0.00  0.00    +0.000 A 
ATOM      2  N   UNL     1      -1.275  10.685  19.530  0.00  0.00    +0.000 NA
ATOM      3  N   UNL     1       0.016  10.657  19.958  0.00  0.00    +0.000 N 
ATOM      4  C   UNL     1       0.441  11.927  20.353  0.00  0.00    +0.000 A 
ATOM      5  C   UNL     1      -0.676  12.744  20.311  0.00  0.00    +0.000 A 
ENDROOT
BRANCH   3   6
ATOM      6  C   UNL     1       0.738   9.428  19.972  0.00  0.00    +0.000 A 
ATOM      7  C   UNL     1       1.560   9.074  18.884  0.00  0.00    +0.000 A 
ATOM      8 CL   UNL     1       1.917  10.113  17.541  0.00  0.00    +0.000 Cl
ATOM      9  C   UNL     1       2.241   7.845  18.873  0.00  0.00    +0.000 A 
ATOM     10  C   UNL     1       2.140   6.950  19.943  0.00  0.00    +0.000 A 
ATOM     11  C   UNL     1       1.344   7.312  21.034  0.00  0.00    +0.000 A 
ATOM     12  C   UNL     1       0.626   8.517  21.042  0.00  0.00    +0.000 A 
ATOM     13 CL   UNL     1      -0.491   8.663  22.361  0.00  0.00    +0.000 Cl
BRANCH  10  14
ATOM     14  C   UNL     1       2.837   5.613  19.933  0.00  0.00    +0.000 C 
ATOM     15  F   UNL     1       2.474   4.818  18.890  0.00  0.00    +0.000 F 
ATOM     16  F   UNL     1       4.190   5.734  19.865  0.00  0.00    +0.000 F 
ATOM     17  F   UNL     1       2.580   4.895  21.061  0.00  0.00    +0.000 F 
ENDBRANCH  10  14
ENDBRANCH   3   6
BRANCH   5  18
ATOM     18  C   UNL     1      -0.706  14.162  20.792  0.00  0.00    +0.000 A 
ATOM     19  C   UNL     1      -0.580  15.294  20.016  0.00  0.00    +0.000 A 
ATOM     20  C   UNL     1      -0.728  16.495  20.780  0.00  0.00    +0.000 A 
ATOM     21  C   UNL     1      -0.992  16.236  22.108  0.00  0.00    +0.000 A 
ATOM     22  C   UNL     1      -1.292  17.185  23.214  0.00  0.00    +0.000 C 
ATOM     23  S   UNL     1      -0.948  14.567  22.440  0.00  0.00    +0.000 S 
ENDBRANCH   5  18
BRANCH   4  24
ATOM     24  N   UNL     1       1.739  12.265  20.633  0.00  0.00    +0.000 N 
ATOM     25  H   UNL     1       2.111  13.156  20.317  0.00  0.00    +0.000 HD
ATOM     26  H   UNL     1       2.437  11.529  20.531  0.00  0.00    +0.000 HD
ENDBRANCH   4  24
BRANCH   1  28
ATOM     27  C   UNL     1      -3.735  11.492  17.952  0.00  0.00    +0.000 C 
ATOM     28  S   UNL     1      -3.353  12.389  19.470  0.00  0.00    +0.000 S 
ENDBRANCH   1  28
TORSDOF 5
ENDMDL
MODEL 8
REMARK VINA RESULT:      -5.7      5.289      6.381
REMARK  Name = 
REMARK  7 active torsions:
REMARK  status: ('A' for Active; 'I' for Inactive)
REMARK    1  A    between atoms: C_1  and  S_2
REMARK    2  A    between atoms: S_2  and  C_3
REMARK    3  A    between atoms: N_5  and  C_6
REMARK    4  A    between atoms: C_10  and  C_11
REMARK    5  A    between atoms: C_18  and  N_19
REMARK    6  A    between atoms: C_20  and  C_21
REMARK    7  A    between atoms: C_24  and  C_25
REMARK                            x       y       z     vdW  Elec       q    Type
REMARK                         _______ _______ _______ _____ _____    ______ ____
ROOT
ATOM      1  C   UNL     1      -1.623  12.210  20.091  0.00  0.00    +0.000 A 
ATOM      2  N   UNL     1      -1.271  10.947  19.842  0.00  0.00    +0.000 NA
ATOM      3  N   UNL     1       0.055  10.888  20.134  0.00  0.00    +0.000 N 
ATOM      4  C   UNL     1       0.553  12.148  20.470  0.00  0.00    +0.000 A 
ATOM      5  C   UNL     1      -0.540  12.996  20.535  0.00  0.00    +0.000 A 
ENDROOT
BRANCH   3   6
ATOM      6  C   UNL     1       0.741   9.639  20.086  0.00  0.00    +0.000 A 
ATOM      7  C   UNL     1       1.513   9.294  18.959  0.00  0.00    +0.000 A 
ATOM      8 CL   UNL     1       1.851  10.363  17.634  0.00  0.00    +0.000 Cl
ATOM      9  C   UNL     1       2.158   8.047  18.887  0.00  0.00    +0.000 A 
ATOM     10  C   UNL     1       2.070   7.125  19.935  0.00  0.00    +0.000 A 
ATOM     11  C   UNL     1       1.325   7.476  21.064  0.00  0.00    +0.000 A 
ATOM     12  C   UNL     1       0.643   8.700  21.133  0.00  0.00    +0.000 A 
ATOM     13 CL   UNL     1      -0.421   8.838  22.496  0.00  0.00    +0.000 Cl
BRANCH  10  14
ATOM     14  C   UNL     1       2.727   5.770  19.860  0.00  0.00    +0.000 C 
ATOM     15  F   UNL     1       2.490   4.988  20.947  0.00  0.00    +0.000 F 
ATOM     16  F   UNL     1       2.314   5.053  18.780  0.00  0.00    +0.000 F 
ATOM     17  F   UNL     1       4.081   5.865  19.752  0.00  0.00    +0.000 F 
ENDBRANCH  10  14
ENDBRANCH   3   6
BRANCH   5  18
ATOM     18  C   UNL     1      -0.481  14.417  21.001  0.00  0.00    +0.000 A 
ATOM     19  C   UNL     1      -0.424  15.540  20.205  0.00  0.00    +0.000 A 
ATOM     20  C   UNL     1      -0.454  16.749  20.969  0.00  0.00    +0.000 A 
ATOM     21  C   UNL     1      -0.564  16.507  22.321  0.00  0.00    +0.000 A 
ATOM     22  C   UNL     1      -0.711  17.471  23.445  0.00  0.00    +0.000 C 
ATOM     23  S   UNL     1      -0.519  14.840  22.663  0.00  0.00    +0.000 S 
ENDBRANCH   5  18
BRANCH   4  24
ATOM     24  N   UNL     1       1.882  12.452  20.611  0.00  0.00    +0.000 N 
ATOM     25  H   UNL     1       2.353  12.272  21.493  0.00  0.00    +0.000 HD
ATOM     26  H   UNL     1       2.194  13.337  20.212  0.00  0.00    +0.000 HD
ENDBRANCH   4  24
BRANCH   1  28
ATOM     27  C   UNL     1      -3.778  12.800  21.716  0.00  0.00    +0.000 C 
ATOM     28  S   UNL     1      -3.299  12.709  19.979  0.00  0.00    +0.000 S 
ENDBRANCH   1  28
TORSDOF 5
ENDMDL
MODEL 9
REMARK VINA RESULT:      -5.7      5.422      6.541
REMARK  Name = 
REMARK  7 active torsions:
REMARK  status: ('A' for Active; 'I' for Inactive)
REMARK    1  A    between atoms: C_1  and  S_2
REMARK    2  A    between atoms: S_2  and  C_3
REMARK    3  A    between atoms: N_5  and  C_6
REMARK    4  A    between atoms: C_10  and  C_11
REMARK    5  A    between atoms: C_18  and  N_19
REMARK    6  A    between atoms: C_20  and  C_21
REMARK    7  A    between atoms: C_24  and  C_25
REMARK                            x       y       z     vdW  Elec       q    Type
REMARK                         _______ _______ _______ _____ _____    ______ ____
ROOT
ATOM      1  C   UNL     1      -1.649  12.177  20.093  0.00  0.00    +0.000 A 
ATOM      2  N   UNL     1      -1.297  10.912  19.856  0.00  0.00    +0.000 NA
ATOM      3  N   UNL     1       0.031  10.857  20.141  0.00  0.00    +0.000 N 
ATOM      4  C   UNL     1       0.529  12.122  20.460  0.00  0.00    +0.000 A 
ATOM      5  C   UNL     1      -0.564  12.969  20.523  0.00  0.00    +0.000 A 
ENDROOT
BRANCH   3   6
ATOM      6  C   UNL     1       0.718   9.609  20.102  0.00  0.00    +0.000 A 
ATOM      7  C   UNL     1       1.501   9.262  18.983  0.00  0.00    +0.000 A 
ATOM      8 CL   UNL     1       1.851  10.328  17.659  0.00  0.00    +0.000 Cl
ATOM      9  C   UNL     1       2.147   8.016  18.920  0.00  0.00    +0.000 A 
ATOM     10  C   UNL     1       2.050   7.095  19.969  0.00  0.00    +0.000 A 
ATOM     11  C   UNL     1       1.294   7.449  21.090  0.00  0.00    +0.000 A 
ATOM     12  C   UNL     1       0.610   8.672  21.150  0.00  0.00    +0.000 A 
ATOM     13 CL   UNL     1      -0.466   8.812  22.503  0.00  0.00    +0.000 Cl
BRANCH  10  14
ATOM     14  C   UNL     1       2.708   5.741  19.903  0.00  0.00    +0.000 C 
ATOM     15  F   UNL     1       2.505   4.981  21.013  0.00  0.00    +0.000 F 
ATOM     16  F   UNL     1       2.266   5.000  18.851  0.00  0.00    +0.000 F 
ATOM     17  F   UNL     1       4.058   5.836  19.754  0.00  0.00    +0.000 F 
ENDBRANCH  10  14
ENDBRANCH   3   6
BRANCH   5  18
ATOM     18  C   UNL     1      -0.505  14.395  20.974  0.00  0.00    +0.000 A 
ATOM     19  C   UNL     1      -0.524  14.845  22.276  0.00  0.00    +0.000 A 
ATOM     20  C   UNL     1      -0.377  16.266  22.362  0.00  0.00    +0.000 A 
ATOM     21  C   UNL     1      -0.219  16.848  21.121  0.00  0.00    +0.000 A 
ATOM     22  C   UNL     1       0.044  18.269  20.771  0.00  0.00    +0.000 C 
ATOM     23  S   UNL     1      -0.361  15.701  19.871  0.00  0.00    +0.000 S 
ENDBRANCH   5  18
BRANCH   4  24
ATOM     24  N   UNL     1       1.859  12.429  20.590  0.00  0.00    +0.000 N 
ATOM     25  H   UNL     1       2.547  11.957  20.010  0.00  0.00    +0.000 HD
ATOM     26  H   UNL     1       2.211  12.548  21.539  0.00  0.00    +0.000 HD
ENDBRANCH   4  24
BRANCH   1  28
ATOM     27  C   UNL     1      -3.912  11.708  18.580  0.00  0.00    +0.000 C 
ATOM     28  S   UNL     1      -3.326  12.672  19.987  0.00  0.00    +0.000 S 
ENDBRANCH   1  28
TORSDOF 5
ENDMDL
