MODEL 1
REMARK VINA RESULT:      -6.8      0.000      0.000
REMARK  Name = 
REMARK  14 active torsions:
REMARK  status: ('A' for Active; 'I' for Inactive)
REMARK    1  A    between atoms: C_1  and  C_2
REMARK    2  A    between atoms: C_2  and  O_3
REMARK    3  A    between atoms: O_3  and  C_4
REMARK    4  A    between atoms: C_4  and  C_6
REMARK    5  A    between atoms: C_9  and  N_10
REMARK    6  A    between atoms: N_10  and  C_11
REMARK    7  A    between atoms: C_11  and  N_13
REMARK    8  A    between atoms: N_13  and  C_14
REMARK    9  A    between atoms: N_13  and  C_24
REMARK   10  A    between atoms: C_14  and  C_15
REMARK   11  A    between atoms: C_15  and  C_16
REMARK   12  A    between atoms: C_16  and  N_17
REMARK   13  A    between atoms: C_21  and  C_22
REMARK   14  A    between atoms: C_24  and  C_25
REMARK                            x       y       z     vdW  Elec       q    Type
REMARK                         _______ _______ _______ _____ _____    ______ ____
ROOT
ATOM      1  N   UNL     1       6.099   5.213  17.890  0.00  0.00    +0.000 N 
ENDROOT
BRANCH   1   2
ATOM      2  C   UNL     1       5.629   6.491  17.518  0.00  0.00    +0.000 C 
ATOM      3  S   UNL     1       6.598   7.860  17.406  0.00  0.00    +0.000 S 
BRANCH   2   4
ATOM      4  N   UNL     1       4.246   6.519  17.360  0.00  0.00    +0.000 N 
ATOM      5  H   UNL     1       3.887   5.752  16.805  0.00  0.00    +0.000 HD
BRANCH   4   9
ATOM      6  C   UNL     1       1.420   8.949  19.345  0.00  0.00    +0.000 A 
ATOM      7  C   UNL     1       1.932   7.818  19.985  0.00  0.00    +0.000 A 
ATOM      8  C   UNL     1       2.843   6.989  19.328  0.00  0.00    +0.000 A 
ATOM      9  C   UNL     1       3.272   7.293  18.034  0.00  0.00    +0.000 A 
ATOM     10  C   UNL     1       2.801   8.458  17.418  0.00  0.00    +0.000 A 
ATOM     11  C   UNL     1       1.860   9.279  18.058  0.00  0.00    +0.000 A 
BRANCH   6  12
ATOM     12  C   UNL     1       0.360   9.713  20.051  0.00  0.00    +0.000 C 
ATOM     13  O   UNL     1      -0.194   9.325  21.069  0.00  0.00    +0.000 OA
BRANCH  12  14
ATOM     14  O   UNL     1      -0.022  10.752  19.268  0.00  0.00    +0.000 OA
BRANCH  14  16
ATOM     15  C   UNL     1      -2.012  12.071  19.463  0.00  0.00    +0.000 C 
ATOM     16  C   UNL     1      -1.418  10.771  18.940  0.00  0.00    +0.000 C 
ENDBRANCH  14  16
ENDBRANCH  12  14
ENDBRANCH   6  12
ENDBRANCH   4   9
ENDBRANCH   2   4
ENDBRANCH   1   2
BRANCH   1  17
ATOM     17  C   UNL     1       5.716   4.524  19.146  0.00  0.00    +0.000 C 
BRANCH  17  18
ATOM     18  C   UNL     1       4.954   3.195  18.989  0.00  0.00    +0.000 C 
BRANCH  18  19
ATOM     19  C   UNL     1       4.455   2.528  20.288  0.00  0.00    +0.000 C 
BRANCH  19  20
ATOM     20  N   UNL     1       3.071   2.035  20.253  0.00  0.00    +0.000 NA
ATOM     21  C   UNL     1       2.251   2.417  21.407  0.00  0.00    +0.000 C 
ATOM     22  C   UNL     1       1.812   3.884  21.404  0.00  0.00    +0.000 C 
ATOM     23  C   UNL     1       1.037   4.216  20.138  0.00  0.00    +0.000 C 
ATOM     24  C   UNL     1       1.804   3.793  18.880  0.00  0.00    +0.000 C 
ATOM     25  C   UNL     1       0.875   3.895  17.664  0.00  0.00    +0.000 C 
ATOM     26  C   UNL     1       2.372   2.360  18.998  0.00  0.00    +0.000 C 
ENDBRANCH  19  20
ENDBRANCH  18  19
ENDBRANCH  17  18
ENDBRANCH   1  17
BRANCH   1  27
ATOM     27  C   UNL     1       7.193   4.588  17.125  0.00  0.00    +0.000 C 
BRANCH  27  28
ATOM     28  C   UNL     1       6.928   4.467  15.655  0.00  0.00    +0.000 A 
ATOM     29  C   UNL     1       6.121   3.685  14.847  0.00  0.00    +0.000 A 
ATOM     30  C   UNL     1       6.423   4.047  13.508  0.00  0.00    +0.000 A 
ATOM     31  C   UNL     1       7.392   5.019  13.582  0.00  0.00    +0.000 A 
ATOM     32  O   UNL     1       7.700   5.281  14.874  0.00  0.00    +0.000 OA
ENDBRANCH  27  28
ENDBRANCH   1  27
TORSDOF 12
ENDMDL
MODEL 2
REMARK VINA RESULT:      -6.8      2.718      7.928
REMARK  Name = 
REMARK  14 active torsions:
REMARK  status: ('A' for Active; 'I' for Inactive)
REMARK    1  A    between atoms: C_1  and  C_2
REMARK    2  A    between atoms: C_2  and  O_3
REMARK    3  A    between atoms: O_3  and  C_4
REMARK    4  A    between atoms: C_4  and  C_6
REMARK    5  A    between atoms: C_9  and  N_10
REMARK    6  A    between atoms: N_10  and  C_11
REMARK    7  A    between atoms: C_11  and  N_13
REMARK    8  A    between atoms: N_13  and  C_14
REMARK    9  A    between atoms: N_13  and  C_24
REMARK   10  A    between atoms: C_14  and  C_15
REMARK   11  A    between atoms: C_15  and  C_16
REMARK   12  A    between atoms: C_16  and  N_17
REMARK   13  A    between atoms: C_21  and  C_22
REMARK   14  A    between atoms: C_24  and  C_25
REMARK                            x       y       z     vdW  Elec       q    Type
REMARK                         _______ _______ _______ _____ _____    ______ ____
ROOT
ATOM      1  N   UNL     1       1.875   6.483  20.343  0.00  0.00    +0.000 N 
ENDROOT
BRANCH   1   2
ATOM      2  C   UNL     1       2.692   6.850  19.253  0.00  0.00    +0.000 C 
ATOM      3  S   UNL     1       2.323   8.079  18.166  0.00  0.00    +0.000 S 
BRANCH   2   4
ATOM      4  N   UNL     1       3.790   6.006  19.109  0.00  0.00    +0.000 N 
ATOM      5  H   UNL     1       3.969   5.432  19.924  0.00  0.00    +0.000 HD
BRANCH   4   9
ATOM      6  C   UNL     1       5.968   5.128  15.599  0.00  0.00    +0.000 A 
ATOM      7  C   UNL     1       4.893   4.317  15.969  0.00  0.00    +0.000 A 
ATOM      8  C   UNL     1       4.185   4.577  17.143  0.00  0.00    +0.000 A 
ATOM      9  C   UNL     1       4.526   5.666  17.949  0.00  0.00    +0.000 A 
ATOM     10  C   UNL     1       5.567   6.511  17.546  0.00  0.00    +0.000 A 
ATOM     11  C   UNL     1       6.305   6.236  16.385  0.00  0.00    +0.000 A 
BRANCH   6  12
ATOM     12  C   UNL     1       6.757   4.718  14.410  0.00  0.00    +0.000 C 
ATOM     13  O   UNL     1       7.781   5.277  14.047  0.00  0.00    +0.000 OA
BRANCH  12  14
ATOM     14  O   UNL     1       6.040   3.807  13.706  0.00  0.00    +0.000 OA
BRANCH  14  16
ATOM     15  C   UNL     1       6.054   2.374  11.787  0.00  0.00    +0.000 C 
ATOM     16  C   UNL     1       6.322   3.781  12.300  0.00  0.00    +0.000 C 
ENDBRANCH  14  16
ENDBRANCH  12  14
ENDBRANCH   6  12
ENDBRANCH   4   9
ENDBRANCH   2   4
ENDBRANCH   1   2
BRANCH   1  17
ATOM     17  C   UNL     1       0.918   7.402  21.007  0.00  0.00    +0.000 C 
BRANCH  17  18
ATOM     18  C   UNL     1       1.535   8.560  21.815  0.00  0.00    +0.000 C 
BRANCH  18  19
ATOM     19  C   UNL     1       1.078   9.984  21.437  0.00  0.00    +0.000 C 
BRANCH  19  20
ATOM     20  N   UNL     1      -0.376  10.183  21.364  0.00  0.00    +0.000 NA
ATOM     21  C   UNL     1      -0.927  11.084  22.380  0.00  0.00    +0.000 C 
ATOM     22  C   UNL     1      -0.633  12.566  22.128  0.00  0.00    +0.000 C 
ATOM     23  C   UNL     1      -1.161  13.000  20.769  0.00  0.00    +0.000 C 
ATOM     24  C   UNL     1      -0.677  12.069  19.652  0.00  0.00    +0.000 C 
ATOM     25  C   UNL     1      -1.448  12.382  18.364  0.00  0.00    +0.000 C 
ATOM     26  C   UNL     1      -0.841  10.578  20.023  0.00  0.00    +0.000 C 
ENDBRANCH  19  20
ENDBRANCH  18  19
ENDBRANCH  17  18
ENDBRANCH   1  17
BRANCH   1  27
ATOM     27  C   UNL     1       2.105   5.197  21.027  0.00  0.00    +0.000 C 
BRANCH  27  28
ATOM     28  C   UNL     1       1.873   3.991  20.167  0.00  0.00    +0.000 A 
ATOM     29  C   UNL     1       0.799   3.444  19.485  0.00  0.00    +0.000 A 
ATOM     30  C   UNL     1       1.262   2.224  18.924  0.00  0.00    +0.000 A 
ATOM     31  C   UNL     1       2.579   2.103  19.298  0.00  0.00    +0.000 A 
ATOM     32  O   UNL     1       2.956   3.167  20.047  0.00  0.00    +0.000 OA
ENDBRANCH  27  28
ENDBRANCH   1  27
TORSDOF 12
ENDMDL
MODEL 3
REMARK VINA RESULT:      -6.6      2.282      5.403
REMARK  Name = 
REMARK  14 active torsions:
REMARK  status: ('A' for Active; 'I' for Inactive)
REMARK    1  A    between atoms: C_1  and  C_2
REMARK    2  A    between atoms: C_2  and  O_3
REMARK    3  A    between atoms: O_3  and  C_4
REMARK    4  A    between atoms: C_4  and  C_6
REMARK    5  A    between atoms: C_9  and  N_10
REMARK    6  A    between atoms: N_10  and  C_11
REMARK    7  A    between atoms: C_11  and  N_13
REMARK    8  A    between atoms: N_13  and  C_14
REMARK    9  A    between atoms: N_13  and  C_24
REMARK   10  A    between atoms: C_14  and  C_15
REMARK   11  A    between atoms: C_15  and  C_16
REMARK   12  A    between atoms: C_16  and  N_17
REMARK   13  A    between atoms: C_21  and  C_22
REMARK   14  A    between atoms: C_24  and  C_25
REMARK                            x       y       z     vdW  Elec       q    Type
REMARK                         _______ _______ _______ _____ _____    ______ ____
ROOT
ATOM      1  N   UNL     1       2.811   5.311  18.064  0.00  0.00    +0.000 N 
ENDROOT
BRANCH   1   2
ATOM      2  C   UNL     1       3.017   6.705  18.153  0.00  0.00    +0.000 C 
ATOM      3  S   UNL     1       3.951   7.593  17.073  0.00  0.00    +0.000 S 
BRANCH   2   4
ATOM      4  N   UNL     1       2.449   7.249  19.301  0.00  0.00    +0.000 N 
ATOM      5  H   UNL     1       2.866   6.909  20.159  0.00  0.00    +0.000 HD
BRANCH   4   9
ATOM      6  C   UNL     1      -0.269  10.443  19.794  0.00  0.00    +0.000 A 
ATOM      7  C   UNL     1       0.232  10.149  18.524  0.00  0.00    +0.000 A 
ATOM      8  C   UNL     1       1.155   9.117  18.352  0.00  0.00    +0.000 A 
ATOM      9  C   UNL     1       1.570   8.348  19.443  0.00  0.00    +0.000 A 
ATOM     10  C   UNL     1       1.022   8.608  20.705  0.00  0.00    +0.000 A 
ATOM     11  C   UNL     1       0.119   9.667  20.891  0.00  0.00    +0.000 A 
BRANCH   6  12
ATOM     12  C   UNL     1      -1.146  11.635  19.924  0.00  0.00    +0.000 C 
ATOM     13  O   UNL     1      -1.917  12.010  19.054  0.00  0.00    +0.000 OA
BRANCH  12  14
ATOM     14  O   UNL     1      -0.780  12.325  21.034  0.00  0.00    +0.000 OA
BRANCH  14  16
ATOM     15  C   UNL     1      -1.899  11.851  23.097  0.00  0.00    +0.000 C 
ATOM     16  C   UNL     1      -1.872  12.742  21.864  0.00  0.00    +0.000 C 
ENDBRANCH  14  16
ENDBRANCH  12  14
ENDBRANCH   6  12
ENDBRANCH   4   9
ENDBRANCH   2   4
ENDBRANCH   1   2
BRANCH   1  17
ATOM     17  C   UNL     1       3.748   4.378  17.391  0.00  0.00    +0.000 C 
BRANCH  17  18
ATOM     18  C   UNL     1       4.853   3.767  18.274  0.00  0.00    +0.000 C 
BRANCH  18  19
ATOM     19  C   UNL     1       5.740   4.760  19.053  0.00  0.00    +0.000 C 
BRANCH  19  20
ATOM     20  N   UNL     1       7.140   4.835  18.615  0.00  0.00    +0.000 NA
ATOM     21  C   UNL     1       7.363   4.506  17.204  0.00  0.00    +0.000 C 
ATOM     22  C   UNL     1       6.918   5.601  16.229  0.00  0.00    +0.000 C 
ATOM     23  C   UNL     1       7.623   6.915  16.531  0.00  0.00    +0.000 C 
ATOM     24  C   UNL     1       7.488   7.303  18.007  0.00  0.00    +0.000 C 
ATOM     25  C   UNL     1       8.433   8.471  18.312  0.00  0.00    +0.000 C 
ATOM     26  C   UNL     1       7.786   6.116  18.952  0.00  0.00    +0.000 C 
ENDBRANCH  19  20
ENDBRANCH  18  19
ENDBRANCH  17  18
ENDBRANCH   1  17
BRANCH   1  27
ATOM     27  C   UNL     1       1.510   4.739  18.457  0.00  0.00    +0.000 C 
BRANCH  27  28
ATOM     28  C   UNL     1       1.549   3.925  19.715  0.00  0.00    +0.000 A 
ATOM     29  C   UNL     1       0.923   2.783  20.183  0.00  0.00    +0.000 A 
ATOM     30  C   UNL     1       1.374   2.598  21.517  0.00  0.00    +0.000 A 
ATOM     31  C   UNL     1       2.239   3.634  21.778  0.00  0.00    +0.000 A 
ATOM     32  O   UNL     1       2.353   4.438  20.694  0.00  0.00    +0.000 OA
ENDBRANCH  27  28
ENDBRANCH   1  27
TORSDOF 12
ENDMDL
MODEL 4
REMARK VINA RESULT:      -6.5      2.986      6.111
REMARK  Name = 
REMARK  14 active torsions:
REMARK  status: ('A' for Active; 'I' for Inactive)
REMARK    1  A    between atoms: C_1  and  C_2
REMARK    2  A    between atoms: C_2  and  O_3
REMARK    3  A    between atoms: O_3  and  C_4
REMARK    4  A    between atoms: C_4  and  C_6
REMARK    5  A    between atoms: C_9  and  N_10
REMARK    6  A    between atoms: N_10  and  C_11
REMARK    7  A    between atoms: C_11  and  N_13
REMARK    8  A    between atoms: N_13  and  C_14
REMARK    9  A    between atoms: N_13  and  C_24
REMARK   10  A    between atoms: C_14  and  C_15
REMARK   11  A    between atoms: C_15  and  C_16
REMARK   12  A    between atoms: C_16  and  N_17
REMARK   13  A    between atoms: C_21  and  C_22
REMARK   14  A    between atoms: C_24  and  C_25
REMARK                            x       y       z     vdW  Elec       q    Type
REMARK                         _______ _______ _______ _____ _____    ______ ____
ROOT
ATOM      1  N   UNL     1       2.080   8.070  19.207  0.00  0.00    +0.000 N 
ENDROOT
BRANCH   1   2
ATOM      2  C   UNL     1       1.087   8.942  19.704  0.00  0.00    +0.000 C 
ATOM      3  S   UNL     1       0.458   8.870  21.261  0.00  0.00    +0.000 S 
BRANCH   2   4
ATOM      4  N   UNL     1       0.603   9.804  18.723  0.00  0.00    +0.000 N 
ATOM      5  H   UNL     1       1.295  10.057  18.029  0.00  0.00    +0.000 HD
BRANCH   4   9
ATOM      6  C   UNL     1      -3.331  10.936  17.685  0.00  0.00    +0.000 A 
ATOM      7  C   UNL     1      -2.686  11.567  18.751  0.00  0.00    +0.000 A 
ATOM      8  C   UNL     1      -1.398  11.181  19.125  0.00  0.00    +0.000 A 
ATOM      9  C   UNL     1      -0.728  10.177  18.421  0.00  0.00    +0.000 A 
ATOM     10  C   UNL     1      -1.354   9.587  17.317  0.00  0.00    +0.000 A 
ATOM     11  C   UNL     1      -2.662   9.946  16.956  0.00  0.00    +0.000 A 
BRANCH   6  12
ATOM     12  C   UNL     1      -4.745  11.307  17.425  0.00  0.00    +0.000 C 
ATOM     13  O   UNL     1      -5.084  12.291  16.784  0.00  0.00    +0.000 OA
BRANCH  12  14
ATOM     14  O   UNL     1      -5.547  10.523  18.188  0.00  0.00    +0.000 OA
BRANCH  14  16
ATOM     15  C   UNL     1      -6.382  11.691  20.105  0.00  0.00    +0.000 C 
ATOM     16  C   UNL     1      -6.709  11.184  18.708  0.00  0.00    +0.000 C 
ENDBRANCH  14  16
ENDBRANCH  12  14
ENDBRANCH   6  12
ENDBRANCH   4   9
ENDBRANCH   2   4
ENDBRANCH   1   2
BRANCH   1  17
ATOM     17  C   UNL     1       2.512   8.032  17.788  0.00  0.00    +0.000 C 
BRANCH  17  18
ATOM     18  C   UNL     1       4.015   7.804  17.540  0.00  0.00    +0.000 C 
BRANCH  18  19
ATOM     19  C   UNL     1       4.394   6.603  16.649  0.00  0.00    +0.000 C 
BRANCH  19  20
ATOM     20  N   UNL     1       4.728   5.365  17.368  0.00  0.00    +0.000 NA
ATOM     21  C   UNL     1       5.202   4.268  16.519  0.00  0.00    +0.000 C 
ATOM     22  C   UNL     1       6.634   4.450  16.004  0.00  0.00    +0.000 C 
ATOM     23  C   UNL     1       7.609   4.614  17.161  0.00  0.00    +0.000 C 
ATOM     24  C   UNL     1       7.152   5.707  18.133  0.00  0.00    +0.000 C 
ATOM     25  C   UNL     1       8.009   5.644  19.403  0.00  0.00    +0.000 C 
ATOM     26  C   UNL     1       5.655   5.580  18.493  0.00  0.00    +0.000 C 
ENDBRANCH  19  20
ENDBRANCH  18  19
ENDBRANCH  17  18
ENDBRANCH   1  17
BRANCH   1  27
ATOM     27  C   UNL     1       2.586   6.979  20.060  0.00  0.00    +0.000 C 
BRANCH  27  28
ATOM     28  C   UNL     1       2.003   5.634  19.752  0.00  0.00    +0.000 A 
ATOM     29  C   UNL     1       1.785   4.878  18.613  0.00  0.00    +0.000 A 
ATOM     30  C   UNL     1       1.109   3.702  19.036  0.00  0.00    +0.000 A 
ATOM     31  C   UNL     1       0.957   3.815  20.397  0.00  0.00    +0.000 A 
ATOM     32  O   UNL     1       1.496   4.977  20.838  0.00  0.00    +0.000 OA
ENDBRANCH  27  28
ENDBRANCH   1  27
TORSDOF 12
ENDMDL
MODEL 5
REMARK VINA RESULT:      -6.5      1.226      1.970
REMARK  Name = 
REMARK  14 active torsions:
REMARK  status: ('A' for Active; 'I' for Inactive)
REMARK    1  A    between atoms: C_1  and  C_2
REMARK    2  A    between atoms: C_2  and  O_3
REMARK    3  A    between atoms: O_3  and  C_4
REMARK    4  A    between atoms: C_4  and  C_6
REMARK    5  A    between atoms: C_9  and  N_10
REMARK    6  A    between atoms: N_10  and  C_11
REMARK    7  A    between atoms: C_11  and  N_13
REMARK    8  A    between atoms: N_13  and  C_14
REMARK    9  A    between atoms: N_13  and  C_24
REMARK   10  A    between atoms: C_14  and  C_15
REMARK   11  A    between atoms: C_15  and  C_16
REMARK   12  A    between atoms: C_16  and  N_17
REMARK   13  A    between atoms: C_21  and  C_22
REMARK   14  A    between atoms: C_24  and  C_25
REMARK                            x       y       z     vdW  Elec       q    Type
REMARK                         _______ _______ _______ _____ _____    ______ ____
ROOT
ATOM      1  N   UNL     1       5.638   5.387  16.247  0.00  0.00    +0.000 N 
ENDROOT
BRANCH   1   2
ATOM      2  C   UNL     1       5.581   6.321  17.303  0.00  0.00    +0.000 C 
ATOM      3  S   UNL     1       6.776   7.459  17.625  0.00  0.00    +0.000 S 
BRANCH   2   4
ATOM      4  N   UNL     1       4.471   6.125  18.121  0.00  0.00    +0.000 N 
ATOM      5  H   UNL     1       4.527   5.286  18.684  0.00  0.00    +0.000 HD
BRANCH   4   9
ATOM      6  C   UNL     1       1.426   8.891  19.076  0.00  0.00    +0.000 A 
ATOM      7  C   UNL     1       1.765   7.890  19.989  0.00  0.00    +0.000 A 
ATOM      8  C   UNL     1       2.748   6.951  19.674  0.00  0.00    +0.000 A 
ATOM      9  C   UNL     1       3.421   7.014  18.451  0.00  0.00    +0.000 A 
ATOM     10  C   UNL     1       3.119   8.052  17.562  0.00  0.00    +0.000 A 
ATOM     11  C   UNL     1       2.109   8.981  17.858  0.00  0.00    +0.000 A 
BRANCH   6  12
ATOM     12  C   UNL     1       0.284   9.775  19.423  0.00  0.00    +0.000 C 
ATOM     13  O   UNL     1      -0.380   9.660  20.442  0.00  0.00    +0.000 OA
BRANCH  12  14
ATOM     14  O   UNL     1      -0.014  10.543  18.345  0.00  0.00    +0.000 OA
BRANCH  14  16
ATOM     15  C   UNL     1      -1.944   9.932  17.066  0.00  0.00    +0.000 C 
ATOM     16  C   UNL     1      -1.411  10.822  18.179  0.00  0.00    +0.000 C 
ENDBRANCH  14  16
ENDBRANCH  12  14
ENDBRANCH   6  12
ENDBRANCH   4   9
ENDBRANCH   2   4
ENDBRANCH   1   2
BRANCH   1  17
ATOM     17  C   UNL     1       4.497   4.531  15.836  0.00  0.00    +0.000 C 
BRANCH  17  18
ATOM     18  C   UNL     1       4.197   3.318  16.737  0.00  0.00    +0.000 C 
BRANCH  18  19
ATOM     19  C   UNL     1       2.751   3.188  17.258  0.00  0.00    +0.000 C 
BRANCH  19  20
ATOM     20  N   UNL     1       2.491   2.021  18.114  0.00  0.00    +0.000 NA
ATOM     21  C   UNL     1       3.690   1.353  18.626  0.00  0.00    +0.000 C 
ATOM     22  C   UNL     1       4.401   2.116  19.748  0.00  0.00    +0.000 C 
ATOM     23  C   UNL     1       3.458   2.366  20.916  0.00  0.00    +0.000 C 
ATOM     24  C   UNL     1       2.147   3.012  20.455  0.00  0.00    +0.000 C 
ATOM     25  C   UNL     1       1.139   2.989  21.610  0.00  0.00    +0.000 C 
ATOM     26  C   UNL     1       1.554   2.307  19.215  0.00  0.00    +0.000 C 
ENDBRANCH  19  20
ENDBRANCH  18  19
ENDBRANCH  17  18
ENDBRANCH   1  17
BRANCH   1  27
ATOM     27  C   UNL     1       6.938   5.058  15.634  0.00  0.00    +0.000 C 
BRANCH  27  28
ATOM     28  C   UNL     1       6.857   4.664  14.190  0.00  0.00    +0.000 A 
ATOM     29  C   UNL     1       6.216   3.680  13.458  0.00  0.00    +0.000 A 
ATOM     30  C   UNL     1       6.643   3.838  12.113  0.00  0.00    +0.000 A 
ATOM     31  C   UNL     1       7.514   4.901  12.109  0.00  0.00    +0.000 A 
ATOM     32  O   UNL     1       7.647   5.408  13.358  0.00  0.00    +0.000 OA
ENDBRANCH  27  28
ENDBRANCH   1  27
TORSDOF 12
ENDMDL
MODEL 6
REMARK VINA RESULT:      -6.5      2.682      8.047
REMARK  Name = 
REMARK  14 active torsions:
REMARK  status: ('A' for Active; 'I' for Inactive)
REMARK    1  A    between atoms: C_1  and  C_2
REMARK    2  A    between atoms: C_2  and  O_3
REMARK    3  A    between atoms: O_3  and  C_4
REMARK    4  A    between atoms: C_4  and  C_6
REMARK    5  A    between atoms: C_9  and  N_10
REMARK    6  A    between atoms: N_10  and  C_11
REMARK    7  A    between atoms: C_11  and  N_13
REMARK    8  A    between atoms: N_13  and  C_14
REMARK    9  A    between atoms: N_13  and  C_24
REMARK   10  A    between atoms: C_14  and  C_15
REMARK   11  A    between atoms: C_15  and  C_16
REMARK   12  A    between atoms: C_16  and  N_17
REMARK   13  A    between atoms: C_21  and  C_22
REMARK   14  A    between atoms: C_24  and  C_25
REMARK                            x       y       z     vdW  Elec       q    Type
REMARK                         _______ _______ _______ _____ _____    ______ ____
ROOT
ATOM      1  N   UNL     1       1.857   6.663  20.182  0.00  0.00    +0.000 N 
ENDROOT
BRANCH   1   2
ATOM      2  C   UNL     1       2.705   7.045  19.120  0.00  0.00    +0.000 C 
ATOM      3  S   UNL     1       2.360   8.277  18.029  0.00  0.00    +0.000 S 
BRANCH   2   4
ATOM      4  N   UNL     1       3.816   6.212  19.007  0.00  0.00    +0.000 N 
ATOM      5  H   UNL     1       3.991   5.657  19.835  0.00  0.00    +0.000 HD
BRANCH   4   9
ATOM      6  C   UNL     1       6.071   5.020  15.641  0.00  0.00    +0.000 A 
ATOM      7  C   UNL     1       6.486   6.115  16.401  0.00  0.00    +0.000 A 
ATOM      8  C   UNL     1       5.733   6.539  17.497  0.00  0.00    +0.000 A 
ATOM      9  C   UNL     1       4.569   5.858  17.863  0.00  0.00    +0.000 A 
ATOM     10  C   UNL     1       4.187   4.726  17.134  0.00  0.00    +0.000 A 
ATOM     11  C   UNL     1       4.921   4.313  16.011  0.00  0.00    +0.000 A 
BRANCH   6  12
ATOM     12  C   UNL     1       6.847   4.704  14.415  0.00  0.00    +0.000 C 
ATOM     13  O   UNL     1       7.788   5.372  14.015  0.00  0.00    +0.000 OA
BRANCH  12  14
ATOM     14  O   UNL     1       6.204   3.723  13.734  0.00  0.00    +0.000 OA
BRANCH  14  16
ATOM     15  C   UNL     1       5.775   2.479  11.733  0.00  0.00    +0.000 C 
ATOM     16  C   UNL     1       6.517   3.662  12.336  0.00  0.00    +0.000 C 
ENDBRANCH  14  16
ENDBRANCH  12  14
ENDBRANCH   6  12
ENDBRANCH   4   9
ENDBRANCH   2   4
ENDBRANCH   1   2
BRANCH   1  17
ATOM     17  C   UNL     1       0.830   7.551  20.780  0.00  0.00    +0.000 C 
BRANCH  17  18
ATOM     18  C   UNL     1       1.345   8.632  21.749  0.00  0.00    +0.000 C 
BRANCH  18  19
ATOM     19  C   UNL     1       0.806  10.062  21.537  0.00  0.00    +0.000 C 
BRANCH  19  20
ATOM     20  N   UNL     1       0.356  10.370  20.172  0.00  0.00    +0.000 NA
ATOM     21  C   UNL     1      -1.048  10.778  20.063  0.00  0.00    +0.000 C 
ATOM     22  C   UNL     1      -1.327  12.200  20.561  0.00  0.00    +0.000 C 
ATOM     23  C   UNL     1      -0.476  13.214  19.811  0.00  0.00    +0.000 C 
ATOM     24  C   UNL     1       1.007  12.828  19.827  0.00  0.00    +0.000 C 
ATOM     25  C   UNL     1       1.771  13.718  18.840  0.00  0.00    +0.000 C 
ATOM     26  C   UNL     1       1.226  11.338  19.479  0.00  0.00    +0.000 C 
ENDBRANCH  19  20
ENDBRANCH  18  19
ENDBRANCH  17  18
ENDBRANCH   1  17
BRANCH   1  27
ATOM     27  C   UNL     1       2.116   5.405  20.905  0.00  0.00    +0.000 C 
BRANCH  27  28
ATOM     28  C   UNL     1       1.831   4.167  20.110  0.00  0.00    +0.000 A 
ATOM     29  C   UNL     1       1.112   3.857  18.968  0.00  0.00    +0.000 A 
ATOM     30  C   UNL     1       1.202   2.449  18.808  0.00  0.00    +0.000 A 
ATOM     31  C   UNL     1       1.962   1.991  19.857  0.00  0.00    +0.000 A 
ATOM     32  O   UNL     1       2.349   3.021  20.646  0.00  0.00    +0.000 OA
ENDBRANCH  27  28
ENDBRANCH   1  27
TORSDOF 12
ENDMDL
MODEL 7
REMARK VINA RESULT:      -6.4      2.986      5.982
REMARK  Name = 
REMARK  14 active torsions:
REMARK  status: ('A' for Active; 'I' for Inactive)
REMARK    1  A    between atoms: C_1  and  C_2
REMARK    2  A    between atoms: C_2  and  O_3
REMARK    3  A    between atoms: O_3  and  C_4
REMARK    4  A    between atoms: C_4  and  C_6
REMARK    5  A    between atoms: C_9  and  N_10
REMARK    6  A    between atoms: N_10  and  C_11
REMARK    7  A    between atoms: C_11  and  N_13
REMARK    8  A    between atoms: N_13  and  C_14
REMARK    9  A    between atoms: N_13  and  C_24
REMARK   10  A    between atoms: C_14  and  C_15
REMARK   11  A    between atoms: C_15  and  C_16
REMARK   12  A    between atoms: C_16  and  N_17
REMARK   13  A    between atoms: C_21  and  C_22
REMARK   14  A    between atoms: C_24  and  C_25
REMARK                            x       y       z     vdW  Elec       q    Type
REMARK                         _______ _______ _______ _____ _____    ______ ____
ROOT
ATOM      1  N   UNL     1       1.732   7.620  20.025  0.00  0.00    +0.000 N 
ENDROOT
BRANCH   1   2
ATOM      2  C   UNL     1       1.267   8.872  20.482  0.00  0.00    +0.000 C 
ATOM      3  S   UNL     1       0.908   9.219  22.087  0.00  0.00    +0.000 S 
BRANCH   2   4
ATOM      4  N   UNL     1       1.031   9.761  19.436  0.00  0.00    +0.000 N 
ATOM      5  H   UNL     1       1.867  10.016  18.926  0.00  0.00    +0.000 HD
BRANCH   4   9
ATOM      6  C   UNL     1      -2.682  10.939  17.806  0.00  0.00    +0.000 A 
ATOM      7  C   UNL     1      -1.930   9.947  17.172  0.00  0.00    +0.000 A 
ATOM      8  C   UNL     1      -0.687   9.571  17.683  0.00  0.00    +0.000 A 
ATOM      9  C   UNL     1      -0.191  10.163  18.847  0.00  0.00    +0.000 A 
ATOM     10  C   UNL     1      -0.973  11.114  19.512  0.00  0.00    +0.000 A 
ATOM     11  C   UNL     1      -2.209  11.522  18.986  0.00  0.00    +0.000 A 
BRANCH   6  12
ATOM     12  C   UNL     1      -3.933  11.380  17.138  0.00  0.00    +0.000 C 
ATOM     13  O   UNL     1      -4.068  11.449  15.925  0.00  0.00    +0.000 OA
BRANCH  12  14
ATOM     14  O   UNL     1      -4.770  11.889  18.076  0.00  0.00    +0.000 OA
BRANCH  14  16
ATOM     15  C   UNL     1      -7.109  12.325  17.800  0.00  0.00    +0.000 C 
ATOM     16  C   UNL     1      -6.063  11.268  18.122  0.00  0.00    +0.000 C 
ENDBRANCH  14  16
ENDBRANCH  12  14
ENDBRANCH   6  12
ENDBRANCH   4   9
ENDBRANCH   2   4
ENDBRANCH   1   2
BRANCH   1  17
ATOM     17  C   UNL     1       2.016   7.313  18.602  0.00  0.00    +0.000 C 
BRANCH  17  18
ATOM     18  C   UNL     1       3.468   7.530  18.134  0.00  0.00    +0.000 C 
BRANCH  18  19
ATOM     19  C   UNL     1       4.143   6.348  17.409  0.00  0.00    +0.000 C 
BRANCH  19  20
ATOM     20  N   UNL     1       5.286   6.701  16.554  0.00  0.00    +0.000 NA
ATOM     21  C   UNL     1       6.584   6.715  17.235  0.00  0.00    +0.000 C 
ATOM     22  C   UNL     1       7.143   5.322  17.543  0.00  0.00    +0.000 C 
ATOM     23  C   UNL     1       7.280   4.499  16.271  0.00  0.00    +0.000 C 
ATOM     24  C   UNL     1       5.976   4.482  15.467  0.00  0.00    +0.000 C 
ATOM     25  C   UNL     1       6.244   3.880  14.082  0.00  0.00    +0.000 C 
ATOM     26  C   UNL     1       5.360   5.892  15.324  0.00  0.00    +0.000 C 
ENDBRANCH  19  20
ENDBRANCH  18  19
ENDBRANCH  17  18
ENDBRANCH   1  17
BRANCH   1  27
ATOM     27  C   UNL     1       1.746   6.467  20.944  0.00  0.00    +0.000 C 
BRANCH  27  28
ATOM     28  C   UNL     1       1.931   5.142  20.268  0.00  0.00    +0.000 A 
ATOM     29  C   UNL     1       1.109   4.211  19.658  0.00  0.00    +0.000 A 
ATOM     30  C   UNL     1       1.942   3.121  19.291  0.00  0.00    +0.000 A 
ATOM     31  C   UNL     1       3.211   3.453  19.700  0.00  0.00    +0.000 A 
ATOM     32  O   UNL     1       3.214   4.673  20.289  0.00  0.00    +0.000 OA
ENDBRANCH  27  28
ENDBRANCH   1  27
TORSDOF 12
ENDMDL
MODEL 8
REMARK VINA RESULT:      -6.3      3.562      7.437
REMARK  Name = 
REMARK  14 active torsions:
REMARK  status: ('A' for Active; 'I' for Inactive)
REMARK    1  A    between atoms: C_1  and  C_2
REMARK    2  A    between atoms: C_2  and  O_3
REMARK    3  A    between atoms: O_3  and  C_4
REMARK    4  A    between atoms: C_4  and  C_6
REMARK    5  A    between atoms: C_9  and  N_10
REMARK    6  A    between atoms: N_10  and  C_11
REMARK    7  A    between atoms: C_11  and  N_13
REMARK    8  A    between atoms: N_13  and  C_14
REMARK    9  A    between atoms: N_13  and  C_24
REMARK   10  A    between atoms: C_14  and  C_15
REMARK   11  A    between atoms: C_15  and  C_16
REMARK   12  A    between atoms: C_16  and  N_17
REMARK   13  A    between atoms: C_21  and  C_22
REMARK   14  A    between atoms: C_24  and  C_25
REMARK                            x       y       z     vdW  Elec       q    Type
REMARK                         _______ _______ _______ _____ _____    ______ ____
ROOT
ATOM      1  N   UNL     1       1.093   9.822  20.228  0.00  0.00    +0.000 N 
ENDROOT
BRANCH   1   2
ATOM      2  C   UNL     1       0.925   9.915  18.829  0.00  0.00    +0.000 C 
ATOM      3  S   UNL     1       1.734   8.952  17.713  0.00  0.00    +0.000 S 
BRANCH   2   4
ATOM      4  N   UNL     1       0.094  10.972  18.467  0.00  0.00    +0.000 N 
ATOM      5  H   UNL     1       0.589  11.757  18.064  0.00  0.00    +0.000 HD
BRANCH   4   9
ATOM      6  C   UNL     1      -4.101  11.125  18.003  0.00  0.00    +0.000 A 
ATOM      7  C   UNL     1      -3.471  11.986  18.905  0.00  0.00    +0.000 A 
ATOM      8  C   UNL     1      -2.090  11.925  19.091  0.00  0.00    +0.000 A 
ATOM      9  C   UNL     1      -1.316  11.019  18.360  0.00  0.00    +0.000 A 
ATOM     10  C   UNL     1      -1.943  10.197  17.416  0.00  0.00    +0.000 A 
ATOM     11  C   UNL     1      -3.336  10.230  17.247  0.00  0.00    +0.000 A 
BRANCH   6  12
ATOM     12  C   UNL     1      -5.585  11.157  17.950  0.00  0.00    +0.000 C 
ATOM     13  O   UNL     1      -6.224  11.921  17.243  0.00  0.00    +0.000 OA
BRANCH  12  14
ATOM     14  O   UNL     1      -6.072  10.383  18.953  0.00  0.00    +0.000 OA
BRANCH  14  16
ATOM     15  C   UNL     1      -6.751  11.756  20.794  0.00  0.00    +0.000 C 
ATOM     16  C   UNL     1      -7.225  10.919  19.615  0.00  0.00    +0.000 C 
ENDBRANCH  14  16
ENDBRANCH  12  14
ENDBRANCH   6  12
ENDBRANCH   4   9
ENDBRANCH   2   4
ENDBRANCH   1   2
BRANCH   1  17
ATOM     17  C   UNL     1       0.937   8.564  20.998  0.00  0.00    +0.000 C 
BRANCH  17  18
ATOM     18  C   UNL     1       1.940   7.440  20.678  0.00  0.00    +0.000 C 
BRANCH  18  19
ATOM     19  C   UNL     1       1.395   5.997  20.719  0.00  0.00    +0.000 C 
BRANCH  19  20
ATOM     20  N   UNL     1       2.378   4.943  20.433  0.00  0.00    +0.000 NA
ATOM     21  C   UNL     1       1.805   3.669  19.990  0.00  0.00    +0.000 C 
ATOM     22  C   UNL     1       1.284   3.684  18.549  0.00  0.00    +0.000 C 
ATOM     23  C   UNL     1       2.388   4.074  17.577  0.00  0.00    +0.000 C 
ATOM     24  C   UNL     1       3.082   5.372  18.004  0.00  0.00    +0.000 C 
ATOM     25  C   UNL     1       4.347   5.570  17.159  0.00  0.00    +0.000 C 
ATOM     26  C   UNL     1       3.440   5.377  19.507  0.00  0.00    +0.000 C 
ENDBRANCH  19  20
ENDBRANCH  18  19
ENDBRANCH  17  18
ENDBRANCH   1  17
BRANCH   1  27
ATOM     27  C   UNL     1       1.221  11.053  21.030  0.00  0.00    +0.000 C 
BRANCH  27  28
ATOM     28  C   UNL     1       0.046  11.336  21.916  0.00  0.00    +0.000 A 
ATOM     29  C   UNL     1      -0.953  10.590  22.518  0.00  0.00    +0.000 A 
ATOM     30  C   UNL     1      -1.806  11.517  23.173  0.00  0.00    +0.000 A 
ATOM     31  C   UNL     1      -1.279  12.763  22.929  0.00  0.00    +0.000 A 
ATOM     32  O   UNL     1      -0.159  12.662  22.174  0.00  0.00    +0.000 OA
ENDBRANCH  27  28
ENDBRANCH   1  27
TORSDOF 12
ENDMDL
MODEL 9
REMARK VINA RESULT:      -6.3      3.304      6.914
REMARK  Name = 
REMARK  14 active torsions:
REMARK  status: ('A' for Active; 'I' for Inactive)
REMARK    1  A    between atoms: C_1  and  C_2
REMARK    2  A    between atoms: C_2  and  O_3
REMARK    3  A    between atoms: O_3  and  C_4
REMARK    4  A    between atoms: C_4  and  C_6
REMARK    5  A    between atoms: C_9  and  N_10
REMARK    6  A    between atoms: N_10  and  C_11
REMARK    7  A    between atoms: C_11  and  N_13
REMARK    8  A    between atoms: N_13  and  C_14
REMARK    9  A    between atoms: N_13  and  C_24
REMARK   10  A    between atoms: C_14  and  C_15
REMARK   11  A    between atoms: C_15  and  C_16
REMARK   12  A    between atoms: C_16  and  N_17
REMARK   13  A    between atoms: C_21  and  C_22
REMARK   14  A    between atoms: C_24  and  C_25
REMARK                            x       y       z     vdW  Elec       q    Type
REMARK                         _______ _______ _______ _____ _____    ______ ____
ROOT
ATOM      1  N   UNL     1       1.397   8.715  20.465  0.00  0.00    +0.000 N 
ENDROOT
BRANCH   1   2
ATOM      2  C   UNL     1       1.320   9.296  19.181  0.00  0.00    +0.000 C 
ATOM      3  S   UNL     1       2.177   8.749  17.842  0.00  0.00    +0.000 S 
BRANCH   2   4
ATOM      4  N   UNL     1       0.536  10.446  19.170  0.00  0.00    +0.000 N 
ATOM      5  H   UNL     1       1.059  11.295  19.345  0.00  0.00    +0.000 HD
BRANCH   4   9
ATOM      6  C   UNL     1      -3.482  10.993  17.988  0.00  0.00    +0.000 A 
ATOM      7  C   UNL     1      -2.724   9.968  17.417  0.00  0.00    +0.000 A 
ATOM      8  C   UNL     1      -1.387   9.796  17.775  0.00  0.00    +0.000 A 
ATOM      9  C   UNL     1      -0.795  10.630  18.727  0.00  0.00    +0.000 A 
ATOM     10  C   UNL     1      -1.573  11.620  19.340  0.00  0.00    +0.000 A 
ATOM     11  C   UNL     1      -2.909  11.821  18.961  0.00  0.00    +0.000 A 
BRANCH   6  12
ATOM     12  C   UNL     1      -4.857  11.200  17.467  0.00  0.00    +0.000 C 
ATOM     13  O   UNL     1      -5.127  11.944  16.537  0.00  0.00    +0.000 OA
BRANCH  12  14
ATOM     14  O   UNL     1      -5.737  10.620  18.321  0.00  0.00    +0.000 OA
BRANCH  14  16
ATOM     15  C   UNL     1      -7.344  11.158  20.013  0.00  0.00    +0.000 C 
ATOM     16  C   UNL     1      -6.923  11.388  18.569  0.00  0.00    +0.000 C 
ENDBRANCH  14  16
ENDBRANCH  12  14
ENDBRANCH   6  12
ENDBRANCH   4   9
ENDBRANCH   2   4
ENDBRANCH   1   2
BRANCH   1  17
ATOM     17  C   UNL     1       1.001   7.318  20.766  0.00  0.00    +0.000 C 
BRANCH  17  18
ATOM     18  C   UNL     1       1.979   6.218  20.310  0.00  0.00    +0.000 C 
BRANCH  18  19
ATOM     19  C   UNL     1       1.847   4.847  21.004  0.00  0.00    +0.000 C 
BRANCH  19  20
ATOM     20  N   UNL     1       2.697   3.779  20.458  0.00  0.00    +0.000 NA
ATOM     21  C   UNL     1       1.970   2.613  19.947  0.00  0.00    +0.000 C 
ATOM     22  C   UNL     1       1.270   2.852  18.604  0.00  0.00    +0.000 C 
ATOM     23  C   UNL     1       2.268   3.295  17.544  0.00  0.00    +0.000 C 
ATOM     24  C   UNL     1       3.114   4.478  18.026  0.00  0.00    +0.000 C 
ATOM     25  C   UNL     1       4.271   4.704  17.044  0.00  0.00    +0.000 C 
ATOM     26  C   UNL     1       3.661   4.262  19.454  0.00  0.00    +0.000 C 
ENDBRANCH  19  20
ENDBRANCH  18  19
ENDBRANCH  17  18
ENDBRANCH   1  17
BRANCH   1  27
ATOM     27  C   UNL     1       1.678   9.567  21.636  0.00  0.00    +0.000 C 
BRANCH  27  28
ATOM     28  C   UNL     1       0.463  10.198  22.244  0.00  0.00    +0.000 A 
ATOM     29  C   UNL     1      -0.666   9.753  22.910  0.00  0.00    +0.000 A 
ATOM     30  C   UNL     1      -1.468  10.900  23.150  0.00  0.00    +0.000 A 
ATOM     31  C   UNL     1      -0.784  11.966  22.617  0.00  0.00    +0.000 A 
ATOM     32  O   UNL     1       0.385  11.552  22.071  0.00  0.00    +0.000 OA
ENDBRANCH  27  28
ENDBRANCH   1  27
TORSDOF 12
ENDMDL
