MODEL 1
REMARK VINA RESULT:      -7.9      0.000      0.000
REMARK  Name = 
REMARK  9 active torsions:
REMARK  status: ('A' for Active; 'I' for Inactive)
REMARK    1  A    between atoms: C_1  and  O_2
REMARK    2  A    between atoms: O_2  and  C_3
REMARK    3  A    between atoms: C_5  and  N_6
REMARK    4  A    between atoms: C_10  and  C_12
REMARK    5  A    between atoms: C_12  and  N_13
REMARK    6  A    between atoms: C_15  and  C_16
REMARK    7  A    between atoms: C_22  and  C_23
REMARK    8  A    between atoms: C_27  and  C_28
REMARK    9  A    between atoms: C_28  and  O_29
REMARK                            x       y       z     vdW  Elec       q    Type
REMARK                         _______ _______ _______ _____ _____    ______ ____
ROOT
ATOM      1  N   UNL     1       2.261   8.211  18.811  0.00  0.00    +0.000 N 
ATOM      2  C   UNL     1       1.475   7.979  20.033  0.00  0.00    +0.000 C 
ATOM      3  C   UNL     1       1.383   9.309  20.800  0.00  0.00    +0.000 C 
ATOM      4  N   UNL     1       0.809  10.371  19.960  0.00  0.00    +0.000 N 
ATOM      5  C   UNL     1      -0.319  11.039  20.403  0.00  0.00    +0.000 C 
ATOM      6  O   UNL     1      -0.887  10.721  21.452  0.00  0.00    +0.000 OA
ATOM      7  C   UNL     1       1.494  10.552  18.663  0.00  0.00    +0.000 C 
ATOM      8  C   UNL     1       1.665   9.214  17.903  0.00  0.00    +0.000 C 
ENDROOT
BRANCH   1  11
ATOM      9  C   UNL     1       4.949   6.341  17.033  0.00  0.00    +0.000 A 
ATOM     10  C   UNL     1       4.248   7.393  17.640  0.00  0.00    +0.000 A 
ATOM     11  C   UNL     1       3.008   7.187  18.252  0.00  0.00    +0.000 A 
ATOM     12  C   UNL     1       2.468   5.895  18.209  0.00  0.00    +0.000 A 
ATOM     13  C   UNL     1       3.101   4.837  17.535  0.00  0.00    +0.000 A 
ATOM     14  C   UNL     1       4.367   5.064  16.973  0.00  0.00    +0.000 A 
ATOM     15 CL   UNL     1       5.236   3.763  16.223  0.00  0.00    +0.000 Cl
BRANCH   9  17
ATOM     16  C   UNL     1       7.220   6.993  17.271  0.00  0.00    +0.000 C 
ATOM     17  O   UNL     1       6.174   6.511  16.433  0.00  0.00    +0.000 OA
ENDBRANCH   9  17
BRANCH  13  18
ATOM     18  C   UNL     1       2.368   3.524  17.446  0.00  0.00    +0.000 C 
BRANCH  18  19
ATOM     19  O   UNL     1       1.016   3.662  17.849  0.00  0.00    +0.000 OA
ATOM     20  H   UNL     1       0.457   3.379  17.104  0.00  0.00    +0.000 HD
ENDBRANCH  18  19
ENDBRANCH  13  18
ENDBRANCH   1  11
BRANCH   5  21
ATOM     21  C   UNL     1      -0.861  12.200  19.602  0.00  0.00    +0.000 C 
BRANCH  21  22
ATOM     22  N   UNL     1      -2.020  11.808  18.824  0.00  0.00    +0.000 N 
ATOM     23  N   UNL     1      -1.825  11.225  17.622  0.00  0.00    +0.000 NA
ATOM     24  C   UNL     1      -3.067  11.018  17.138  0.00  0.00    +0.000 A 
ATOM     25  C   UNL     1      -4.042  11.488  18.046  0.00  0.00    +0.000 A 
ATOM     26 CL   UNL     1      -5.727  11.417  17.839  0.00  0.00    +0.000 Cl
ATOM     27  C   UNL     1      -3.349  12.012  19.116  0.00  0.00    +0.000 A 
ATOM     28  C   UNL     1      -3.824  12.670  20.360  0.00  0.00    +0.000 C 
BRANCH  24  29
ATOM     29  C   UNL     1      -3.331  10.384  15.805  0.00  0.00    +0.000 C 
ATOM     30  F   UNL     1      -3.133   9.036  15.807  0.00  0.00    +0.000 F 
ATOM     31  F   UNL     1      -4.614  10.579  15.394  0.00  0.00    +0.000 F 
ATOM     32  F   UNL     1      -2.527  10.887  14.831  0.00  0.00    +0.000 F 
ENDBRANCH  24  29
ENDBRANCH  21  22
ENDBRANCH   5  21
TORSDOF 7
ENDMDL
MODEL 2
REMARK VINA RESULT:      -7.9      1.692      1.891
REMARK  Name = 
REMARK  9 active torsions:
REMARK  status: ('A' for Active; 'I' for Inactive)
REMARK    1  A    between atoms: C_1  and  O_2
REMARK    2  A    between atoms: O_2  and  C_3
REMARK    3  A    between atoms: C_5  and  N_6
REMARK    4  A    between atoms: C_10  and  C_12
REMARK    5  A    between atoms: C_12  and  N_13
REMARK    6  A    between atoms: C_15  and  C_16
REMARK    7  A    between atoms: C_22  and  C_23
REMARK    8  A    between atoms: C_27  and  C_28
REMARK    9  A    between atoms: C_28  and  O_29
REMARK                            x       y       z     vdW  Elec       q    Type
REMARK                         _______ _______ _______ _____ _____    ______ ____
ROOT
ATOM      1  N   UNL     1       1.648   8.062  20.187  0.00  0.00    +0.000 N 
ATOM      2  C   UNL     1       0.938   8.180  21.471  0.00  0.00    +0.000 C 
ATOM      3  C   UNL     1       1.134   9.613  21.994  0.00  0.00    +0.000 C 
ATOM      4  N   UNL     1       0.678  10.608  21.010  0.00  0.00    +0.000 N 
ATOM      5  C   UNL     1      -0.281  11.531  21.386  0.00  0.00    +0.000 C 
ATOM      6  O   UNL     1      -0.806  11.497  22.504  0.00  0.00    +0.000 OA
ATOM      7  C   UNL     1       1.274  10.446  19.667  0.00  0.00    +0.000 C 
ATOM      8  C   UNL     1       1.155   8.992  19.149  0.00  0.00    +0.000 C 
ENDROOT
BRANCH   1  11
ATOM      9  C   UNL     1       3.386   5.426  18.210  0.00  0.00    +0.000 A 
ATOM     10  C   UNL     1       2.929   6.686  18.621  0.00  0.00    +0.000 A 
ATOM     11  C   UNL     1       2.164   6.843  19.781  0.00  0.00    +0.000 A 
ATOM     12  C   UNL     1       1.836   5.689  20.505  0.00  0.00    +0.000 A 
ATOM     13  C   UNL     1       2.203   4.402  20.076  0.00  0.00    +0.000 A 
ATOM     14  C   UNL     1       3.012   4.282  18.935  0.00  0.00    +0.000 A 
ATOM     15 CL   UNL     1       3.580   2.723  18.426  0.00  0.00    +0.000 Cl
BRANCH   9  17
ATOM     16  C   UNL     1       4.908   6.367  16.649  0.00  0.00    +0.000 C 
ATOM     17  O   UNL     1       4.149   5.242  17.081  0.00  0.00    +0.000 OA
ENDBRANCH   9  17
BRANCH  13  18
ATOM     18  C   UNL     1       1.688   3.227  20.865  0.00  0.00    +0.000 C 
BRANCH  18  19
ATOM     19  O   UNL     1       2.257   3.190  22.163  0.00  0.00    +0.000 OA
ATOM     20  H   UNL     1       3.104   3.669  22.126  0.00  0.00    +0.000 HD
ENDBRANCH  18  19
ENDBRANCH  13  18
ENDBRANCH   1  11
BRANCH   5  21
ATOM     21  C   UNL     1      -0.685  12.622  20.421  0.00  0.00    +0.000 C 
BRANCH  21  22
ATOM     22  N   UNL     1      -1.846  12.233  19.644  0.00  0.00    +0.000 N 
ATOM     23  N   UNL     1      -1.653  11.616  18.458  0.00  0.00    +0.000 NA
ATOM     24  C   UNL     1      -2.895  11.422  17.969  0.00  0.00    +0.000 A 
ATOM     25  C   UNL     1      -3.868  11.934  18.856  0.00  0.00    +0.000 A 
ATOM     26 CL   UNL     1      -5.552  11.892  18.636  0.00  0.00    +0.000 Cl
ATOM     27  C   UNL     1      -3.172  12.471  19.919  0.00  0.00    +0.000 A 
ATOM     28  C   UNL     1      -3.644  13.171  21.141  0.00  0.00    +0.000 C 
BRANCH  24  29
ATOM     29  C   UNL     1      -3.161  10.759  16.650  0.00  0.00    +0.000 C 
ATOM     30  F   UNL     1      -3.905   9.624  16.764  0.00  0.00    +0.000 F 
ATOM     31  F   UNL     1      -3.840  11.575  15.799  0.00  0.00    +0.000 F 
ATOM     32  F   UNL     1      -2.012  10.401  16.017  0.00  0.00    +0.000 F 
ENDBRANCH  24  29
ENDBRANCH  21  22
ENDBRANCH   5  21
TORSDOF 7
ENDMDL
MODEL 3
REMARK VINA RESULT:      -7.9      1.010      2.394
REMARK  Name = 
REMARK  9 active torsions:
REMARK  status: ('A' for Active; 'I' for Inactive)
REMARK    1  A    between atoms: C_1  and  O_2
REMARK    2  A    between atoms: O_2  and  C_3
REMARK    3  A    between atoms: C_5  and  N_6
REMARK    4  A    between atoms: C_10  and  C_12
REMARK    5  A    between atoms: C_12  and  N_13
REMARK    6  A    between atoms: C_15  and  C_16
REMARK    7  A    between atoms: C_22  and  C_23
REMARK    8  A    between atoms: C_27  and  C_28
REMARK    9  A    between atoms: C_28  and  O_29
REMARK                            x       y       z     vdW  Elec       q    Type
REMARK                         _______ _______ _______ _____ _____    ______ ____
ROOT
ATOM      1  N   UNL     1       1.861   8.312  19.396  0.00  0.00    +0.000 N 
ATOM      2  C   UNL     1       1.162   8.196  20.686  0.00  0.00    +0.000 C 
ATOM      3  C   UNL     1       1.216   9.566  21.383  0.00  0.00    +0.000 C 
ATOM      4  N   UNL     1       0.644  10.621  20.531  0.00  0.00    +0.000 N 
ATOM      5  C   UNL     1      -0.400  11.384  21.021  0.00  0.00    +0.000 C 
ATOM      6  O   UNL     1      -0.902  11.158  22.127  0.00  0.00    +0.000 OA
ATOM      7  C   UNL     1       1.234  10.689  19.177  0.00  0.00    +0.000 C 
ATOM      8  C   UNL     1       1.259   9.307  18.483  0.00  0.00    +0.000 C 
ENDROOT
BRANCH   1  11
ATOM      9  C   UNL     1       2.915   4.813  18.671  0.00  0.00    +0.000 A 
ATOM     10  C   UNL     1       2.211   5.897  19.214  0.00  0.00    +0.000 A 
ATOM     11  C   UNL     1       2.496   7.214  18.840  0.00  0.00    +0.000 A 
ATOM     12  C   UNL     1       3.538   7.420  17.927  0.00  0.00    +0.000 A 
ATOM     13  C   UNL     1       4.322   6.365  17.429  0.00  0.00    +0.000 A 
ATOM     14  C   UNL     1       3.980   5.052  17.785  0.00  0.00    +0.000 A 
ATOM     15 CL   UNL     1       4.850   3.709  17.113  0.00  0.00    +0.000 Cl
BRANCH   9  17
ATOM     16  C   UNL     1       2.883   3.155  20.370  0.00  0.00    +0.000 C 
ATOM     17  O   UNL     1       2.651   3.508  19.010  0.00  0.00    +0.000 OA
ENDBRANCH   9  17
BRANCH  13  18
ATOM     18  C   UNL     1       5.496   6.717  16.553  0.00  0.00    +0.000 C 
BRANCH  18  19
ATOM     19  O   UNL     1       5.119   6.775  15.188  0.00  0.00    +0.000 OA
ATOM     20  H   UNL     1       4.165   6.965  15.155  0.00  0.00    +0.000 HD
ENDBRANCH  18  19
ENDBRANCH  13  18
ENDBRANCH   1  11
BRANCH   5  21
ATOM     21  C   UNL     1      -0.930  12.537  20.200  0.00  0.00    +0.000 C 
BRANCH  21  22
ATOM     22  N   UNL     1      -2.083  12.139  19.416  0.00  0.00    +0.000 N 
ATOM     23  N   UNL     1      -1.879  11.596  18.197  0.00  0.00    +0.000 NA
ATOM     24  C   UNL     1      -3.117  11.372  17.711  0.00  0.00    +0.000 A 
ATOM     25  C   UNL     1      -4.100  11.793  18.636  0.00  0.00    +0.000 A 
ATOM     26 CL   UNL     1      -5.783  11.687  18.432  0.00  0.00    +0.000 Cl
ATOM     27  C   UNL     1      -3.414  12.303  19.718  0.00  0.00    +0.000 A 
ATOM     28  C   UNL     1      -3.900  12.914  20.981  0.00  0.00    +0.000 C 
BRANCH  24  29
ATOM     29  C   UNL     1      -3.371  10.770  16.362  0.00  0.00    +0.000 C 
ATOM     30  F   UNL     1      -4.613  11.051  15.878  0.00  0.00    +0.000 F 
ATOM     31  F   UNL     1      -2.489  11.220  15.429  0.00  0.00    +0.000 F 
ATOM     32  F   UNL     1      -3.266   9.414  16.379  0.00  0.00    +0.000 F 
ENDBRANCH  24  29
ENDBRANCH  21  22
ENDBRANCH   5  21
TORSDOF 7
ENDMDL
MODEL 4
REMARK VINA RESULT:      -7.7      1.721      2.096
REMARK  Name = 
REMARK  9 active torsions:
REMARK  status: ('A' for Active; 'I' for Inactive)
REMARK    1  A    between atoms: C_1  and  O_2
REMARK    2  A    between atoms: O_2  and  C_3
REMARK    3  A    between atoms: C_5  and  N_6
REMARK    4  A    between atoms: C_10  and  C_12
REMARK    5  A    between atoms: C_12  and  N_13
REMARK    6  A    between atoms: C_15  and  C_16
REMARK    7  A    between atoms: C_22  and  C_23
REMARK    8  A    between atoms: C_27  and  C_28
REMARK    9  A    between atoms: C_28  and  O_29
REMARK                            x       y       z     vdW  Elec       q    Type
REMARK                         _______ _______ _______ _____ _____    ______ ____
ROOT
ATOM      1  N   UNL     1       1.544   8.318  20.289  0.00  0.00    +0.000 N 
ATOM      2  C   UNL     1       0.815   8.339  21.568  0.00  0.00    +0.000 C 
ATOM      3  C   UNL     1       0.962   9.744  22.177  0.00  0.00    +0.000 C 
ATOM      4  N   UNL     1       0.489  10.781  21.247  0.00  0.00    +0.000 N 
ATOM      5  C   UNL     1      -0.502  11.652  21.663  0.00  0.00    +0.000 C 
ATOM      6  O   UNL     1      -1.039  11.537  22.769  0.00  0.00    +0.000 OA
ATOM      7  C   UNL     1       1.106  10.716  19.905  0.00  0.00    +0.000 C 
ATOM      8  C   UNL     1       1.037   9.293  19.301  0.00  0.00    +0.000 C 
ENDROOT
BRANCH   1  11
ATOM      9  C   UNL     1       3.328   5.842  18.153  0.00  0.00    +0.000 A 
ATOM     10  C   UNL     1       2.829   7.063  18.627  0.00  0.00    +0.000 A 
ATOM     11  C   UNL     1       2.101   7.141  19.819  0.00  0.00    +0.000 A 
ATOM     12  C   UNL     1       1.855   5.947  20.510  0.00  0.00    +0.000 A 
ATOM     13  C   UNL     1       2.266   4.695  20.020  0.00  0.00    +0.000 A 
ATOM     14  C   UNL     1       3.036   4.656  18.848  0.00  0.00    +0.000 A 
ATOM     15 CL   UNL     1       3.656   3.145  18.260  0.00  0.00    +0.000 Cl
BRANCH   9  17
ATOM     16  C   UNL     1       5.330   6.372  16.990  0.00  0.00    +0.000 C 
ATOM     17  O   UNL     1       4.056   5.735  16.992  0.00  0.00    +0.000 OA
ENDBRANCH   9  17
BRANCH  13  18
ATOM     18  C   UNL     1       1.837   3.469  20.782  0.00  0.00    +0.000 C 
BRANCH  18  19
ATOM     19  O   UNL     1       0.564   3.016  20.352  0.00  0.00    +0.000 OA
ATOM     20  H   UNL     1       0.554   3.051  19.379  0.00  0.00    +0.000 HD
ENDBRANCH  18  19
ENDBRANCH  13  18
ENDBRANCH   1  11
BRANCH   5  21
ATOM     21  C   UNL     1      -0.926  12.786  20.759  0.00  0.00    +0.000 C 
BRANCH  21  22
ATOM     22  N   UNL     1      -2.256  12.563  20.223  0.00  0.00    +0.000 N 
ATOM     23  N   UNL     1      -2.385  11.817  19.105  0.00  0.00    +0.000 NA
ATOM     24  C   UNL     1      -3.708  11.825  18.841  0.00  0.00    +0.000 A 
ATOM     25  C   UNL     1      -4.404  12.594  19.801  0.00  0.00    +0.000 A 
ATOM     26 CL   UNL     1      -6.081  12.861  19.851  0.00  0.00    +0.000 Cl
ATOM     27  C   UNL     1      -3.450  13.078  20.670  0.00  0.00    +0.000 A 
ATOM     28  C   UNL     1      -3.570  13.962  21.857  0.00  0.00    +0.000 C 
BRANCH  24  29
ATOM     29  C   UNL     1      -4.313  11.112  17.669  0.00  0.00    +0.000 C 
ATOM     30  F   UNL     1      -3.452  10.243  17.071  0.00  0.00    +0.000 F 
ATOM     31  F   UNL     1      -5.405  10.381  18.026  0.00  0.00    +0.000 F 
ATOM     32  F   UNL     1      -4.720  11.975  16.700  0.00  0.00    +0.000 F 
ENDBRANCH  24  29
ENDBRANCH  21  22
ENDBRANCH   5  21
TORSDOF 7
ENDMDL
MODEL 5
REMARK VINA RESULT:      -7.6      0.658      2.456
REMARK  Name = 
REMARK  9 active torsions:
REMARK  status: ('A' for Active; 'I' for Inactive)
REMARK    1  A    between atoms: C_1  and  O_2
REMARK    2  A    between atoms: O_2  and  C_3
REMARK    3  A    between atoms: C_5  and  N_6
REMARK    4  A    between atoms: C_10  and  C_12
REMARK    5  A    between atoms: C_12  and  N_13
REMARK    6  A    between atoms: C_15  and  C_16
REMARK    7  A    between atoms: C_22  and  C_23
REMARK    8  A    between atoms: C_27  and  C_28
REMARK    9  A    between atoms: C_28  and  O_29
REMARK                            x       y       z     vdW  Elec       q    Type
REMARK                         _______ _______ _______ _____ _____    ______ ____
ROOT
ATOM      1  N   UNL     1       2.293   7.819  18.709  0.00  0.00    +0.000 N 
ATOM      2  C   UNL     1       1.521   7.584  19.940  0.00  0.00    +0.000 C 
ATOM      3  C   UNL     1       1.551   8.875  20.775  0.00  0.00    +0.000 C 
ATOM      4  N   UNL     1       1.040  10.020  20.005  0.00  0.00    +0.000 N 
ATOM      5  C   UNL     1      -0.022  10.748  20.512  0.00  0.00    +0.000 C 
ATOM      6  O   UNL     1      -0.588  10.419  21.560  0.00  0.00    +0.000 OA
ATOM      7  C   UNL     1       1.707  10.216  18.700  0.00  0.00    +0.000 C 
ATOM      8  C   UNL     1       1.756   8.911  17.870  0.00  0.00    +0.000 C 
ENDROOT
BRANCH   1  11
ATOM      9  C   UNL     1       3.146   4.427  17.425  0.00  0.00    +0.000 A 
ATOM     10  C   UNL     1       2.429   5.475  18.020  0.00  0.00    +0.000 A 
ATOM     11  C   UNL     1       2.946   6.772  18.079  0.00  0.00    +0.000 A 
ATOM     12  C   UNL     1       4.227   6.987  17.552  0.00  0.00    +0.000 A 
ATOM     13  C   UNL     1       5.009   5.944  17.026  0.00  0.00    +0.000 A 
ATOM     14  C   UNL     1       4.443   4.663  16.937  0.00  0.00    +0.000 A 
ATOM     15 CL   UNL     1       5.328   3.366  16.199  0.00  0.00    +0.000 Cl
BRANCH   9  17
ATOM     16  C   UNL     1       1.834   2.717  18.422  0.00  0.00    +0.000 C 
ATOM     17  O   UNL     1       2.659   3.144  17.342  0.00  0.00    +0.000 OA
ENDBRANCH   9  17
BRANCH  13  18
ATOM     18  C   UNL     1       6.418   6.269  16.605  0.00  0.00    +0.000 C 
BRANCH  18  19
ATOM     19  O   UNL     1       6.777   7.586  16.985  0.00  0.00    +0.000 OA
ATOM     20  H   UNL     1       6.143   7.879  17.664  0.00  0.00    +0.000 HD
ENDBRANCH  18  19
ENDBRANCH  13  18
ENDBRANCH   1  11
BRANCH   5  21
ATOM     21  C   UNL     1      -0.491  11.988  19.786  0.00  0.00    +0.000 C 
BRANCH  21  22
ATOM     22  N   UNL     1      -1.714  11.735  19.050  0.00  0.00    +0.000 N 
ATOM     23  N   UNL     1      -1.629  11.153  17.835  0.00  0.00    +0.000 NA
ATOM     24  C   UNL     1      -2.903  11.088  17.397  0.00  0.00    +0.000 A 
ATOM     25  C   UNL     1      -3.787  11.647  18.348  0.00  0.00    +0.000 A 
ATOM     26 CL   UNL     1      -5.476  11.763  18.206  0.00  0.00    +0.000 Cl
ATOM     27  C   UNL     1      -3.001  12.077  19.396  0.00  0.00    +0.000 A 
ATOM     28  C   UNL     1      -3.354  12.764  20.664  0.00  0.00    +0.000 C 
BRANCH  24  29
ATOM     29  C   UNL     1      -3.284  10.507  16.069  0.00  0.00    +0.000 C 
ATOM     30  F   UNL     1      -2.359  10.743  15.098  0.00  0.00    +0.000 F 
ATOM     31  F   UNL     1      -3.436   9.155  16.129  0.00  0.00    +0.000 F 
ATOM     32  F   UNL     1      -4.460  11.013  15.608  0.00  0.00    +0.000 F 
ENDBRANCH  24  29
ENDBRANCH  21  22
ENDBRANCH   5  21
TORSDOF 7
ENDMDL
MODEL 6
REMARK VINA RESULT:      -7.6      1.417      2.689
REMARK  Name = 
REMARK  9 active torsions:
REMARK  status: ('A' for Active; 'I' for Inactive)
REMARK    1  A    between atoms: C_1  and  O_2
REMARK    2  A    between atoms: O_2  and  C_3
REMARK    3  A    between atoms: C_5  and  N_6
REMARK    4  A    between atoms: C_10  and  C_12
REMARK    5  A    between atoms: C_12  and  N_13
REMARK    6  A    between atoms: C_15  and  C_16
REMARK    7  A    between atoms: C_22  and  C_23
REMARK    8  A    between atoms: C_27  and  C_28
REMARK    9  A    between atoms: C_28  and  O_29
REMARK                            x       y       z     vdW  Elec       q    Type
REMARK                         _______ _______ _______ _____ _____    ______ ____
ROOT
ATOM      1  N   UNL     1       1.645   8.220  20.103  0.00  0.00    +0.000 N 
ATOM      2  C   UNL     1       0.932   8.225  21.390  0.00  0.00    +0.000 C 
ATOM      3  C   UNL     1       1.080   9.624  22.012  0.00  0.00    +0.000 C 
ATOM      4  N   UNL     1       0.591  10.669  21.099  0.00  0.00    +0.000 N 
ATOM      5  C   UNL     1      -0.398  11.531  21.536  0.00  0.00    +0.000 C 
ATOM      6  O   UNL     1      -0.921  11.402  22.648  0.00  0.00    +0.000 OA
ATOM      7  C   UNL     1       1.192  10.621  19.749  0.00  0.00    +0.000 C 
ATOM      8  C   UNL     1       1.121   9.204  19.131  0.00  0.00    +0.000 C 
ENDROOT
BRANCH   1  11
ATOM      9  C   UNL     1       2.734   4.672  19.779  0.00  0.00    +0.000 A 
ATOM     10  C   UNL     1       2.107   5.823  20.276  0.00  0.00    +0.000 A 
ATOM     11  C   UNL     1       2.201   7.050  19.613  0.00  0.00    +0.000 A 
ATOM     12  C   UNL     1       2.976   7.102  18.447  0.00  0.00    +0.000 A 
ATOM     13  C   UNL     1       3.689   5.989  17.967  0.00  0.00    +0.000 A 
ATOM     14  C   UNL     1       3.534   4.760  18.627  0.00  0.00    +0.000 A 
ATOM     15 CL   UNL     1       4.308   3.334  18.013  0.00  0.00    +0.000 Cl
BRANCH   9  17
ATOM     16  C   UNL     1       1.480   2.685  20.127  0.00  0.00    +0.000 C 
ATOM     17  O   UNL     1       2.650   3.450  20.403  0.00  0.00    +0.000 OA
ENDBRANCH   9  17
BRANCH  13  18
ATOM     18  C   UNL     1       4.589   6.193  16.777  0.00  0.00    +0.000 C 
BRANCH  18  19
ATOM     19  O   UNL     1       5.932   6.403  17.179  0.00  0.00    +0.000 OA
ATOM     20  H   UNL     1       6.434   5.598  16.960  0.00  0.00    +0.000 HD
ENDBRANCH  18  19
ENDBRANCH  13  18
ENDBRANCH   1  11
BRANCH   5  21
ATOM     21  C   UNL     1      -0.838  12.673  20.649  0.00  0.00    +0.000 C 
BRANCH  21  22
ATOM     22  N   UNL     1      -1.999  12.308  19.860  0.00  0.00    +0.000 N 
ATOM     23  N   UNL     1      -1.805  11.770  18.637  0.00  0.00    +0.000 NA
ATOM     24  C   UNL     1      -3.048  11.580  18.148  0.00  0.00    +0.000 A 
ATOM     25  C   UNL     1      -4.022  12.016  19.074  0.00  0.00    +0.000 A 
ATOM     26 CL   UNL     1      -5.707  11.951  18.867  0.00  0.00    +0.000 Cl
ATOM     27  C   UNL     1      -3.327  12.500  20.161  0.00  0.00    +0.000 A 
ATOM     28  C   UNL     1      -3.800  13.112  21.429  0.00  0.00    +0.000 C 
BRANCH  24  29
ATOM     29  C   UNL     1      -3.314  10.995  16.793  0.00  0.00    +0.000 C 
ATOM     30  F   UNL     1      -2.199  10.929  16.012  0.00  0.00    +0.000 F 
ATOM     31  F   UNL     1      -3.798   9.726  16.872  0.00  0.00    +0.000 F 
ATOM     32  F   UNL     1      -4.227  11.720  16.093  0.00  0.00    +0.000 F 
ENDBRANCH  24  29
ENDBRANCH  21  22
ENDBRANCH   5  21
TORSDOF 7
ENDMDL
MODEL 7
REMARK VINA RESULT:      -7.5      1.302      2.748
REMARK  Name = 
REMARK  9 active torsions:
REMARK  status: ('A' for Active; 'I' for Inactive)
REMARK    1  A    between atoms: C_1  and  O_2
REMARK    2  A    between atoms: O_2  and  C_3
REMARK    3  A    between atoms: C_5  and  N_6
REMARK    4  A    between atoms: C_10  and  C_12
REMARK    5  A    between atoms: C_12  and  N_13
REMARK    6  A    between atoms: C_15  and  C_16
REMARK    7  A    between atoms: C_22  and  C_23
REMARK    8  A    between atoms: C_27  and  C_28
REMARK    9  A    between atoms: C_28  and  O_29
REMARK                            x       y       z     vdW  Elec       q    Type
REMARK                         _______ _______ _______ _____ _____    ______ ____
ROOT
ATOM      1  N   UNL     1       1.869   8.270  19.408  0.00  0.00    +0.000 N 
ATOM      2  C   UNL     1       1.152   8.132  20.686  0.00  0.00    +0.000 C 
ATOM      3  C   UNL     1       1.235   9.477  21.426  0.00  0.00    +0.000 C 
ATOM      4  N   UNL     1       0.702  10.574  20.603  0.00  0.00    +0.000 N 
ATOM      5  C   UNL     1      -0.327  11.350  21.105  0.00  0.00    +0.000 C 
ATOM      6  O   UNL     1      -0.847  11.103  22.197  0.00  0.00    +0.000 OA
ATOM      7  C   UNL     1       1.310  10.669  19.258  0.00  0.00    +0.000 C 
ATOM      8  C   UNL     1       1.305   9.309  18.520  0.00  0.00    +0.000 C 
ENDROOT
BRANCH   1  11
ATOM      9  C   UNL     1       2.853   4.769  18.598  0.00  0.00    +0.000 A 
ATOM     10  C   UNL     1       2.172   5.853  19.169  0.00  0.00    +0.000 A 
ATOM     11  C   UNL     1       2.480   7.173  18.824  0.00  0.00    +0.000 A 
ATOM     12  C   UNL     1       3.522   7.380  17.911  0.00  0.00    +0.000 A 
ATOM     13  C   UNL     1       4.284   6.322  17.385  0.00  0.00    +0.000 A 
ATOM     14  C   UNL     1       3.918   5.007  17.713  0.00  0.00    +0.000 A 
ATOM     15 CL   UNL     1       4.759   3.664  17.006  0.00  0.00    +0.000 Cl
BRANCH   9  17
ATOM     16  C   UNL     1       1.314   2.967  18.440  0.00  0.00    +0.000 C 
ATOM     17  O   UNL     1       2.565   3.461  18.909  0.00  0.00    +0.000 OA
ENDBRANCH   9  17
BRANCH  13  18
ATOM     18  C   UNL     1       5.460   6.671  16.511  0.00  0.00    +0.000 C 
BRANCH  18  19
ATOM     19  O   UNL     1       5.061   6.860  15.164  0.00  0.00    +0.000 OA
ATOM     20  H   UNL     1       4.092   6.770  15.130  0.00  0.00    +0.000 HD
ENDBRANCH  18  19
ENDBRANCH  13  18
ENDBRANCH   1  11
BRANCH   5  21
ATOM     21  C   UNL     1      -0.815  12.543  20.316  0.00  0.00    +0.000 C 
BRANCH  21  22
ATOM     22  N   UNL     1      -2.205  12.388  19.933  0.00  0.00    +0.000 N 
ATOM     23  N   UNL     1      -2.493  11.709  18.802  0.00  0.00    +0.000 NA
ATOM     24  C   UNL     1      -3.836  11.769  18.701  0.00  0.00    +0.000 A 
ATOM     25  C   UNL     1      -4.386  12.503  19.775  0.00  0.00    +0.000 A 
ATOM     26 CL   UNL     1      -6.035  12.815  20.041  0.00  0.00    +0.000 Cl
ATOM     27  C   UNL     1      -3.319  12.911  20.547  0.00  0.00    +0.000 A 
ATOM     28  C   UNL     1      -3.266  13.731  21.783  0.00  0.00    +0.000 C 
BRANCH  24  29
ATOM     29  C   UNL     1      -4.601  11.139  17.575  0.00  0.00    +0.000 C 
ATOM     30  F   UNL     1      -5.161  12.053  16.734  0.00  0.00    +0.000 F 
ATOM     31  F   UNL     1      -3.810  10.346  16.802  0.00  0.00    +0.000 F 
ATOM     32  F   UNL     1      -5.620  10.358  18.023  0.00  0.00    +0.000 F 
ENDBRANCH  24  29
ENDBRANCH  21  22
ENDBRANCH   5  21
TORSDOF 7
ENDMDL
MODEL 8
REMARK VINA RESULT:      -7.5      2.441      3.061
REMARK  Name = 
REMARK  9 active torsions:
REMARK  status: ('A' for Active; 'I' for Inactive)
REMARK    1  A    between atoms: C_1  and  O_2
REMARK    2  A    between atoms: O_2  and  C_3
REMARK    3  A    between atoms: C_5  and  N_6
REMARK    4  A    between atoms: C_10  and  C_12
REMARK    5  A    between atoms: C_12  and  N_13
REMARK    6  A    between atoms: C_15  and  C_16
REMARK    7  A    between atoms: C_22  and  C_23
REMARK    8  A    between atoms: C_27  and  C_28
REMARK    9  A    between atoms: C_28  and  O_29
REMARK                            x       y       z     vdW  Elec       q    Type
REMARK                         _______ _______ _______ _____ _____    ______ ____
ROOT
ATOM      1  N   UNL     1       1.625   8.197  20.009  0.00  0.00    +0.000 N 
ATOM      2  C   UNL     1       0.913   8.335  21.290  0.00  0.00    +0.000 C 
ATOM      3  C   UNL     1       1.027   9.801  21.743  0.00  0.00    +0.000 C 
ATOM      4  N   UNL     1       0.512  10.719  20.716  0.00  0.00    +0.000 N 
ATOM      5  C   UNL     1      -0.498  11.602  21.052  0.00  0.00    +0.000 C 
ATOM      6  O   UNL     1      -1.017  11.592  22.173  0.00  0.00    +0.000 OA
ATOM      7  C   UNL     1       1.113  10.528  19.379  0.00  0.00    +0.000 C 
ATOM      8  C   UNL     1       1.077   9.047  18.931  0.00  0.00    +0.000 C 
ENDROOT
BRANCH   1  11
ATOM      9  C   UNL     1       3.473   5.563  18.131  0.00  0.00    +0.000 A 
ATOM     10  C   UNL     1       2.945   6.813  18.483  0.00  0.00    +0.000 A 
ATOM     11  C   UNL     1       2.210   6.992  19.658  0.00  0.00    +0.000 A 
ATOM     12  C   UNL     1       1.986   5.867  20.463  0.00  0.00    +0.000 A 
ATOM     13  C   UNL     1       2.425   4.582  20.099  0.00  0.00    +0.000 A 
ATOM     14  C   UNL     1       3.202   4.444  18.938  0.00  0.00    +0.000 A 
ATOM     15 CL   UNL     1       3.857   2.898  18.503  0.00  0.00    +0.000 Cl
BRANCH   9  17
ATOM     16  C   UNL     1       5.508   5.943  16.968  0.00  0.00    +0.000 C 
ATOM     17  O   UNL     1       4.209   5.359  16.989  0.00  0.00    +0.000 OA
ENDBRANCH   9  17
BRANCH  13  18
ATOM     18  C   UNL     1       2.018   3.427  20.976  0.00  0.00    +0.000 C 
BRANCH  18  19
ATOM     19  O   UNL     1       0.662   3.073  20.762  0.00  0.00    +0.000 OA
ATOM     20  H   UNL     1       0.126   3.555  21.416  0.00  0.00    +0.000 HD
ENDBRANCH  18  19
ENDBRANCH  13  18
ENDBRANCH   1  11
BRANCH   5  21
ATOM     21  C   UNL     1      -0.966  12.621  20.039  0.00  0.00    +0.000 C 
BRANCH  21  22
ATOM     22  N   UNL     1      -2.344  12.383  19.652  0.00  0.00    +0.000 N 
ATOM     23  N   UNL     1      -3.328  12.793  20.481  0.00  0.00    +0.000 NA
ATOM     24  C   UNL     1      -4.468  12.403  19.875  0.00  0.00    +0.000 A 
ATOM     25  C   UNL     1      -4.186  11.734  18.663  0.00  0.00    +0.000 A 
ATOM     26 CL   UNL     1      -5.327  11.087  17.582  0.00  0.00    +0.000 Cl
ATOM     27  C   UNL     1      -2.813  11.713  18.547  0.00  0.00    +0.000 A 
ATOM     28  C   UNL     1      -1.930  11.128  17.506  0.00  0.00    +0.000 C 
BRANCH  24  29
ATOM     29  C   UNL     1      -5.829  12.654  20.452  0.00  0.00    +0.000 C 
ATOM     30  F   UNL     1      -5.790  13.311  21.645  0.00  0.00    +0.000 F 
ATOM     31  F   UNL     1      -6.601  13.411  19.626  0.00  0.00    +0.000 F 
ATOM     32  F   UNL     1      -6.511  11.498  20.675  0.00  0.00    +0.000 F 
ENDBRANCH  24  29
ENDBRANCH  21  22
ENDBRANCH   5  21
TORSDOF 7
ENDMDL
MODEL 9
REMARK VINA RESULT:      -7.5      2.274      2.747
REMARK  Name = 
REMARK  9 active torsions:
REMARK  status: ('A' for Active; 'I' for Inactive)
REMARK    1  A    between atoms: C_1  and  O_2
REMARK    2  A    between atoms: O_2  and  C_3
REMARK    3  A    between atoms: C_5  and  N_6
REMARK    4  A    between atoms: C_10  and  C_12
REMARK    5  A    between atoms: C_12  and  N_13
REMARK    6  A    between atoms: C_15  and  C_16
REMARK    7  A    between atoms: C_22  and  C_23
REMARK    8  A    between atoms: C_27  and  C_28
REMARK    9  A    between atoms: C_28  and  O_29
REMARK                            x       y       z     vdW  Elec       q    Type
REMARK                         _______ _______ _______ _____ _____    ______ ____
ROOT
ATOM      1  N   UNL     1       2.048   7.604  19.348  0.00  0.00    +0.000 N 
ATOM      2  C   UNL     1       2.546   8.571  18.356  0.00  0.00    +0.000 C 
ATOM      3  C   UNL     1       1.384   9.502  17.972  0.00  0.00    +0.000 C 
ATOM      4  N   UNL     1       0.813  10.160  19.157  0.00  0.00    +0.000 N 
ATOM      5  C   UNL     1       0.761  11.542  19.196  0.00  0.00    +0.000 C 
ATOM      6  O   UNL     1       1.240  12.231  18.289  0.00  0.00    +0.000 OA
ATOM      7  C   UNL     1       0.414   9.228  20.233  0.00  0.00    +0.000 C 
ATOM      8  C   UNL     1       1.543   8.231  20.588  0.00  0.00    +0.000 C 
ENDROOT
BRANCH   1  11
ATOM      9  C   UNL     1       4.224   4.636  18.766  0.00  0.00    +0.000 A 
ATOM     10  C   UNL     1       3.723   5.944  18.695  0.00  0.00    +0.000 A 
ATOM     11  C   UNL     1       2.605   6.339  19.435  0.00  0.00    +0.000 A 
ATOM     12  C   UNL     1       1.974   5.371  20.228  0.00  0.00    +0.000 A 
ATOM     13  C   UNL     1       2.395   4.030  20.256  0.00  0.00    +0.000 A 
ATOM     14  C   UNL     1       3.549   3.677  19.541  0.00  0.00    +0.000 A 
ATOM     15 CL   UNL     1       4.171   2.059  19.628  0.00  0.00    +0.000 Cl
BRANCH   9  17
ATOM     16  C   UNL     1       5.190   4.194  16.642  0.00  0.00    +0.000 C 
ATOM     17  O   UNL     1       5.327   4.221  18.060  0.00  0.00    +0.000 OA
ENDBRANCH   9  17
BRANCH  13  18
ATOM     18  C   UNL     1       1.565   3.051  21.044  0.00  0.00    +0.000 C 
BRANCH  18  19
ATOM     19  O   UNL     1       2.150   2.782  22.307  0.00  0.00    +0.000 OA
ATOM     20  H   UNL     1       3.066   3.111  22.282  0.00  0.00    +0.000 HD
ENDBRANCH  18  19
ENDBRANCH  13  18
ENDBRANCH   1  11
BRANCH   5  21
ATOM     21  C   UNL     1       0.085  12.231  20.359  0.00  0.00    +0.000 C 
BRANCH  21  22
ATOM     22  N   UNL     1      -1.355  12.258  20.190  0.00  0.00    +0.000 N 
ATOM     23  N   UNL     1      -1.877  11.818  19.025  0.00  0.00    +0.000 NA
ATOM     24  C   UNL     1      -3.207  12.002  19.157  0.00  0.00    +0.000 A 
ATOM     25  C   UNL     1      -3.511  12.573  20.413  0.00  0.00    +0.000 A 
ATOM     26 CL   UNL     1      -5.059  12.961  20.993  0.00  0.00    +0.000 Cl
ATOM     27  C   UNL     1      -2.304  12.749  21.055  0.00  0.00    +0.000 A 
ATOM     28  C   UNL     1      -1.981  13.327  22.385  0.00  0.00    +0.000 C 
BRANCH  24  29
ATOM     29  C   UNL     1      -4.193  11.648  18.084  0.00  0.00    +0.000 C 
ATOM     30  F   UNL     1      -4.872  10.495  18.343  0.00  0.00    +0.000 F 
ATOM     31  F   UNL     1      -5.135  12.615  17.918  0.00  0.00    +0.000 F 
ATOM     32  F   UNL     1      -3.593  11.474  16.875  0.00  0.00    +0.000 F 
ENDBRANCH  24  29
ENDBRANCH  21  22
ENDBRANCH   5  21
TORSDOF 7
ENDMDL
