MODEL 1
REMARK VINA RESULT:      -7.4      0.000      0.000
REMARK  Name = 
REMARK  5 active torsions:
REMARK  status: ('A' for Active; 'I' for Inactive)
REMARK    1  A    between atoms: C_2  and  C_7
REMARK    2  A    between atoms: N_3  and  C_4
REMARK    3  A    between atoms: C_4  and  C_5
REMARK    4  A    between atoms: C_5  and  O_6
REMARK    5  A    between atoms: C_13  and  C_14
REMARK                            x       y       z     vdW  Elec       q    Type
REMARK                         _______ _______ _______ _____ _____    ______ ____
ROOT
ATOM      1  C   UNL     1       3.979   3.893  19.423  0.00  0.00    +0.000 A 
ATOM      2  C   UNL     1       3.826   2.679  20.117  0.00  0.00    +0.000 A 
ATOM      3  C   UNL     1       2.893   2.554  21.151  0.00  0.00    +0.000 A 
ATOM      4  C   UNL     1       2.085   3.628  21.532  0.00  0.00    +0.000 A 
ATOM      5  C   UNL     1       2.241   4.817  20.819  0.00  0.00    +0.000 A 
ATOM      6  N   UNL     1       1.625   6.037  20.915  0.00  0.00    +0.000 N 
ATOM      7  C   UNL     1       2.141   6.882  19.960  0.00  0.00    +0.000 A 
ATOM      8  N   UNL     1       3.060   6.250  19.250  0.00  0.00    +0.000 NA
ATOM      9  C   UNL     1       3.151   4.974  19.775  0.00  0.00    +0.000 A 
ATOM     10  H   UNL     1       0.887   6.270  21.566  0.00  0.00    +0.000 HD
ENDROOT
BRANCH   7  11
ATOM     11  C   UNL     1       1.694   8.258  19.758  0.00  0.00    +0.000 A 
ATOM     12  C   UNL     1       1.816   8.901  18.524  0.00  0.00    +0.000 A 
ATOM     13  C   UNL     1       1.375  10.209  18.413  0.00  0.00    +0.000 A 
ATOM     14  N   UNL     1       0.836  10.907  19.431  0.00  0.00    +0.000 NA
ATOM     15  C   UNL     1       0.713  10.266  20.612  0.00  0.00    +0.000 A 
ATOM     16  C   UNL     1       1.117   8.958  20.821  0.00  0.00    +0.000 A 
ENDBRANCH   7  11
BRANCH   1  18
ATOM     17  O   UNL     1       4.829   3.520  17.259  0.00  0.00    +0.000 OA
ATOM     18  C   UNL     1       5.016   4.009  18.368  0.00  0.00    +0.000 C 
ATOM     19  N   UNL     1       6.178   4.659  18.715  0.00  0.00    +0.000 N 
ATOM     20  H   UNL     1       6.252   5.058  19.650  0.00  0.00    +0.000 HD
BRANCH  19  21
ATOM     21  C   UNL     1       7.318   4.748  17.818  0.00  0.00    +0.000 C 
BRANCH  21  22
ATOM     22  C   UNL     1       7.280   6.033  16.999  0.00  0.00    +0.000 C 
BRANCH  22  23
ATOM     23  O   UNL     1       7.414   5.733  15.608  0.00  0.00    +0.000 OA
ATOM     24  H   UNL     1       7.560   4.771  15.566  0.00  0.00    +0.000 HD
ENDBRANCH  22  23
ENDBRANCH  21  22
ENDBRANCH  19  21
ENDBRANCH   1  18
TORSDOF 5
ENDMDL
MODEL 2
REMARK VINA RESULT:      -7.4      1.080      1.488
REMARK  Name = 
REMARK  5 active torsions:
REMARK  status: ('A' for Active; 'I' for Inactive)
REMARK    1  A    between atoms: C_2  and  C_7
REMARK    2  A    between atoms: N_3  and  C_4
REMARK    3  A    between atoms: C_4  and  C_5
REMARK    4  A    between atoms: C_5  and  O_6
REMARK    5  A    between atoms: C_13  and  C_14
REMARK                            x       y       z     vdW  Elec       q    Type
REMARK                         _______ _______ _______ _____ _____    ______ ____
ROOT
ATOM      1  C   UNL     1       4.190   3.846  19.382  0.00  0.00    +0.000 A 
ATOM      2  C   UNL     1       4.028   2.637  20.083  0.00  0.00    +0.000 A 
ATOM      3  C   UNL     1       3.051   2.505  21.074  0.00  0.00    +0.000 A 
ATOM      4  C   UNL     1       2.206   3.567  21.405  0.00  0.00    +0.000 A 
ATOM      5  C   UNL     1       2.373   4.751  20.686  0.00  0.00    +0.000 A 
ATOM      6  N   UNL     1       1.730   5.960  20.740  0.00  0.00    +0.000 N 
ATOM      7  C   UNL     1       2.275   6.805  19.801  0.00  0.00    +0.000 A 
ATOM      8  N   UNL     1       3.237   6.184  19.141  0.00  0.00    +0.000 NA
ATOM      9  C   UNL     1       3.327   4.915  19.684  0.00  0.00    +0.000 A 
ATOM     10  H   UNL     1       0.958   6.186  21.354  0.00  0.00    +0.000 HD
ENDROOT
BRANCH   7  11
ATOM     11  C   UNL     1       1.812   8.170  19.562  0.00  0.00    +0.000 A 
ATOM     12  C   UNL     1       1.142   8.905  20.544  0.00  0.00    +0.000 A 
ATOM     13  C   UNL     1       0.728  10.191  20.239  0.00  0.00    +0.000 A 
ATOM     14  N   UNL     1       0.929  10.780  19.045  0.00  0.00    +0.000 NA
ATOM     15  C   UNL     1       1.590  10.061  18.114  0.00  0.00    +0.000 A 
ATOM     16  C   UNL     1       2.049   8.772  18.324  0.00  0.00    +0.000 A 
ENDBRANCH   7  11
BRANCH   1  18
ATOM     17  O   UNL     1       6.387   4.361  18.709  0.00  0.00    +0.000 OA
ATOM     18  C   UNL     1       5.273   3.971  18.375  0.00  0.00    +0.000 C 
ATOM     19  N   UNL     1       4.947   3.653  17.077  0.00  0.00    +0.000 N 
ATOM     20  H   UNL     1       4.005   3.315  16.880  0.00  0.00    +0.000 HD
BRANCH  19  21
ATOM     21  C   UNL     1       5.875   3.834  15.974  0.00  0.00    +0.000 C 
BRANCH  21  22
ATOM     22  C   UNL     1       5.765   5.234  15.380  0.00  0.00    +0.000 C 
BRANCH  22  23
ATOM     23  O   UNL     1       6.634   6.131  16.073  0.00  0.00    +0.000 OA
ATOM     24  H   UNL     1       7.477   6.101  15.584  0.00  0.00    +0.000 HD
ENDBRANCH  22  23
ENDBRANCH  21  22
ENDBRANCH  19  21
ENDBRANCH   1  18
TORSDOF 5
ENDMDL
MODEL 3
REMARK VINA RESULT:      -7.4      1.012      1.020
REMARK  Name = 
REMARK  5 active torsions:
REMARK  status: ('A' for Active; 'I' for Inactive)
REMARK    1  A    between atoms: C_2  and  C_7
REMARK    2  A    between atoms: N_3  and  C_4
REMARK    3  A    between atoms: C_4  and  C_5
REMARK    4  A    between atoms: C_5  and  O_6
REMARK    5  A    between atoms: C_13  and  C_14
REMARK                            x       y       z     vdW  Elec       q    Type
REMARK                         _______ _______ _______ _____ _____    ______ ____
ROOT
ATOM      1  C   UNL     1       4.094   3.907  19.366  0.00  0.00    +0.000 A 
ATOM      2  C   UNL     1       3.932   2.715  20.096  0.00  0.00    +0.000 A 
ATOM      3  C   UNL     1       2.973   2.617  21.110  0.00  0.00    +0.000 A 
ATOM      4  C   UNL     1       2.150   3.698  21.435  0.00  0.00    +0.000 A 
ATOM      5  C   UNL     1       2.316   4.864  20.688  0.00  0.00    +0.000 A 
ATOM      6  N   UNL     1       1.691   6.082  20.729  0.00  0.00    +0.000 N 
ATOM      7  C   UNL     1       2.226   6.899  19.760  0.00  0.00    +0.000 A 
ATOM      8  N   UNL     1       3.166   6.251  19.094  0.00  0.00    +0.000 NA
ATOM      9  C   UNL     1       3.251   4.993  19.663  0.00  0.00    +0.000 A 
ATOM     10  H   UNL     1       0.935   6.331  21.353  0.00  0.00    +0.000 HD
ENDROOT
BRANCH   7  11
ATOM     11  C   UNL     1       1.776   8.264  19.502  0.00  0.00    +0.000 A 
ATOM     12  C   UNL     1       1.985   8.892  18.271  0.00  0.00    +0.000 A 
ATOM     13  C   UNL     1       1.535  10.191  18.106  0.00  0.00    +0.000 A 
ATOM     14  N   UNL     1       0.907  10.895  19.068  0.00  0.00    +0.000 NA
ATOM     15  C   UNL     1       0.701  10.269  20.245  0.00  0.00    +0.000 A 
ATOM     16  C   UNL     1       1.107   8.971  20.505  0.00  0.00    +0.000 A 
ENDBRANCH   7  11
BRANCH   1  18
ATOM     17  O   UNL     1       6.327   4.165  18.663  0.00  0.00    +0.000 OA
ATOM     18  C   UNL     1       5.157   3.995  18.334  0.00  0.00    +0.000 C 
ATOM     19  N   UNL     1       4.752   3.902  17.023  0.00  0.00    +0.000 N 
ATOM     20  H   UNL     1       3.764   3.740  16.829  0.00  0.00    +0.000 HD
BRANCH  19  21
ATOM     21  C   UNL     1       5.668   4.082  15.910  0.00  0.00    +0.000 C 
BRANCH  21  22
ATOM     22  C   UNL     1       5.950   5.559  15.656  0.00  0.00    +0.000 C 
BRANCH  22  23
ATOM     23  O   UNL     1       7.281   5.881  16.062  0.00  0.00    +0.000 OA
ATOM     24  H   UNL     1       7.358   5.554  16.976  0.00  0.00    +0.000 HD
ENDBRANCH  22  23
ENDBRANCH  21  22
ENDBRANCH  19  21
ENDBRANCH   1  18
TORSDOF 5
ENDMDL
MODEL 4
REMARK VINA RESULT:      -7.4      0.122      1.032
REMARK  Name = 
REMARK  5 active torsions:
REMARK  status: ('A' for Active; 'I' for Inactive)
REMARK    1  A    between atoms: C_2  and  C_7
REMARK    2  A    between atoms: N_3  and  C_4
REMARK    3  A    between atoms: C_4  and  C_5
REMARK    4  A    between atoms: C_5  and  O_6
REMARK    5  A    between atoms: C_13  and  C_14
REMARK                            x       y       z     vdW  Elec       q    Type
REMARK                         _______ _______ _______ _____ _____    ______ ____
ROOT
ATOM      1  C   UNL     1       3.986   3.847  19.382  0.00  0.00    +0.000 A 
ATOM      2  C   UNL     1       3.847   2.643  20.096  0.00  0.00    +0.000 A 
ATOM      3  C   UNL     1       2.937   2.533  21.152  0.00  0.00    +0.000 A 
ATOM      4  C   UNL     1       2.139   3.614  21.536  0.00  0.00    +0.000 A 
ATOM      5  C   UNL     1       2.281   4.793  20.804  0.00  0.00    +0.000 A 
ATOM      6  N   UNL     1       1.669   6.015  20.898  0.00  0.00    +0.000 N 
ATOM      7  C   UNL     1       2.166   6.846  19.920  0.00  0.00    +0.000 A 
ATOM      8  N   UNL     1       3.067   6.203  19.198  0.00  0.00    +0.000 NA
ATOM      9  C   UNL     1       3.167   4.934  19.738  0.00  0.00    +0.000 A 
ATOM     10  H   UNL     1       0.946   6.258  21.562  0.00  0.00    +0.000 HD
ENDROOT
BRANCH   7  11
ATOM     11  C   UNL     1       1.716   8.220  19.710  0.00  0.00    +0.000 A 
ATOM     12  C   UNL     1       1.093   8.957  20.720  0.00  0.00    +0.000 A 
ATOM     13  C   UNL     1       0.690  10.252  20.441  0.00  0.00    +0.000 A 
ATOM     14  N   UNL     1       0.857  10.848  19.244  0.00  0.00    +0.000 NA
ATOM     15  C   UNL     1       1.473  10.127  18.285  0.00  0.00    +0.000 A 
ATOM     16  C   UNL     1       1.919   8.829  18.468  0.00  0.00    +0.000 A 
ENDBRANCH   7  11
BRANCH   1  18
ATOM     17  O   UNL     1       4.781   3.453  17.201  0.00  0.00    +0.000 OA
ATOM     18  C   UNL     1       4.999   3.946  18.303  0.00  0.00    +0.000 C 
ATOM     19  N   UNL     1       6.175   4.587  18.619  0.00  0.00    +0.000 N 
ATOM     20  H   UNL     1       6.275   4.991  19.550  0.00  0.00    +0.000 HD
BRANCH  19  21
ATOM     21  C   UNL     1       7.294   4.660  17.695  0.00  0.00    +0.000 C 
BRANCH  21  22
ATOM     22  C   UNL     1       7.221   5.915  16.833  0.00  0.00    +0.000 C 
BRANCH  22  23
ATOM     23  O   UNL     1       7.518   5.594  15.473  0.00  0.00    +0.000 OA
ATOM     24  H   UNL     1       7.772   4.654  15.480  0.00  0.00    +0.000 HD
ENDBRANCH  22  23
ENDBRANCH  21  22
ENDBRANCH  19  21
ENDBRANCH   1  18
TORSDOF 5
ENDMDL
MODEL 5
REMARK VINA RESULT:      -7.3      2.284      4.292
REMARK  Name = 
REMARK  5 active torsions:
REMARK  status: ('A' for Active; 'I' for Inactive)
REMARK    1  A    between atoms: C_2  and  C_7
REMARK    2  A    between atoms: N_3  and  C_4
REMARK    3  A    between atoms: C_4  and  C_5
REMARK    4  A    between atoms: C_5  and  O_6
REMARK    5  A    between atoms: C_13  and  C_14
REMARK                            x       y       z     vdW  Elec       q    Type
REMARK                         _______ _______ _______ _____ _____    ______ ____
ROOT
ATOM      1  C   UNL     1       3.807   4.021  17.496  0.00  0.00    +0.000 A 
ATOM      2  C   UNL     1       4.880   3.641  16.670  0.00  0.00    +0.000 A 
ATOM      3  C   UNL     1       5.660   4.600  16.016  0.00  0.00    +0.000 A 
ATOM      4  C   UNL     1       5.399   5.965  16.157  0.00  0.00    +0.000 A 
ATOM      5  C   UNL     1       4.341   6.320  16.993  0.00  0.00    +0.000 A 
ATOM      6  N   UNL     1       3.822   7.535  17.357  0.00  0.00    +0.000 N 
ATOM      7  C   UNL     1       2.772   7.337  18.224  0.00  0.00    +0.000 A 
ATOM      8  N   UNL     1       2.601   6.044  18.437  0.00  0.00    +0.000 NA
ATOM      9  C   UNL     1       3.551   5.394  17.670  0.00  0.00    +0.000 A 
ATOM     10  H   UNL     1       4.174   8.435  17.059  0.00  0.00    +0.000 HD
ENDROOT
BRANCH   7  11
ATOM     11  C   UNL     1       2.003   8.418  18.836  0.00  0.00    +0.000 A 
ATOM     12  C   UNL     1       1.551   8.349  20.157  0.00  0.00    +0.000 A 
ATOM     13  C   UNL     1       0.822   9.411  20.663  0.00  0.00    +0.000 A 
ATOM     14  N   UNL     1       0.513  10.514  19.954  0.00  0.00    +0.000 NA
ATOM     15  C   UNL     1       0.969  10.571  18.685  0.00  0.00    +0.000 A 
ATOM     16  C   UNL     1       1.711   9.564  18.091  0.00  0.00    +0.000 A 
ENDBRANCH   7  11
BRANCH   1  18
ATOM     17  O   UNL     1       2.781   1.903  17.569  0.00  0.00    +0.000 OA
ATOM     18  C   UNL     1       2.965   2.978  18.131  0.00  0.00    +0.000 C 
ATOM     19  N   UNL     1       2.400   3.296  19.345  0.00  0.00    +0.000 N 
ATOM     20  H   UNL     1       2.616   4.202  19.760  0.00  0.00    +0.000 HD
BRANCH  19  21
ATOM     21  C   UNL     1       1.468   2.413  20.025  0.00  0.00    +0.000 C 
BRANCH  21  22
ATOM     22  C   UNL     1       1.454   2.672  21.528  0.00  0.00    +0.000 C 
BRANCH  22  23
ATOM     23  O   UNL     1       2.768   2.509  22.066  0.00  0.00    +0.000 OA
ATOM     24  H   UNL     1       2.996   1.575  21.908  0.00  0.00    +0.000 HD
ENDBRANCH  22  23
ENDBRANCH  21  22
ENDBRANCH  19  21
ENDBRANCH   1  18
TORSDOF 5
ENDMDL
MODEL 6
REMARK VINA RESULT:      -7.2      2.057      4.126
REMARK  Name = 
REMARK  5 active torsions:
REMARK  status: ('A' for Active; 'I' for Inactive)
REMARK    1  A    between atoms: C_2  and  C_7
REMARK    2  A    between atoms: N_3  and  C_4
REMARK    3  A    between atoms: C_4  and  C_5
REMARK    4  A    between atoms: C_5  and  O_6
REMARK    5  A    between atoms: C_13  and  C_14
REMARK                            x       y       z     vdW  Elec       q    Type
REMARK                         _______ _______ _______ _____ _____    ______ ____
ROOT
ATOM      1  C   UNL     1       4.372   4.569  18.101  0.00  0.00    +0.000 A 
ATOM      2  C   UNL     1       5.377   4.297  17.155  0.00  0.00    +0.000 A 
ATOM      3  C   UNL     1       5.770   5.264  16.224  0.00  0.00    +0.000 A 
ATOM      4  C   UNL     1       5.176   6.528  16.198  0.00  0.00    +0.000 A 
ATOM      5  C   UNL     1       4.194   6.782  17.155  0.00  0.00    +0.000 A 
ATOM      6  N   UNL     1       3.428   7.887  17.418  0.00  0.00    +0.000 N 
ATOM      7  C   UNL     1       2.606   7.623  18.489  0.00  0.00    +0.000 A 
ATOM      8  N   UNL     1       2.818   6.394  18.928  0.00  0.00    +0.000 NA
ATOM      9  C   UNL     1       3.787   5.848  18.105  0.00  0.00    +0.000 A 
ATOM     10  H   UNL     1       3.480   8.767  16.923  0.00  0.00    +0.000 HD
ENDROOT
BRANCH   7  11
ATOM     11  C   UNL     1       1.672   8.590  19.061  0.00  0.00    +0.000 A 
ATOM     12  C   UNL     1       1.070   9.584  18.285  0.00  0.00    +0.000 A 
ATOM     13  C   UNL     1       0.200  10.469  18.901  0.00  0.00    +0.000 A 
ATOM     14  N   UNL     1      -0.100  10.433  20.214  0.00  0.00    +0.000 NA
ATOM     15  C   UNL     1       0.480   9.457  20.945  0.00  0.00    +0.000 A 
ATOM     16  C   UNL     1       1.356   8.523  20.421  0.00  0.00    +0.000 A 
ENDBRANCH   7  11
BRANCH   1  18
ATOM     17  O   UNL     1       4.774   2.840  19.648  0.00  0.00    +0.000 OA
ATOM     18  C   UNL     1       3.941   3.504  19.039  0.00  0.00    +0.000 C 
ATOM     19  N   UNL     1       2.585   3.299  19.158  0.00  0.00    +0.000 N 
ATOM     20  H   UNL     1       1.953   3.905  18.636  0.00  0.00    +0.000 HD
BRANCH  19  21
ATOM     21  C   UNL     1       2.028   2.219  19.955  0.00  0.00    +0.000 C 
BRANCH  21  22
ATOM     22  C   UNL     1       1.425   2.742  21.254  0.00  0.00    +0.000 C 
BRANCH  22  23
ATOM     23  O   UNL     1       2.449   2.917  22.235  0.00  0.00    +0.000 OA
ATOM     24  H   UNL     1       3.175   2.330  21.957  0.00  0.00    +0.000 HD
ENDBRANCH  22  23
ENDBRANCH  21  22
ENDBRANCH  19  21
ENDBRANCH   1  18
TORSDOF 5
ENDMDL
MODEL 7
REMARK VINA RESULT:      -7.2      1.086      1.508
REMARK  Name = 
REMARK  5 active torsions:
REMARK  status: ('A' for Active; 'I' for Inactive)
REMARK    1  A    between atoms: C_2  and  C_7
REMARK    2  A    between atoms: N_3  and  C_4
REMARK    3  A    between atoms: C_4  and  C_5
REMARK    4  A    between atoms: C_5  and  O_6
REMARK    5  A    between atoms: C_13  and  C_14
REMARK                            x       y       z     vdW  Elec       q    Type
REMARK                         _______ _______ _______ _____ _____    ______ ____
ROOT
ATOM      1  C   UNL     1       3.404   3.512  19.214  0.00  0.00    +0.000 A 
ATOM      2  C   UNL     1       3.306   2.432  20.111  0.00  0.00    +0.000 A 
ATOM      3  C   UNL     1       2.678   2.582  21.351  0.00  0.00    +0.000 A 
ATOM      4  C   UNL     1       2.131   3.806  21.744  0.00  0.00    +0.000 A 
ATOM      5  C   UNL     1       2.225   4.858  20.833  0.00  0.00    +0.000 A 
ATOM      6  N   UNL     1       1.801   6.161  20.883  0.00  0.00    +0.000 N 
ATOM      7  C   UNL     1       2.135   6.790  19.706  0.00  0.00    +0.000 A 
ATOM      8  N   UNL     1       2.749   5.942  18.899  0.00  0.00    +0.000 NA
ATOM      9  C   UNL     1       2.831   4.743  19.584  0.00  0.00    +0.000 A 
ATOM     10  H   UNL     1       1.298   6.583  21.651  0.00  0.00    +0.000 HD
ENDROOT
BRANCH   7  11
ATOM     11  C   UNL     1       1.811   8.182  19.403  0.00  0.00    +0.000 A 
ATOM     12  C   UNL     1       1.115   8.992  20.304  0.00  0.00    +0.000 A 
ATOM     13  C   UNL     1       0.840  10.300  19.942  0.00  0.00    +0.000 A 
ATOM     14  N   UNL     1       1.199  10.842  18.762  0.00  0.00    +0.000 NA
ATOM     15  C   UNL     1       1.882  10.050  17.910  0.00  0.00    +0.000 A 
ATOM     16  C   UNL     1       2.211   8.733  18.183  0.00  0.00    +0.000 A 
ENDBRANCH   7  11
BRANCH   1  18
ATOM     17  O   UNL     1       4.002   2.296  17.288  0.00  0.00    +0.000 OA
ATOM     18  C   UNL     1       4.125   3.335  17.929  0.00  0.00    +0.000 C 
ATOM     19  N   UNL     1       4.936   4.372  17.529  0.00  0.00    +0.000 N 
ATOM     20  H   UNL     1       4.970   5.213  18.105  0.00  0.00    +0.000 HD
BRANCH  19  21
ATOM     21  C   UNL     1       5.782   4.289  16.352  0.00  0.00    +0.000 C 
BRANCH  21  22
ATOM     22  C   UNL     1       7.248   4.514  16.705  0.00  0.00    +0.000 C 
BRANCH  22  23
ATOM     23  O   UNL     1       7.469   4.234  18.088  0.00  0.00    +0.000 OA
ATOM     24  H   UNL     1       7.439   5.100  18.534  0.00  0.00    +0.000 HD
ENDBRANCH  22  23
ENDBRANCH  21  22
ENDBRANCH  19  21
ENDBRANCH   1  18
TORSDOF 5
ENDMDL
MODEL 8
REMARK VINA RESULT:      -7.0      2.871      5.972
REMARK  Name = 
REMARK  5 active torsions:
REMARK  status: ('A' for Active; 'I' for Inactive)
REMARK    1  A    between atoms: C_2  and  C_7
REMARK    2  A    between atoms: N_3  and  C_4
REMARK    3  A    between atoms: C_4  and  C_5
REMARK    4  A    between atoms: C_5  and  O_6
REMARK    5  A    between atoms: C_13  and  C_14
REMARK                            x       y       z     vdW  Elec       q    Type
REMARK                         _______ _______ _______ _____ _____    ______ ____
ROOT
ATOM      1  C   UNL     1       2.057   4.924  19.785  0.00  0.00    +0.000 A 
ATOM      2  C   UNL     1       1.283   3.974  20.475  0.00  0.00    +0.000 A 
ATOM      3  C   UNL     1       1.405   2.609  20.198  0.00  0.00    +0.000 A 
ATOM      4  C   UNL     1       2.293   2.143  19.226  0.00  0.00    +0.000 A 
ATOM      5  C   UNL     1       3.063   3.101  18.565  0.00  0.00    +0.000 A 
ATOM      6  N   UNL     1       4.015   3.002  17.586  0.00  0.00    +0.000 N 
ATOM      7  C   UNL     1       4.484   4.259  17.282  0.00  0.00    +0.000 A 
ATOM      8  N   UNL     1       3.876   5.161  18.034  0.00  0.00    +0.000 NA
ATOM      9  C   UNL     1       2.978   4.467  18.824  0.00  0.00    +0.000 A 
ATOM     10  H   UNL     1       4.342   2.139  17.172  0.00  0.00    +0.000 HD
ENDROOT
BRANCH   7  11
ATOM     11  C   UNL     1       5.530   4.526  16.298  0.00  0.00    +0.000 A 
ATOM     12  C   UNL     1       6.687   5.239  16.623  0.00  0.00    +0.000 A 
ATOM     13  C   UNL     1       7.630   5.456  15.632  0.00  0.00    +0.000 A 
ATOM     14  N   UNL     1       7.498   5.025  14.363  0.00  0.00    +0.000 NA
ATOM     15  C   UNL     1       6.381   4.326  14.070  0.00  0.00    +0.000 A 
ATOM     16  C   UNL     1       5.385   4.051  14.992  0.00  0.00    +0.000 A 
ENDBRANCH   7  11
BRANCH   1  18
ATOM     17  O   UNL     1       1.416   6.736  21.146  0.00  0.00    +0.000 OA
ATOM     18  C   UNL     1       1.865   6.369  20.065  0.00  0.00    +0.000 C 
ATOM     19  N   UNL     1       2.190   7.241  19.052  0.00  0.00    +0.000 N 
ATOM     20  H   UNL     1       2.579   6.862  18.188  0.00  0.00    +0.000 HD
BRANCH  19  21
ATOM     21  C   UNL     1       1.949   8.671  19.148  0.00  0.00    +0.000 C 
BRANCH  21  22
ATOM     22  C   UNL     1       1.273   9.205  17.891  0.00  0.00    +0.000 C 
BRANCH  22  23
ATOM     23  O   UNL     1       2.009  10.314  17.371  0.00  0.00    +0.000 OA
ATOM     24  H   UNL     1       2.177  10.095  16.436  0.00  0.00    +0.000 HD
ENDBRANCH  22  23
ENDBRANCH  21  22
ENDBRANCH  19  21
ENDBRANCH   1  18
TORSDOF 5
ENDMDL
MODEL 9
REMARK VINA RESULT:      -7.0      2.912      5.905
REMARK  Name = 
REMARK  5 active torsions:
REMARK  status: ('A' for Active; 'I' for Inactive)
REMARK    1  A    between atoms: C_2  and  C_7
REMARK    2  A    between atoms: N_3  and  C_4
REMARK    3  A    between atoms: C_4  and  C_5
REMARK    4  A    between atoms: C_5  and  O_6
REMARK    5  A    between atoms: C_13  and  C_14
REMARK                            x       y       z     vdW  Elec       q    Type
REMARK                         _______ _______ _______ _____ _____    ______ ____
ROOT
ATOM      1  C   UNL     1       1.928   5.039  19.851  0.00  0.00    +0.000 A 
ATOM      2  C   UNL     1       1.131   4.113  20.549  0.00  0.00    +0.000 A 
ATOM      3  C   UNL     1       1.219   2.743  20.281  0.00  0.00    +0.000 A 
ATOM      4  C   UNL     1       2.095   2.249  19.312  0.00  0.00    +0.000 A 
ATOM      5  C   UNL     1       2.887   3.183  18.644  0.00  0.00    +0.000 A 
ATOM      6  N   UNL     1       3.837   3.054  17.665  0.00  0.00    +0.000 N 
ATOM      7  C   UNL     1       4.337   4.297  17.353  0.00  0.00    +0.000 A 
ATOM      8  N   UNL     1       3.751   5.218  18.097  0.00  0.00    +0.000 NA
ATOM      9  C   UNL     1       2.837   4.553  18.894  0.00  0.00    +0.000 A 
ATOM     10  H   UNL     1       4.142   2.180  17.258  0.00  0.00    +0.000 HD
ENDROOT
BRANCH   7  11
ATOM     11  C   UNL     1       5.388   4.530  16.366  0.00  0.00    +0.000 A 
ATOM     12  C   UNL     1       5.278   4.080  15.047  0.00  0.00    +0.000 A 
ATOM     13  C   UNL     1       6.321   4.335  14.172  0.00  0.00    +0.000 A 
ATOM     14  N   UNL     1       7.446   4.991  14.517  0.00  0.00    +0.000 NA
ATOM     15  C   UNL     1       7.530   5.430  15.791  0.00  0.00    +0.000 A 
ATOM     16  C   UNL     1       6.539   5.231  16.737  0.00  0.00    +0.000 A 
ENDBRANCH   7  11
BRANCH   1  18
ATOM     17  O   UNL     1       1.349   6.877  21.205  0.00  0.00    +0.000 OA
ATOM     18  C   UNL     1       1.772   6.490  20.120  0.00  0.00    +0.000 C 
ATOM     19  N   UNL     1       2.098   7.346  19.094  0.00  0.00    +0.000 N 
ATOM     20  H   UNL     1       2.463   6.951  18.227  0.00  0.00    +0.000 HD
BRANCH  19  21
ATOM     21  C   UNL     1       1.889   8.781  19.181  0.00  0.00    +0.000 C 
BRANCH  21  22
ATOM     22  C   UNL     1       1.621   9.387  17.807  0.00  0.00    +0.000 C 
BRANCH  22  23
ATOM     23  O   UNL     1       2.036  10.754  17.784  0.00  0.00    +0.000 OA
ATOM     24  H   UNL     1       1.214  11.271  17.701  0.00  0.00    +0.000 HD
ENDBRANCH  22  23
ENDBRANCH  21  22
ENDBRANCH  19  21
ENDBRANCH   1  18
TORSDOF 5
ENDMDL
