MODEL 1
REMARK VINA RESULT:      -7.0      0.000      0.000
REMARK  Name = 
REMARK  6 active torsions:
REMARK  status: ('A' for Active; 'I' for Inactive)
REMARK    1  A    between atoms: C_1  and  O_2
REMARK    2  A    between atoms: O_2  and  C_3
REMARK    3  A    between atoms: C_6  and  N_7
REMARK    4  A    between atoms: N_10  and  C_11
REMARK    5  A    between atoms: C_13  and  C_14
REMARK    6  A    between atoms: C_16  and  C_17
REMARK                            x       y       z     vdW  Elec       q    Type
REMARK                         _______ _______ _______ _____ _____    ______ ____
ROOT
ATOM      1  N   UNL     1       8.919   8.657  18.959  0.00  0.00    +0.000 N 
ATOM      2  C   UNL     1       7.947   8.120  18.135  0.00  0.00    +0.000 C 
ATOM      3  O   UNL     1       7.295   8.774  17.324  0.00  0.00    +0.000 OA
ATOM      4  N   UNL     1       7.750   6.759  18.324  0.00  0.00    +0.000 N 
ATOM      5  H   UNL     1       9.488   8.007  19.475  0.00  0.00    +0.000 HD
ATOM      6  H   UNL     1       7.785   6.468  19.290  0.00  0.00    +0.000 HD
ENDROOT
BRANCH   4   7
ATOM      7  C   UNL     1       6.752   6.137  17.526  0.00  0.00    +0.000 A 
ATOM      8  C   UNL     1       5.475   5.904  18.056  0.00  0.00    +0.000 A 
ATOM      9  C   UNL     1       4.547   5.116  17.371  0.00  0.00    +0.000 A 
ATOM     10  C   UNL     1       3.210   4.808  17.976  0.00  0.00    +0.000 C 
ATOM     11  C   UNL     1       4.910   4.565  16.139  0.00  0.00    +0.000 A 
ATOM     12  C   UNL     1       6.172   4.818  15.579  0.00  0.00    +0.000 A 
ATOM     13  C   UNL     1       6.575   4.155  14.295  0.00  0.00    +0.000 C 
ATOM     14  C   UNL     1       7.082   5.639  16.265  0.00  0.00    +0.000 A 
ENDBRANCH   4   7
BRANCH   1  18
ATOM     15  C   UNL     1       9.845  12.714  19.295  0.00  0.00    +0.000 A 
ATOM     16  C   UNL     1       9.914  12.153  18.037  0.00  0.00    +0.000 A 
ATOM     17  C   UNL     1       9.612  10.801  17.903  0.00  0.00    +0.000 A 
ATOM     18  C   UNL     1       9.257  10.034  19.016  0.00  0.00    +0.000 A 
ATOM     19  C   UNL     1       9.231  10.702  20.237  0.00  0.00    +0.000 A 
ATOM     20  N   UNL     1       9.511  12.020  20.405  0.00  0.00    +0.000 NA
BRANCH  15  22
ATOM     21  C   UNL     1       9.355  14.845  18.487  0.00  0.00    +0.000 C 
ATOM     22  O   UNL     1      10.140  14.060  19.375  0.00  0.00    +0.000 OA
ENDBRANCH  15  22
ENDBRANCH   1  18
TORSDOF 3
ENDMDL
MODEL 2
REMARK VINA RESULT:      -6.9      0.562      2.006
REMARK  Name = 
REMARK  6 active torsions:
REMARK  status: ('A' for Active; 'I' for Inactive)
REMARK    1  A    between atoms: C_1  and  O_2
REMARK    2  A    between atoms: O_2  and  C_3
REMARK    3  A    between atoms: C_6  and  N_7
REMARK    4  A    between atoms: N_10  and  C_11
REMARK    5  A    between atoms: C_13  and  C_14
REMARK    6  A    between atoms: C_16  and  C_17
REMARK                            x       y       z     vdW  Elec       q    Type
REMARK                         _______ _______ _______ _____ _____    ______ ____
ROOT
ATOM      1  N   UNL     1       8.939   8.647  19.048  0.00  0.00    +0.000 N 
ATOM      2  C   UNL     1       8.017   8.009  18.239  0.00  0.00    +0.000 C 
ATOM      3  O   UNL     1       7.345   8.578  17.382  0.00  0.00    +0.000 OA
ATOM      4  N   UNL     1       7.894   6.652  18.502  0.00  0.00    +0.000 N 
ATOM      5  H   UNL     1       9.535   8.061  19.609  0.00  0.00    +0.000 HD
ATOM      6  H   UNL     1       7.926   6.418  19.484  0.00  0.00    +0.000 HD
ENDROOT
BRANCH   4   7
ATOM      7  C   UNL     1       6.949   5.929  17.724  0.00  0.00    +0.000 A 
ATOM      8  C   UNL     1       7.294   5.481  16.440  0.00  0.00    +0.000 A 
ATOM      9  C   UNL     1       6.326   4.954  15.580  0.00  0.00    +0.000 A 
ATOM     10  C   UNL     1       6.685   4.546  14.184  0.00  0.00    +0.000 C 
ATOM     11  C   UNL     1       5.003   4.874  16.024  0.00  0.00    +0.000 A 
ATOM     12  C   UNL     1       4.649   5.287  17.319  0.00  0.00    +0.000 A 
ATOM     13  C   UNL     1       3.213   5.268  17.751  0.00  0.00    +0.000 C 
ATOM     14  C   UNL     1       5.640   5.784  18.182  0.00  0.00    +0.000 A 
ENDBRANCH   4   7
BRANCH   1  18
ATOM     15  C   UNL     1       9.644  12.760  19.175  0.00  0.00    +0.000 A 
ATOM     16  C   UNL     1       9.631  12.160  17.933  0.00  0.00    +0.000 A 
ATOM     17  C   UNL     1       9.400  10.789  17.869  0.00  0.00    +0.000 A 
ATOM     18  C   UNL     1       9.197  10.042  19.032  0.00  0.00    +0.000 A 
ATOM     19  C   UNL     1       9.244  10.750  20.230  0.00  0.00    +0.000 A 
ATOM     20  N   UNL     1       9.458  12.086  20.332  0.00  0.00    +0.000 NA
BRANCH  15  22
ATOM     21  C   UNL     1      11.083  14.473  19.829  0.00  0.00    +0.000 C 
ATOM     22  O   UNL     1       9.864  14.123  19.188  0.00  0.00    +0.000 OA
ENDBRANCH  15  22
ENDBRANCH   1  18
TORSDOF 3
ENDMDL
MODEL 3
REMARK VINA RESULT:      -6.8      0.662      1.090
REMARK  Name = 
REMARK  6 active torsions:
REMARK  status: ('A' for Active; 'I' for Inactive)
REMARK    1  A    between atoms: C_1  and  O_2
REMARK    2  A    between atoms: O_2  and  C_3
REMARK    3  A    between atoms: C_6  and  N_7
REMARK    4  A    between atoms: N_10  and  C_11
REMARK    5  A    between atoms: C_13  and  C_14
REMARK    6  A    between atoms: C_16  and  C_17
REMARK                            x       y       z     vdW  Elec       q    Type
REMARK                         _______ _______ _______ _____ _____    ______ ____
ROOT
ATOM      1  N   UNL     1       8.914   8.663  18.951  0.00  0.00    +0.000 N 
ATOM      2  C   UNL     1       7.935   8.158  18.116  0.00  0.00    +0.000 C 
ATOM      3  O   UNL     1       7.263   8.846  17.351  0.00  0.00    +0.000 OA
ATOM      4  N   UNL     1       7.755   6.788  18.237  0.00  0.00    +0.000 N 
ATOM      5  H   UNL     1       9.499   7.993  19.424  0.00  0.00    +0.000 HD
ATOM      6  H   UNL     1       7.809   6.448  19.187  0.00  0.00    +0.000 HD
ENDROOT
BRANCH   4   7
ATOM      7  C   UNL     1       6.750   6.197  17.424  0.00  0.00    +0.000 A 
ATOM      8  C   UNL     1       5.445   6.050  17.918  0.00  0.00    +0.000 A 
ATOM      9  C   UNL     1       4.497   5.293  17.225  0.00  0.00    +0.000 A 
ATOM     10  C   UNL     1       3.127   5.078  17.793  0.00  0.00    +0.000 C 
ATOM     11  C   UNL     1       4.869   4.685  16.023  0.00  0.00    +0.000 A 
ATOM     12  C   UNL     1       6.161   4.850  15.499  0.00  0.00    +0.000 A 
ATOM     13  C   UNL     1       6.568   4.127  14.249  0.00  0.00    +0.000 C 
ATOM     14  C   UNL     1       7.093   5.642  16.191  0.00  0.00    +0.000 A 
ENDBRANCH   4   7
BRANCH   1  18
ATOM     15  C   UNL     1       9.931  12.708  19.137  0.00  0.00    +0.000 A 
ATOM     16  C   UNL     1       9.660  12.070  20.329  0.00  0.00    +0.000 A 
ATOM     17  C   UNL     1       9.316  10.722  20.289  0.00  0.00    +0.000 A 
ATOM     18  C   UNL     1       9.240  10.039  19.073  0.00  0.00    +0.000 A 
ATOM     19  C   UNL     1       9.523  10.786  17.932  0.00  0.00    +0.000 A 
ATOM     20  N   UNL     1       9.869  12.098  17.933  0.00  0.00    +0.000 NA
BRANCH  15  22
ATOM     21  C   UNL     1       9.148  14.901  19.241  0.00  0.00    +0.000 C 
ATOM     22  O   UNL     1      10.280  14.041  19.229  0.00  0.00    +0.000 OA
ENDBRANCH  15  22
ENDBRANCH   1  18
TORSDOF 3
ENDMDL
MODEL 4
REMARK VINA RESULT:      -6.8      0.797      2.252
REMARK  Name = 
REMARK  6 active torsions:
REMARK  status: ('A' for Active; 'I' for Inactive)
REMARK    1  A    between atoms: C_1  and  O_2
REMARK    2  A    between atoms: O_2  and  C_3
REMARK    3  A    between atoms: C_6  and  N_7
REMARK    4  A    between atoms: N_10  and  C_11
REMARK    5  A    between atoms: C_13  and  C_14
REMARK    6  A    between atoms: C_16  and  C_17
REMARK                            x       y       z     vdW  Elec       q    Type
REMARK                         _______ _______ _______ _____ _____    ______ ____
ROOT
ATOM      1  N   UNL     1       8.957   8.668  19.075  0.00  0.00    +0.000 N 
ATOM      2  C   UNL     1       8.031   8.039  18.263  0.00  0.00    +0.000 C 
ATOM      3  O   UNL     1       7.345   8.621  17.426  0.00  0.00    +0.000 OA
ATOM      4  N   UNL     1       7.924   6.676  18.497  0.00  0.00    +0.000 N 
ATOM      5  H   UNL     1       9.564   8.075  19.618  0.00  0.00    +0.000 HD
ATOM      6  H   UNL     1       7.969   6.421  19.473  0.00  0.00    +0.000 HD
ENDROOT
BRANCH   4   7
ATOM      7  C   UNL     1       6.976   5.962  17.714  0.00  0.00    +0.000 A 
ATOM      8  C   UNL     1       7.318   5.525  16.426  0.00  0.00    +0.000 A 
ATOM      9  C   UNL     1       6.349   5.008  15.563  0.00  0.00    +0.000 A 
ATOM     10  C   UNL     1       6.705   4.612  14.162  0.00  0.00    +0.000 C 
ATOM     11  C   UNL     1       5.026   4.925  16.007  0.00  0.00    +0.000 A 
ATOM     12  C   UNL     1       4.675   5.326  17.306  0.00  0.00    +0.000 A 
ATOM     13  C   UNL     1       3.239   5.305  17.741  0.00  0.00    +0.000 C 
ATOM     14  C   UNL     1       5.667   5.814  18.173  0.00  0.00    +0.000 A 
ENDBRANCH   4   7
BRANCH   1  18
ATOM     15  C   UNL     1       9.728  12.769  18.932  0.00  0.00    +0.000 A 
ATOM     16  C   UNL     1       9.578  12.198  20.179  0.00  0.00    +0.000 A 
ATOM     17  C   UNL     1       9.318  10.832  20.249  0.00  0.00    +0.000 A 
ATOM     18  C   UNL     1       9.203  10.065  19.087  0.00  0.00    +0.000 A 
ATOM     19  C   UNL     1       9.361  10.750  17.884  0.00  0.00    +0.000 A 
ATOM     20  N   UNL     1       9.623  12.077  17.776  0.00  0.00    +0.000 NA
BRANCH  15  22
ATOM     21  C   UNL     1      10.866  14.492  17.851  0.00  0.00    +0.000 C 
ATOM     22  O   UNL     1       9.997  14.122  18.914  0.00  0.00    +0.000 OA
ENDBRANCH  15  22
ENDBRANCH   1  18
TORSDOF 3
ENDMDL
MODEL 5
REMARK VINA RESULT:      -6.7      1.878      8.225
REMARK  Name = 
REMARK  6 active torsions:
REMARK  status: ('A' for Active; 'I' for Inactive)
REMARK    1  A    between atoms: C_1  and  O_2
REMARK    2  A    between atoms: O_2  and  C_3
REMARK    3  A    between atoms: C_6  and  N_7
REMARK    4  A    between atoms: N_10  and  C_11
REMARK    5  A    between atoms: C_13  and  C_14
REMARK    6  A    between atoms: C_16  and  C_17
REMARK                            x       y       z     vdW  Elec       q    Type
REMARK                         _______ _______ _______ _____ _____    ______ ____
ROOT
ATOM      1  N   UNL     1       8.570   7.739  18.946  0.00  0.00    +0.000 N 
ATOM      2  C   UNL     1       8.615   9.082  18.624  0.00  0.00    +0.000 C 
ATOM      3  O   UNL     1       7.901   9.610  17.774  0.00  0.00    +0.000 OA
ATOM      4  N   UNL     1       9.572   9.791  19.336  0.00  0.00    +0.000 N 
ATOM      5  H   UNL     1       9.093   7.447  19.755  0.00  0.00    +0.000 HD
ATOM      6  H   UNL     1      10.440   9.292  19.470  0.00  0.00    +0.000 HD
ENDROOT
BRANCH   4   7
ATOM      7  C   UNL     1       9.694  11.177  19.045  0.00  0.00    +0.000 A 
ATOM      8  C   UNL     1      10.421  11.597  17.921  0.00  0.00    +0.000 A 
ATOM      9  C   UNL     1      10.729  12.946  17.728  0.00  0.00    +0.000 A 
ATOM     10  C   UNL     1      11.569  13.380  16.566  0.00  0.00    +0.000 C 
ATOM     11  C   UNL     1      10.293  13.878  18.675  0.00  0.00    +0.000 A 
ATOM     12  C   UNL     1       9.535  13.477  19.787  0.00  0.00    +0.000 A 
ATOM     13  C   UNL     1       9.143  14.478  20.833  0.00  0.00    +0.000 C 
ATOM     14  C   UNL     1       9.206  12.121  19.949  0.00  0.00    +0.000 A 
ENDBRANCH   4   7
BRANCH   1  18
ATOM     15  C   UNL     1       6.202   4.798  17.163  0.00  0.00    +0.000 A 
ATOM     16  C   UNL     1       6.124   6.073  16.641  0.00  0.00    +0.000 A 
ATOM     17  C   UNL     1       6.903   7.069  17.223  0.00  0.00    +0.000 A 
ATOM     18  C   UNL     1       7.733   6.785  18.311  0.00  0.00    +0.000 A 
ATOM     19  C   UNL     1       7.723   5.466  18.760  0.00  0.00    +0.000 A 
ATOM     20  N   UNL     1       6.984   4.468  18.214  0.00  0.00    +0.000 NA
BRANCH  15  22
ATOM     21  C   UNL     1       4.099   3.798  17.065  0.00  0.00    +0.000 C 
ATOM     22  O   UNL     1       5.421   3.843  16.544  0.00  0.00    +0.000 OA
ENDBRANCH  15  22
ENDBRANCH   1  18
TORSDOF 3
ENDMDL
MODEL 6
REMARK VINA RESULT:      -6.6      6.424      7.794
REMARK  Name = 
REMARK  6 active torsions:
REMARK  status: ('A' for Active; 'I' for Inactive)
REMARK    1  A    between atoms: C_1  and  O_2
REMARK    2  A    between atoms: O_2  and  C_3
REMARK    3  A    between atoms: C_6  and  N_7
REMARK    4  A    between atoms: N_10  and  C_11
REMARK    5  A    between atoms: C_13  and  C_14
REMARK    6  A    between atoms: C_16  and  C_17
REMARK                            x       y       z     vdW  Elec       q    Type
REMARK                         _______ _______ _______ _____ _____    ______ ____
ROOT
ATOM      1  N   UNL     1       1.589   8.379  21.605  0.00  0.00    +0.000 N 
ATOM      2  C   UNL     1       1.802   7.781  20.377  0.00  0.00    +0.000 C 
ATOM      3  O   UNL     1       1.322   8.188  19.322  0.00  0.00    +0.000 OA
ATOM      4  N   UNL     1       2.598   6.646  20.443  0.00  0.00    +0.000 N 
ATOM      5  H   UNL     1       2.148   8.049  22.375  0.00  0.00    +0.000 HD
ATOM      6  H   UNL     1       2.414   6.061  21.245  0.00  0.00    +0.000 HD
ENDROOT
BRANCH   4   7
ATOM      7  C   UNL     1       2.847   5.963  19.222  0.00  0.00    +0.000 A 
ATOM      8  C   UNL     1       2.332   4.673  19.022  0.00  0.00    +0.000 A 
ATOM      9  C   UNL     1       2.731   3.904  17.926  0.00  0.00    +0.000 A 
ATOM     10  C   UNL     1       2.236   2.499  17.757  0.00  0.00    +0.000 C 
ATOM     11  C   UNL     1       3.649   4.445  17.021  0.00  0.00    +0.000 A 
ATOM     12  C   UNL     1       4.146   5.747  17.189  0.00  0.00    +0.000 A 
ATOM     13  C   UNL     1       5.190   6.283  16.255  0.00  0.00    +0.000 C 
ATOM     14  C   UNL     1       3.711   6.520  18.279  0.00  0.00    +0.000 A 
ENDBRANCH   4   7
BRANCH   1  18
ATOM     15  C   UNL     1      -0.982  11.587  22.335  0.00  0.00    +0.000 A 
ATOM     16  C   UNL     1      -0.024  11.756  21.357  0.00  0.00    +0.000 A 
ATOM     17  C   UNL     1       0.846  10.699  21.100  0.00  0.00    +0.000 A 
ATOM     18  C   UNL     1       0.754   9.506  21.820  0.00  0.00    +0.000 A 
ATOM     19  C   UNL     1      -0.244   9.452  22.790  0.00  0.00    +0.000 A 
ATOM     20  N   UNL     1      -1.114  10.457  23.063  0.00  0.00    +0.000 NA
BRANCH  15  22
ATOM     21  C   UNL     1      -2.938  12.322  23.367  0.00  0.00    +0.000 C 
ATOM     22  O   UNL     1      -1.828  12.657  22.544  0.00  0.00    +0.000 OA
ENDBRANCH  15  22
ENDBRANCH   1  18
TORSDOF 3
ENDMDL
MODEL 7
REMARK VINA RESULT:      -6.6      5.804      8.866
REMARK  Name = 
REMARK  6 active torsions:
REMARK  status: ('A' for Active; 'I' for Inactive)
REMARK    1  A    between atoms: C_1  and  O_2
REMARK    2  A    between atoms: O_2  and  C_3
REMARK    3  A    between atoms: C_6  and  N_7
REMARK    4  A    between atoms: N_10  and  C_11
REMARK    5  A    between atoms: C_13  and  C_14
REMARK    6  A    between atoms: C_16  and  C_17
REMARK                            x       y       z     vdW  Elec       q    Type
REMARK                         _______ _______ _______ _____ _____    ______ ____
ROOT
ATOM      1  N   UNL     1       2.639   7.327  18.761  0.00  0.00    +0.000 N 
ATOM      2  C   UNL     1       2.018   8.466  18.282  0.00  0.00    +0.000 C 
ATOM      3  O   UNL     1       2.070   8.836  17.111  0.00  0.00    +0.000 OA
ATOM      4  N   UNL     1       1.341   9.181  19.259  0.00  0.00    +0.000 N 
ATOM      5  H   UNL     1       2.408   7.043  19.700  0.00  0.00    +0.000 HD
ATOM      6  H   UNL     1       1.823   9.225  20.146  0.00  0.00    +0.000 HD
ENDROOT
BRANCH   4   7
ATOM      7  C   UNL     1       0.693  10.377  18.847  0.00  0.00    +0.000 A 
ATOM      8  C   UNL     1       1.371  11.603  18.917  0.00  0.00    +0.000 A 
ATOM      9  C   UNL     1       0.696  12.809  18.716  0.00  0.00    +0.000 A 
ATOM     10  C   UNL     1       1.409  14.119  18.866  0.00  0.00    +0.000 C 
ATOM     11  C   UNL     1      -0.673  12.776  18.437  0.00  0.00    +0.000 A 
ATOM     12  C   UNL     1      -1.359  11.556  18.330  0.00  0.00    +0.000 A 
ATOM     13  C   UNL     1      -2.843  11.540  18.108  0.00  0.00    +0.000 C 
ATOM     14  C   UNL     1      -0.659  10.350  18.502  0.00  0.00    +0.000 A 
ENDBRANCH   4   7
BRANCH   1  18
ATOM     15  C   UNL     1       4.948   4.648  16.543  0.00  0.00    +0.000 A 
ATOM     16  C   UNL     1       5.396   5.949  16.625  0.00  0.00    +0.000 A 
ATOM     17  C   UNL     1       4.639   6.860  17.358  0.00  0.00    +0.000 A 
ATOM     18  C   UNL     1       3.454   6.465  17.984  0.00  0.00    +0.000 A 
ATOM     19  C   UNL     1       3.093   5.129  17.824  0.00  0.00    +0.000 A 
ATOM     20  N   UNL     1       3.809   4.212  17.125  0.00  0.00    +0.000 NA
BRANCH  15  22
ATOM     21  C   UNL     1       6.703   4.456  15.021  0.00  0.00    +0.000 C 
ATOM     22  O   UNL     1       5.738   3.780  15.817  0.00  0.00    +0.000 OA
ENDBRANCH  15  22
ENDBRANCH   1  18
TORSDOF 3
ENDMDL
MODEL 8
REMARK VINA RESULT:      -6.6      6.502      7.826
REMARK  Name = 
REMARK  6 active torsions:
REMARK  status: ('A' for Active; 'I' for Inactive)
REMARK    1  A    between atoms: C_1  and  O_2
REMARK    2  A    between atoms: O_2  and  C_3
REMARK    3  A    between atoms: C_6  and  N_7
REMARK    4  A    between atoms: N_10  and  C_11
REMARK    5  A    between atoms: C_13  and  C_14
REMARK    6  A    between atoms: C_16  and  C_17
REMARK                            x       y       z     vdW  Elec       q    Type
REMARK                         _______ _______ _______ _____ _____    ______ ____
ROOT
ATOM      1  N   UNL     1       1.598   8.466  21.866  0.00  0.00    +0.000 N 
ATOM      2  C   UNL     1       1.557   7.693  20.720  0.00  0.00    +0.000 C 
ATOM      3  O   UNL     1       0.789   7.894  19.783  0.00  0.00    +0.000 OA
ATOM      4  N   UNL     1       2.455   6.636  20.734  0.00  0.00    +0.000 N 
ATOM      5  H   UNL     1       2.361   8.301  22.500  0.00  0.00    +0.000 HD
ATOM      6  H   UNL     1       2.539   6.177  21.629  0.00  0.00    +0.000 HD
ENDROOT
BRANCH   4   7
ATOM      7  C   UNL     1       2.459   5.781  19.598  0.00  0.00    +0.000 A 
ATOM      8  C   UNL     1       1.644   4.640  19.576  0.00  0.00    +0.000 A 
ATOM      9  C   UNL     1       1.780   3.680  18.569  0.00  0.00    +0.000 A 
ATOM     10  C   UNL     1       0.959   2.426  18.592  0.00  0.00    +0.000 C 
ATOM     11  C   UNL     1       2.742   3.879  17.575  0.00  0.00    +0.000 A 
ATOM     12  C   UNL     1       3.542   5.033  17.564  0.00  0.00    +0.000 A 
ATOM     13  C   UNL     1       4.622   5.194  16.536  0.00  0.00    +0.000 C 
ATOM     14  C   UNL     1       3.370   6.004  18.565  0.00  0.00    +0.000 A 
ENDBRANCH   4   7
BRANCH   1  18
ATOM     15  C   UNL     1      -0.823  11.792  22.581  0.00  0.00    +0.000 A 
ATOM     16  C   UNL     1      -1.178  10.610  23.196  0.00  0.00    +0.000 A 
ATOM     17  C   UNL     1      -0.386   9.488  22.968  0.00  0.00    +0.000 A 
ATOM     18  C   UNL     1       0.732   9.558  22.133  0.00  0.00    +0.000 A 
ATOM     19  C   UNL     1       0.987  10.801  21.557  0.00  0.00    +0.000 A 
ATOM     20  N   UNL     1       0.243  11.917  21.761  0.00  0.00    +0.000 NA
BRANCH  15  22
ATOM     21  C   UNL     1      -1.042  14.109  22.446  0.00  0.00    +0.000 C 
ATOM     22  O   UNL     1      -1.632  12.879  22.847  0.00  0.00    +0.000 OA
ENDBRANCH  15  22
ENDBRANCH   1  18
TORSDOF 3
ENDMDL
MODEL 9
REMARK VINA RESULT:      -6.6      5.717      7.380
REMARK  Name = 
REMARK  6 active torsions:
REMARK  status: ('A' for Active; 'I' for Inactive)
REMARK    1  A    between atoms: C_1  and  O_2
REMARK    2  A    between atoms: O_2  and  C_3
REMARK    3  A    between atoms: C_6  and  N_7
REMARK    4  A    between atoms: N_10  and  C_11
REMARK    5  A    between atoms: C_13  and  C_14
REMARK    6  A    between atoms: C_16  and  C_17
REMARK                            x       y       z     vdW  Elec       q    Type
REMARK                         _______ _______ _______ _____ _____    ______ ____
ROOT
ATOM      1  N   UNL     1       1.530   8.859  19.037  0.00  0.00    +0.000 N 
ATOM      2  C   UNL     1       2.310   7.718  19.026  0.00  0.00    +0.000 C 
ATOM      3  O   UNL     1       2.489   6.997  20.005  0.00  0.00    +0.000 OA
ATOM      4  N   UNL     1       2.906   7.467  17.798  0.00  0.00    +0.000 N 
ATOM      5  H   UNL     1       1.337   9.288  18.147  0.00  0.00    +0.000 HD
ATOM      6  H   UNL     1       3.245   8.294  17.327  0.00  0.00    +0.000 HD
ENDROOT
BRANCH   4   7
ATOM      7  C   UNL     1       3.741   6.320  17.711  0.00  0.00    +0.000 A 
ATOM      8  C   UNL     1       3.172   5.038  17.681  0.00  0.00    +0.000 A 
ATOM      9  C   UNL     1       3.968   3.897  17.804  0.00  0.00    +0.000 A 
ATOM     10  C   UNL     1       3.347   2.533  17.846  0.00  0.00    +0.000 C 
ATOM     11  C   UNL     1       5.349   4.051  17.952  0.00  0.00    +0.000 A 
ATOM     12  C   UNL     1       5.937   5.326  17.950  0.00  0.00    +0.000 A 
ATOM     13  C   UNL     1       7.410   5.478  18.189  0.00  0.00    +0.000 C 
ATOM     14  C   UNL     1       5.127   6.463  17.792  0.00  0.00    +0.000 A 
ENDBRANCH   4   7
BRANCH   1  18
ATOM     15  C   UNL     1      -0.309  10.540  22.388  0.00  0.00    +0.000 A 
ATOM     16  C   UNL     1      -0.407   9.173  22.233  0.00  0.00    +0.000 A 
ATOM     17  C   UNL     1       0.197   8.593  21.121  0.00  0.00    +0.000 A 
ATOM     18  C   UNL     1       0.875   9.377  20.185  0.00  0.00    +0.000 A 
ATOM     19  C   UNL     1       0.900  10.746  20.437  0.00  0.00    +0.000 A 
ATOM     20  N   UNL     1       0.331  11.346  21.513  0.00  0.00    +0.000 NA
BRANCH  15  22
ATOM     21  C   UNL     1      -1.933  12.004  23.195  0.00  0.00    +0.000 C 
ATOM     22  O   UNL     1      -0.912  11.067  23.512  0.00  0.00    +0.000 OA
ENDBRANCH  15  22
ENDBRANCH   1  18
TORSDOF 3
ENDMDL
