MODEL 1
REMARK VINA RESULT:      -6.1      0.000      0.000
REMARK  Name = 
REMARK  21 active torsions:
REMARK  status: ('A' for Active; 'I' for Inactive)
REMARK    1  A    between atoms: C_1  and  C_2
REMARK    2  A    between atoms: C_2  and  C_3
REMARK    3  A    between atoms: C_3  and  C_4
REMARK    4  A    between atoms: C_4  and  C_5
REMARK    5  A    between atoms: C_5  and  C_6
REMARK    6  A    between atoms: C_7  and  C_8
REMARK    7  A    between atoms: C_8  and  C_9
REMARK    8  A    between atoms: C_10  and  C_11
REMARK    9  A    between atoms: C_11  and  C_12
REMARK   10  A    between atoms: C_12  and  C_13
REMARK   11  A    between atoms: C_13  and  C_14
REMARK   12  A    between atoms: C_14  and  C_15
REMARK   13  A    between atoms: C_15  and  C_16
REMARK   14  A    between atoms: C_16  and  C_17
REMARK   15  A    between atoms: C_17  and  C_18
REMARK   16  A    between atoms: N_20  and  C_21
REMARK   17  A    between atoms: C_21  and  C_22
REMARK   18  A    between atoms: C_21  and  C_23
REMARK   19  A    between atoms: C_23  and  C_24
REMARK   20  A    between atoms: C_23  and  C_25
REMARK   21  A    between atoms: C_23  and  C_26
REMARK                            x       y       z     vdW  Elec       q    Type
REMARK                         _______ _______ _______ _____ _____    ______ ____
ROOT
ATOM      1  C   UNL     1       2.077   5.408  20.940  0.00  0.00    +0.000 C 
ENDROOT
BRANCH   1   2
ATOM      2  C   UNL     1       2.814   6.125  19.811  0.00  0.00    +0.000 C 
BRANCH   2   3
ATOM      3  C   UNL     1       1.918   7.217  19.237  0.00  0.00    +0.000 C 
BRANCH   3   4
ATOM      4  C   UNL     1       2.626   8.090  18.210  0.00  0.00    +0.000 C 
BRANCH   4   5
ATOM      5  C   UNL     1       1.934   9.432  18.085  0.00  0.00    +0.000 C 
ATOM      6  O   UNL     1       2.377  10.359  17.412  0.00  0.00    +0.000 OA
ATOM      7  N   UNL     1       0.757   9.503  18.807  0.00  0.00    +0.000 N 
ATOM      8  H   UNL     1       0.377   8.654  19.215  0.00  0.00    +0.000 HD
BRANCH   7   9
ATOM      9  C   UNL     1      -0.089  10.694  18.751  0.00  0.00    +0.000 C 
ATOM     10  C   UNL     1      -1.361  10.368  17.959  0.00  0.00    +0.000 C 
BRANCH   9  11
ATOM     11  C   UNL     1      -0.334  11.293  20.175  0.00  0.00    +0.000 C 
ATOM     12  C   UNL     1      -0.266  10.164  21.227  0.00  0.00    +0.000 C 
ATOM     13  C   UNL     1       0.766  12.316  20.522  0.00  0.00    +0.000 C 
ATOM     14  C   UNL     1      -1.702  11.993  20.291  0.00  0.00    +0.000 C 
ENDBRANCH   9  11
ENDBRANCH   7   9
ENDBRANCH   4   5
ENDBRANCH   3   4
ENDBRANCH   2   3
ENDBRANCH   1   2
BRANCH   1  15
ATOM     15  C   UNL     1       2.146   3.896  20.791  0.00  0.00    +0.000 C 
BRANCH  15  16
ATOM     16  C   UNL     1       0.958   3.380  19.978  0.00  0.00    +0.000 C 
BRANCH  16  17
ATOM     17  C   UNL     1       1.292   3.411  18.494  0.00  0.00    +0.000 C 
BRANCH  17  19
ATOM     18  C   UNL     1       3.268   2.080  17.752  0.00  0.00    +0.000 C 
ATOM     19  C   UNL     1       1.949   2.151  18.005  0.00  0.00    +0.000 C 
BRANCH  18  20
ATOM     20  C   UNL     1       4.202   3.245  17.932  0.00  0.00    +0.000 C 
BRANCH  20  22
ATOM     21  C   UNL     1       4.759   4.603  15.884  0.00  0.00    +0.000 C 
ATOM     22  C   UNL     1       3.969   4.351  16.943  0.00  0.00    +0.000 C 
BRANCH  21  23
ATOM     23  C   UNL     1       6.009   3.825  15.591  0.00  0.00    +0.000 C 
BRANCH  23  24
ATOM     24  C   UNL     1       7.286   4.593  15.914  0.00  0.00    +0.000 C 
BRANCH  24  25
ATOM     25  C   UNL     1       7.568   4.525  17.416  0.00  0.00    +0.000 C 
BRANCH  25  27
ATOM     26  C   UNL     1       7.956   5.899  19.482  0.00  0.00    +0.000 C 
ATOM     27  C   UNL     1       7.375   5.885  18.078  0.00  0.00    +0.000 C 
ENDBRANCH  25  27
ENDBRANCH  24  25
ENDBRANCH  23  24
ENDBRANCH  21  23
ENDBRANCH  20  22
ENDBRANCH  18  20
ENDBRANCH  17  19
ENDBRANCH  16  17
ENDBRANCH  15  16
ENDBRANCH   1  15
TORSDOF 16
ENDMDL
MODEL 2
REMARK VINA RESULT:      -5.9      1.703      3.238
REMARK  Name = 
REMARK  21 active torsions:
REMARK  status: ('A' for Active; 'I' for Inactive)
REMARK    1  A    between atoms: C_1  and  C_2
REMARK    2  A    between atoms: C_2  and  C_3
REMARK    3  A    between atoms: C_3  and  C_4
REMARK    4  A    between atoms: C_4  and  C_5
REMARK    5  A    between atoms: C_5  and  C_6
REMARK    6  A    between atoms: C_7  and  C_8
REMARK    7  A    between atoms: C_8  and  C_9
REMARK    8  A    between atoms: C_10  and  C_11
REMARK    9  A    between atoms: C_11  and  C_12
REMARK   10  A    between atoms: C_12  and  C_13
REMARK   11  A    between atoms: C_13  and  C_14
REMARK   12  A    between atoms: C_14  and  C_15
REMARK   13  A    between atoms: C_15  and  C_16
REMARK   14  A    between atoms: C_16  and  C_17
REMARK   15  A    between atoms: C_17  and  C_18
REMARK   16  A    between atoms: N_20  and  C_21
REMARK   17  A    between atoms: C_21  and  C_22
REMARK   18  A    between atoms: C_21  and  C_23
REMARK   19  A    between atoms: C_23  and  C_24
REMARK   20  A    between atoms: C_23  and  C_25
REMARK   21  A    between atoms: C_23  and  C_26
REMARK                            x       y       z     vdW  Elec       q    Type
REMARK                         _______ _______ _______ _____ _____    ______ ____
ROOT
ATOM      1  C   UNL     1       2.153   6.921  18.236  0.00  0.00    +0.000 C 
ENDROOT
BRANCH   1   2
ATOM      2  C   UNL     1       2.757   8.157  17.572  0.00  0.00    +0.000 C 
BRANCH   2   3
ATOM      3  C   UNL     1       2.045   9.404  18.085  0.00  0.00    +0.000 C 
BRANCH   3   4
ATOM      4  C   UNL     1       0.532   9.330  17.936  0.00  0.00    +0.000 C 
BRANCH   4   5
ATOM      5  C   UNL     1      -0.129  10.509  18.621  0.00  0.00    +0.000 C 
ATOM      6  O   UNL     1      -1.343  10.601  18.784  0.00  0.00    +0.000 OA
ATOM      7  N   UNL     1       0.775  11.469  19.037  0.00  0.00    +0.000 N 
ATOM      8  H   UNL     1       1.768  11.258  19.004  0.00  0.00    +0.000 HD
BRANCH   7   9
ATOM      9  C   UNL     1       0.333  12.646  19.783  0.00  0.00    +0.000 C 
ATOM     10  C   UNL     1       0.382  12.335  21.284  0.00  0.00    +0.000 C 
BRANCH   9  11
ATOM     11  C   UNL     1       1.114  13.929  19.350  0.00  0.00    +0.000 C 
ATOM     12  C   UNL     1       2.112  13.569  18.226  0.00  0.00    +0.000 C 
ATOM     13  C   UNL     1       0.140  14.983  18.784  0.00  0.00    +0.000 C 
ATOM     14  C   UNL     1       1.895  14.565  20.516  0.00  0.00    +0.000 C 
ENDBRANCH   9  11
ENDBRANCH   7   9
ENDBRANCH   4   5
ENDBRANCH   3   4
ENDBRANCH   2   3
ENDBRANCH   1   2
BRANCH   1  15
ATOM     15  C   UNL     1       2.812   6.617  19.571  0.00  0.00    +0.000 C 
BRANCH  15  16
ATOM     16  C   UNL     1       1.788   6.069  20.566  0.00  0.00    +0.000 C 
BRANCH  16  17
ATOM     17  C   UNL     1       2.184   4.664  20.996  0.00  0.00    +0.000 C 
BRANCH  17  19
ATOM     18  C   UNL     1       1.233   2.700  19.786  0.00  0.00    +0.000 C 
ATOM     19  C   UNL     1       1.115   3.639  20.741  0.00  0.00    +0.000 C 
BRANCH  18  20
ATOM     20  C   UNL     1       2.435   2.588  18.889  0.00  0.00    +0.000 C 
BRANCH  20  22
ATOM     21  C   UNL     1       3.182   3.684  16.747  0.00  0.00    +0.000 C 
ATOM     22  C   UNL     1       2.212   3.167  17.521  0.00  0.00    +0.000 C 
BRANCH  21  23
ATOM     23  C   UNL     1       4.614   3.785  17.186  0.00  0.00    +0.000 C 
BRANCH  23  24
ATOM     24  C   UNL     1       5.167   5.205  17.117  0.00  0.00    +0.000 C 
BRANCH  24  25
ATOM     25  C   UNL     1       5.896   5.415  15.789  0.00  0.00    +0.000 C 
BRANCH  25  27
ATOM     26  C   UNL     1       6.108   3.885  13.809  0.00  0.00    +0.000 C 
ATOM     27  C   UNL     1       6.482   4.109  15.265  0.00  0.00    +0.000 C 
ENDBRANCH  25  27
ENDBRANCH  24  25
ENDBRANCH  23  24
ENDBRANCH  21  23
ENDBRANCH  20  22
ENDBRANCH  18  20
ENDBRANCH  17  19
ENDBRANCH  16  17
ENDBRANCH  15  16
ENDBRANCH   1  15
TORSDOF 16
ENDMDL
MODEL 3
REMARK VINA RESULT:      -5.9      2.668      8.474
REMARK  Name = 
REMARK  21 active torsions:
REMARK  status: ('A' for Active; 'I' for Inactive)
REMARK    1  A    between atoms: C_1  and  C_2
REMARK    2  A    between atoms: C_2  and  C_3
REMARK    3  A    between atoms: C_3  and  C_4
REMARK    4  A    between atoms: C_4  and  C_5
REMARK    5  A    between atoms: C_5  and  C_6
REMARK    6  A    between atoms: C_7  and  C_8
REMARK    7  A    between atoms: C_8  and  C_9
REMARK    8  A    between atoms: C_10  and  C_11
REMARK    9  A    between atoms: C_11  and  C_12
REMARK   10  A    between atoms: C_12  and  C_13
REMARK   11  A    between atoms: C_13  and  C_14
REMARK   12  A    between atoms: C_14  and  C_15
REMARK   13  A    between atoms: C_15  and  C_16
REMARK   14  A    between atoms: C_16  and  C_17
REMARK   15  A    between atoms: C_17  and  C_18
REMARK   16  A    between atoms: N_20  and  C_21
REMARK   17  A    between atoms: C_21  and  C_22
REMARK   18  A    between atoms: C_21  and  C_23
REMARK   19  A    between atoms: C_23  and  C_24
REMARK   20  A    between atoms: C_23  and  C_25
REMARK   21  A    between atoms: C_23  and  C_26
REMARK                            x       y       z     vdW  Elec       q    Type
REMARK                         _______ _______ _______ _____ _____    ______ ____
ROOT
ATOM      1  C   UNL     1       1.102   3.166  20.315  0.00  0.00    +0.000 C 
ENDROOT
BRANCH   1   2
ATOM      2  C   UNL     1       0.747   2.824  18.870  0.00  0.00    +0.000 C 
BRANCH   2   3
ATOM      3  C   UNL     1       1.933   2.131  18.209  0.00  0.00    +0.000 C 
BRANCH   3   4
ATOM      4  C   UNL     1       2.610   2.991  17.150  0.00  0.00    +0.000 C 
BRANCH   4   5
ATOM      5  C   UNL     1       4.026   3.333  17.569  0.00  0.00    +0.000 C 
ATOM      6  O   UNL     1       4.542   2.920  18.604  0.00  0.00    +0.000 OA
ATOM      7  N   UNL     1       4.672   4.158  16.666  0.00  0.00    +0.000 N 
ATOM      8  H   UNL     1       4.240   4.336  15.764  0.00  0.00    +0.000 HD
BRANCH   7   9
ATOM      9  C   UNL     1       6.070   4.538  16.861  0.00  0.00    +0.000 C 
ATOM     10  C   UNL     1       6.790   4.512  15.507  0.00  0.00    +0.000 C 
BRANCH   9  11
ATOM     11  C   UNL     1       6.197   5.882  17.650  0.00  0.00    +0.000 C 
ATOM     12  C   UNL     1       7.397   6.687  17.102  0.00  0.00    +0.000 C 
ATOM     13  C   UNL     1       4.933   6.743  17.450  0.00  0.00    +0.000 C 
ATOM     14  C   UNL     1       6.401   5.662  19.161  0.00  0.00    +0.000 C 
ENDBRANCH   9  11
ENDBRANCH   7   9
ENDBRANCH   4   5
ENDBRANCH   3   4
ENDBRANCH   2   3
ENDBRANCH   1   2
BRANCH   1  15
ATOM     15  C   UNL     1       1.054   4.665  20.569  0.00  0.00    +0.000 C 
BRANCH  15  16
ATOM     16  C   UNL     1       2.362   5.328  20.135  0.00  0.00    +0.000 C 
BRANCH  16  17
ATOM     17  C   UNL     1       2.141   6.818  19.922  0.00  0.00    +0.000 C 
BRANCH  17  19
ATOM     18  C   UNL     1       1.033   8.684  21.153  0.00  0.00    +0.000 C 
ATOM     19  C   UNL     1       1.753   7.548  21.176  0.00  0.00    +0.000 C 
BRANCH  18  20
ATOM     20  C   UNL     1       0.554   9.327  19.881  0.00  0.00    +0.000 C 
BRANCH  20  22
ATOM     21  C   UNL     1      -1.332  10.815  19.124  0.00  0.00    +0.000 C 
ATOM     22  C   UNL     1      -0.545  10.328  20.099  0.00  0.00    +0.000 C 
BRANCH  21  23
ATOM     23  C   UNL     1      -1.171  10.446  17.678  0.00  0.00    +0.000 C 
BRANCH  23  24
ATOM     24  C   UNL     1      -2.431  10.680  16.852  0.00  0.00    +0.000 C 
BRANCH  24  25
ATOM     25  C   UNL     1      -3.671  10.465  17.721  0.00  0.00    +0.000 C 
BRANCH  25  27
ATOM     26  C   UNL     1      -5.395  12.274  17.969  0.00  0.00    +0.000 C 
ATOM     27  C   UNL     1      -4.900  11.124  17.107  0.00  0.00    +0.000 C 
ENDBRANCH  25  27
ENDBRANCH  24  25
ENDBRANCH  23  24
ENDBRANCH  21  23
ENDBRANCH  20  22
ENDBRANCH  18  20
ENDBRANCH  17  19
ENDBRANCH  16  17
ENDBRANCH  15  16
ENDBRANCH   1  15
TORSDOF 16
ENDMDL
MODEL 4
REMARK VINA RESULT:      -5.8      5.111      7.587
REMARK  Name = 
REMARK  21 active torsions:
REMARK  status: ('A' for Active; 'I' for Inactive)
REMARK    1  A    between atoms: C_1  and  C_2
REMARK    2  A    between atoms: C_2  and  C_3
REMARK    3  A    between atoms: C_3  and  C_4
REMARK    4  A    between atoms: C_4  and  C_5
REMARK    5  A    between atoms: C_5  and  C_6
REMARK    6  A    between atoms: C_7  and  C_8
REMARK    7  A    between atoms: C_8  and  C_9
REMARK    8  A    between atoms: C_10  and  C_11
REMARK    9  A    between atoms: C_11  and  C_12
REMARK   10  A    between atoms: C_12  and  C_13
REMARK   11  A    between atoms: C_13  and  C_14
REMARK   12  A    between atoms: C_14  and  C_15
REMARK   13  A    between atoms: C_15  and  C_16
REMARK   14  A    between atoms: C_16  and  C_17
REMARK   15  A    between atoms: C_17  and  C_18
REMARK   16  A    between atoms: N_20  and  C_21
REMARK   17  A    between atoms: C_21  and  C_22
REMARK   18  A    between atoms: C_21  and  C_23
REMARK   19  A    between atoms: C_23  and  C_24
REMARK   20  A    between atoms: C_23  and  C_25
REMARK   21  A    between atoms: C_23  and  C_26
REMARK                            x       y       z     vdW  Elec       q    Type
REMARK                         _______ _______ _______ _____ _____    ______ ____
ROOT
ATOM      1  C   UNL     1       8.414   7.378  18.980  0.00  0.00    +0.000 C 
ENDROOT
BRANCH   1   2
ATOM      2  C   UNL     1       7.938   8.016  17.676  0.00  0.00    +0.000 C 
BRANCH   2   3
ATOM      3  C   UNL     1       8.104   9.529  17.764  0.00  0.00    +0.000 C 
BRANCH   3   4
ATOM      4  C   UNL     1       9.056   9.960  18.871  0.00  0.00    +0.000 C 
BRANCH   4   5
ATOM      5  C   UNL     1       9.697  11.291  18.532  0.00  0.00    +0.000 C 
ATOM      6  O   UNL     1      10.523  11.432  17.634  0.00  0.00    +0.000 OA
ATOM      7  N   UNL     1       9.258  12.324  19.340  0.00  0.00    +0.000 N 
ATOM      8  H   UNL     1       8.467  12.165  19.958  0.00  0.00    +0.000 HD
BRANCH   7   9
ATOM      9  C   UNL     1       9.709  13.696  19.118  0.00  0.00    +0.000 C 
ATOM     10  C   UNL     1       8.806  14.357  18.069  0.00  0.00    +0.000 C 
BRANCH   9  11
ATOM     11  C   UNL     1       9.843  14.484  20.462  0.00  0.00    +0.000 C 
ATOM     12  C   UNL     1       8.678  15.492  20.585  0.00  0.00    +0.000 C 
ATOM     13  C   UNL     1       9.748  13.518  21.661  0.00  0.00    +0.000 C 
ATOM     14  C   UNL     1      11.173  15.255  20.563  0.00  0.00    +0.000 C 
ENDBRANCH   9  11
ENDBRANCH   7   9
ENDBRANCH   4   5
ENDBRANCH   3   4
ENDBRANCH   2   3
ENDBRANCH   1   2
BRANCH   1  15
ATOM     15  C   UNL     1       8.028   5.910  19.065  0.00  0.00    +0.000 C 
BRANCH  15  16
ATOM     16  C   UNL     1       6.833   5.613  18.158  0.00  0.00    +0.000 C 
BRANCH  16  17
ATOM     17  C   UNL     1       7.125   4.388  17.303  0.00  0.00    +0.000 C 
BRANCH  17  19
ATOM     18  C   UNL     1       5.216   4.438  15.697  0.00  0.00    +0.000 C 
ATOM     19  C   UNL     1       6.541   4.474  15.921  0.00  0.00    +0.000 C 
BRANCH  18  20
ATOM     20  C   UNL     1       4.200   4.308  16.798  0.00  0.00    +0.000 C 
BRANCH  20  22
ATOM     21  C   UNL     1       2.837   2.434  17.788  0.00  0.00    +0.000 C 
ATOM     22  C   UNL     1       3.975   2.888  17.233  0.00  0.00    +0.000 C 
BRANCH  21  23
ATOM     23  C   UNL     1       1.661   3.319  18.084  0.00  0.00    +0.000 C 
BRANCH  23  24
ATOM     24  C   UNL     1       0.871   2.879  19.313  0.00  0.00    +0.000 C 
BRANCH  24  25
ATOM     25  C   UNL     1       0.816   4.017  20.332  0.00  0.00    +0.000 C 
BRANCH  25  27
ATOM     26  C   UNL     1       2.426   2.668  21.708  0.00  0.00    +0.000 C 
ATOM     27  C   UNL     1       2.074   4.054  21.191  0.00  0.00    +0.000 C 
ENDBRANCH  25  27
ENDBRANCH  24  25
ENDBRANCH  23  24
ENDBRANCH  21  23
ENDBRANCH  20  22
ENDBRANCH  18  20
ENDBRANCH  17  19
ENDBRANCH  16  17
ENDBRANCH  15  16
ENDBRANCH   1  15
TORSDOF 16
ENDMDL
MODEL 5
REMARK VINA RESULT:      -5.8      1.631      3.060
REMARK  Name = 
REMARK  21 active torsions:
REMARK  status: ('A' for Active; 'I' for Inactive)
REMARK    1  A    between atoms: C_1  and  C_2
REMARK    2  A    between atoms: C_2  and  C_3
REMARK    3  A    between atoms: C_3  and  C_4
REMARK    4  A    between atoms: C_4  and  C_5
REMARK    5  A    between atoms: C_5  and  C_6
REMARK    6  A    between atoms: C_7  and  C_8
REMARK    7  A    between atoms: C_8  and  C_9
REMARK    8  A    between atoms: C_10  and  C_11
REMARK    9  A    between atoms: C_11  and  C_12
REMARK   10  A    between atoms: C_12  and  C_13
REMARK   11  A    between atoms: C_13  and  C_14
REMARK   12  A    between atoms: C_14  and  C_15
REMARK   13  A    between atoms: C_15  and  C_16
REMARK   14  A    between atoms: C_16  and  C_17
REMARK   15  A    between atoms: C_17  and  C_18
REMARK   16  A    between atoms: N_20  and  C_21
REMARK   17  A    between atoms: C_21  and  C_22
REMARK   18  A    between atoms: C_21  and  C_23
REMARK   19  A    between atoms: C_23  and  C_24
REMARK   20  A    between atoms: C_23  and  C_25
REMARK   21  A    between atoms: C_23  and  C_26
REMARK                            x       y       z     vdW  Elec       q    Type
REMARK                         _______ _______ _______ _____ _____    ______ ____
ROOT
ATOM      1  C   UNL     1       1.966   7.352  18.361  0.00  0.00    +0.000 C 
ENDROOT
BRANCH   1   2
ATOM      2  C   UNL     1       2.756   8.579  17.911  0.00  0.00    +0.000 C 
BRANCH   2   3
ATOM      3  C   UNL     1       1.905   9.828  18.109  0.00  0.00    +0.000 C 
BRANCH   3   4
ATOM      4  C   UNL     1       0.956   9.721  19.294  0.00  0.00    +0.000 C 
BRANCH   4   5
ATOM      5  C   UNL     1       0.454  11.092  19.701  0.00  0.00    +0.000 C 
ATOM      6  O   UNL     1       1.022  12.136  19.392  0.00  0.00    +0.000 OA
ATOM      7  N   UNL     1      -0.704  11.042  20.455  0.00  0.00    +0.000 N 
ATOM      8  H   UNL     1      -1.198  10.158  20.543  0.00  0.00    +0.000 HD
BRANCH   7   9
ATOM      9  C   UNL     1      -1.379  12.267  20.878  0.00  0.00    +0.000 C 
ATOM     10  C   UNL     1      -2.590  12.512  19.970  0.00  0.00    +0.000 C 
BRANCH   9  11
ATOM     11  C   UNL     1      -1.697  12.251  22.410  0.00  0.00    +0.000 C 
ATOM     12  C   UNL     1      -1.123  10.961  23.039  0.00  0.00    +0.000 C 
ATOM     13  C   UNL     1      -1.022  13.447  23.110  0.00  0.00    +0.000 C 
ATOM     14  C   UNL     1      -3.209  12.308  22.697  0.00  0.00    +0.000 C 
ENDBRANCH   9  11
ENDBRANCH   7   9
ENDBRANCH   4   5
ENDBRANCH   3   4
ENDBRANCH   2   3
ENDBRANCH   1   2
BRANCH   1  15
ATOM     15  C   UNL     1       2.636   6.644  19.527  0.00  0.00    +0.000 C 
BRANCH  15  16
ATOM     16  C   UNL     1       1.663   5.674  20.200  0.00  0.00    +0.000 C 
BRANCH  16  17
ATOM     17  C   UNL     1       2.436   4.653  21.022  0.00  0.00    +0.000 C 
BRANCH  17  19
ATOM     18  C   UNL     1       1.119   2.627  20.399  0.00  0.00    +0.000 C 
ATOM     19  C   UNL     1       1.636   3.424  21.350  0.00  0.00    +0.000 C 
BRANCH  18  20
ATOM     20  C   UNL     1       1.290   2.887  18.928  0.00  0.00    +0.000 C 
BRANCH  20  22
ATOM     21  C   UNL     1       3.349   2.539  17.519  0.00  0.00    +0.000 C 
ATOM     22  C   UNL     1       2.368   2.052  18.298  0.00  0.00    +0.000 C 
BRANCH  21  23
ATOM     23  C   UNL     1       3.456   3.989  17.145  0.00  0.00    +0.000 C 
BRANCH  23  24
ATOM     24  C   UNL     1       4.805   4.605  17.499  0.00  0.00    +0.000 C 
BRANCH  24  25
ATOM     25  C   UNL     1       5.101   5.781  16.567  0.00  0.00    +0.000 C 
BRANCH  25  27
ATOM     26  C   UNL     1       6.916   4.473  15.426  0.00  0.00    +0.000 C 
ATOM     27  C   UNL     1       5.657   5.303  15.231  0.00  0.00    +0.000 C 
ENDBRANCH  25  27
ENDBRANCH  24  25
ENDBRANCH  23  24
ENDBRANCH  21  23
ENDBRANCH  20  22
ENDBRANCH  18  20
ENDBRANCH  17  19
ENDBRANCH  16  17
ENDBRANCH  15  16
ENDBRANCH   1  15
TORSDOF 16
ENDMDL
MODEL 6
REMARK VINA RESULT:      -5.7      4.910      7.722
REMARK  Name = 
REMARK  21 active torsions:
REMARK  status: ('A' for Active; 'I' for Inactive)
REMARK    1  A    between atoms: C_1  and  C_2
REMARK    2  A    between atoms: C_2  and  C_3
REMARK    3  A    between atoms: C_3  and  C_4
REMARK    4  A    between atoms: C_4  and  C_5
REMARK    5  A    between atoms: C_5  and  C_6
REMARK    6  A    between atoms: C_7  and  C_8
REMARK    7  A    between atoms: C_8  and  C_9
REMARK    8  A    between atoms: C_10  and  C_11
REMARK    9  A    between atoms: C_11  and  C_12
REMARK   10  A    between atoms: C_12  and  C_13
REMARK   11  A    between atoms: C_13  and  C_14
REMARK   12  A    between atoms: C_14  and  C_15
REMARK   13  A    between atoms: C_15  and  C_16
REMARK   14  A    between atoms: C_16  and  C_17
REMARK   15  A    between atoms: C_17  and  C_18
REMARK   16  A    between atoms: N_20  and  C_21
REMARK   17  A    between atoms: C_21  and  C_22
REMARK   18  A    between atoms: C_21  and  C_23
REMARK   19  A    between atoms: C_23  and  C_24
REMARK   20  A    between atoms: C_23  and  C_25
REMARK   21  A    between atoms: C_23  and  C_26
REMARK                            x       y       z     vdW  Elec       q    Type
REMARK                         _______ _______ _______ _____ _____    ______ ____
ROOT
ATOM      1  C   UNL     1       7.128   6.666  17.999  0.00  0.00    +0.000 C 
ENDROOT
BRANCH   1   2
ATOM      2  C   UNL     1       8.044   7.696  17.342  0.00  0.00    +0.000 C 
BRANCH   2   3
ATOM      3  C   UNL     1       7.773   9.069  17.945  0.00  0.00    +0.000 C 
BRANCH   3   4
ATOM      4  C   UNL     1       8.929   9.589  18.789  0.00  0.00    +0.000 C 
BRANCH   4   5
ATOM      5  C   UNL     1       9.299  10.999  18.375  0.00  0.00    +0.000 C 
ATOM      6  O   UNL     1       8.590  11.699  17.658  0.00  0.00    +0.000 OA
ATOM      7  N   UNL     1      10.516  11.411  18.887  0.00  0.00    +0.000 N 
ATOM      8  H   UNL     1      10.973  10.839  19.592  0.00  0.00    +0.000 HD
BRANCH   7   9
ATOM      9  C   UNL     1      11.008  12.768  18.658  0.00  0.00    +0.000 C 
ATOM     10  C   UNL     1      10.725  13.163  17.203  0.00  0.00    +0.000 C 
BRANCH   9  11
ATOM     11  C   UNL     1      10.463  13.767  19.730  0.00  0.00    +0.000 C 
ATOM     12  C   UNL     1      10.158  13.002  21.037  0.00  0.00    +0.000 C 
ATOM     13  C   UNL     1      11.526  14.835  20.056  0.00  0.00    +0.000 C 
ATOM     14  C   UNL     1       9.179  14.483  19.269  0.00  0.00    +0.000 C 
ENDBRANCH   9  11
ENDBRANCH   7   9
ENDBRANCH   4   5
ENDBRANCH   3   4
ENDBRANCH   2   3
ENDBRANCH   1   2
BRANCH   1  15
ATOM     15  C   UNL     1       7.229   5.307  17.324  0.00  0.00    +0.000 C 
BRANCH  15  16
ATOM     16  C   UNL     1       6.754   5.388  15.873  0.00  0.00    +0.000 C 
BRANCH  16  17
ATOM     17  C   UNL     1       5.316   4.899  15.771  0.00  0.00    +0.000 C 
BRANCH  17  19
ATOM     18  C   UNL     1       3.917   3.887  17.572  0.00  0.00    +0.000 C 
ATOM     19  C   UNL     1       4.984   3.816  16.757  0.00  0.00    +0.000 C 
BRANCH  18  20
ATOM     20  C   UNL     1       2.963   5.050  17.574  0.00  0.00    +0.000 C 
BRANCH  20  22
ATOM     21  C   UNL     1       2.924   6.395  19.704  0.00  0.00    +0.000 C 
ATOM     22  C   UNL     1       3.401   6.176  18.467  0.00  0.00    +0.000 C 
BRANCH  21  23
ATOM     23  C   UNL     1       1.847   5.554  20.328  0.00  0.00    +0.000 C 
BRANCH  23  24
ATOM     24  C   UNL     1       2.384   4.314  21.035  0.00  0.00    +0.000 C 
BRANCH  24  25
ATOM     25  C   UNL     1       1.284   3.257  21.138  0.00  0.00    +0.000 C 
BRANCH  25  27
ATOM     26  C   UNL     1       1.519   1.925  19.022  0.00  0.00    +0.000 C 
ATOM     27  C   UNL     1       0.681   2.948  19.773  0.00  0.00    +0.000 C 
ENDBRANCH  25  27
ENDBRANCH  24  25
ENDBRANCH  23  24
ENDBRANCH  21  23
ENDBRANCH  20  22
ENDBRANCH  18  20
ENDBRANCH  17  19
ENDBRANCH  16  17
ENDBRANCH  15  16
ENDBRANCH   1  15
TORSDOF 16
ENDMDL
MODEL 7
REMARK VINA RESULT:      -5.7      2.639      8.545
REMARK  Name = 
REMARK  21 active torsions:
REMARK  status: ('A' for Active; 'I' for Inactive)
REMARK    1  A    between atoms: C_1  and  C_2
REMARK    2  A    between atoms: C_2  and  C_3
REMARK    3  A    between atoms: C_3  and  C_4
REMARK    4  A    between atoms: C_4  and  C_5
REMARK    5  A    between atoms: C_5  and  C_6
REMARK    6  A    between atoms: C_7  and  C_8
REMARK    7  A    between atoms: C_8  and  C_9
REMARK    8  A    between atoms: C_10  and  C_11
REMARK    9  A    between atoms: C_11  and  C_12
REMARK   10  A    between atoms: C_12  and  C_13
REMARK   11  A    between atoms: C_13  and  C_14
REMARK   12  A    between atoms: C_14  and  C_15
REMARK   13  A    between atoms: C_15  and  C_16
REMARK   14  A    between atoms: C_16  and  C_17
REMARK   15  A    between atoms: C_17  and  C_18
REMARK   16  A    between atoms: N_20  and  C_21
REMARK   17  A    between atoms: C_21  and  C_22
REMARK   18  A    between atoms: C_21  and  C_23
REMARK   19  A    between atoms: C_23  and  C_24
REMARK   20  A    between atoms: C_23  and  C_25
REMARK   21  A    between atoms: C_23  and  C_26
REMARK                            x       y       z     vdW  Elec       q    Type
REMARK                         _______ _______ _______ _____ _____    ______ ____
ROOT
ATOM      1  C   UNL     1       2.124   5.064  20.598  0.00  0.00    +0.000 C 
ENDROOT
BRANCH   1   2
ATOM      2  C   UNL     1       1.263   3.877  20.171  0.00  0.00    +0.000 C 
BRANCH   2   3
ATOM      3  C   UNL     1       1.260   3.778  18.649  0.00  0.00    +0.000 C 
BRANCH   3   4
ATOM      4  C   UNL     1       1.943   2.520  18.133  0.00  0.00    +0.000 C 
BRANCH   4   5
ATOM      5  C   UNL     1       3.433   2.748  17.979  0.00  0.00    +0.000 C 
ATOM      6  O   UNL     1       4.283   2.027  18.495  0.00  0.00    +0.000 OA
ATOM      7  N   UNL     1       3.734   3.852  17.201  0.00  0.00    +0.000 N 
ATOM      8  H   UNL     1       2.987   4.309  16.686  0.00  0.00    +0.000 HD
BRANCH   7   9
ATOM      9  C   UNL     1       5.118   4.190  16.879  0.00  0.00    +0.000 C 
ATOM     10  C   UNL     1       5.265   4.303  15.356  0.00  0.00    +0.000 C 
BRANCH   9  11
ATOM     11  C   UNL     1       5.609   5.438  17.683  0.00  0.00    +0.000 C 
ATOM     12  C   UNL     1       6.976   5.901  17.130  0.00  0.00    +0.000 C 
ATOM     13  C   UNL     1       4.619   6.609  17.511  0.00  0.00    +0.000 C 
ATOM     14  C   UNL     1       5.760   5.147  19.188  0.00  0.00    +0.000 C 
ENDBRANCH   9  11
ENDBRANCH   7   9
ENDBRANCH   4   5
ENDBRANCH   3   4
ENDBRANCH   2   3
ENDBRANCH   1   2
BRANCH   1  15
ATOM     15  C   UNL     1       1.877   6.286  19.728  0.00  0.00    +0.000 C 
BRANCH  15  16
ATOM     16  C   UNL     1       2.145   7.570  20.513  0.00  0.00    +0.000 C 
BRANCH  16  17
ATOM     17  C   UNL     1       0.830   8.269  20.826  0.00  0.00    +0.000 C 
BRANCH  17  19
ATOM     18  C   UNL     1       0.127  10.186  22.261  0.00  0.00    +0.000 C 
ATOM     19  C   UNL     1       0.873   9.080  22.091  0.00  0.00    +0.000 C 
BRANCH  18  20
ATOM     20  C   UNL     1      -0.810  10.714  21.210  0.00  0.00    +0.000 C 
BRANCH  20  22
ATOM     21  C   UNL     1      -0.417  11.689  18.920  0.00  0.00    +0.000 C 
ATOM     22  C   UNL     1      -0.147  11.647  20.237  0.00  0.00    +0.000 C 
BRANCH  21  23
ATOM     23  C   UNL     1      -1.391  10.762  18.253  0.00  0.00    +0.000 C 
BRANCH  23  24
ATOM     24  C   UNL     1      -2.795  11.348  18.133  0.00  0.00    +0.000 C 
BRANCH  24  25
ATOM     25  C   UNL     1      -3.515  10.732  16.933  0.00  0.00    +0.000 C 
BRANCH  25  27
ATOM     26  C   UNL     1      -3.053   9.987  14.580  0.00  0.00    +0.000 C 
ATOM     27  C   UNL     1      -2.795  11.056  15.629  0.00  0.00    +0.000 C 
ENDBRANCH  25  27
ENDBRANCH  24  25
ENDBRANCH  23  24
ENDBRANCH  21  23
ENDBRANCH  20  22
ENDBRANCH  18  20
ENDBRANCH  17  19
ENDBRANCH  16  17
ENDBRANCH  15  16
ENDBRANCH   1  15
TORSDOF 16
ENDMDL
MODEL 8
REMARK VINA RESULT:      -5.7      1.133      4.099
REMARK  Name = 
REMARK  21 active torsions:
REMARK  status: ('A' for Active; 'I' for Inactive)
REMARK    1  A    between atoms: C_1  and  C_2
REMARK    2  A    between atoms: C_2  and  C_3
REMARK    3  A    between atoms: C_3  and  C_4
REMARK    4  A    between atoms: C_4  and  C_5
REMARK    5  A    between atoms: C_5  and  C_6
REMARK    6  A    between atoms: C_7  and  C_8
REMARK    7  A    between atoms: C_8  and  C_9
REMARK    8  A    between atoms: C_10  and  C_11
REMARK    9  A    between atoms: C_11  and  C_12
REMARK   10  A    between atoms: C_12  and  C_13
REMARK   11  A    between atoms: C_13  and  C_14
REMARK   12  A    between atoms: C_14  and  C_15
REMARK   13  A    between atoms: C_15  and  C_16
REMARK   14  A    between atoms: C_16  and  C_17
REMARK   15  A    between atoms: C_17  and  C_18
REMARK   16  A    between atoms: N_20  and  C_21
REMARK   17  A    between atoms: C_21  and  C_22
REMARK   18  A    between atoms: C_21  and  C_23
REMARK   19  A    between atoms: C_23  and  C_24
REMARK   20  A    between atoms: C_23  and  C_25
REMARK   21  A    between atoms: C_23  and  C_26
REMARK                            x       y       z     vdW  Elec       q    Type
REMARK                         _______ _______ _______ _____ _____    ______ ____
ROOT
ATOM      1  C   UNL     1       5.454   4.955  19.187  0.00  0.00    +0.000 C 
ENDROOT
BRANCH   1   2
ATOM      2  C   UNL     1       4.439   6.038  19.545  0.00  0.00    +0.000 C 
BRANCH   2   3
ATOM      3  C   UNL     1       3.752   6.525  18.274  0.00  0.00    +0.000 C 
BRANCH   3   4
ATOM      4  C   UNL     1       2.273   6.830  18.476  0.00  0.00    +0.000 C 
BRANCH   4   5
ATOM      5  C   UNL     1       1.993   8.298  18.226  0.00  0.00    +0.000 C 
ATOM      6  O   UNL     1       2.464   8.922  17.279  0.00  0.00    +0.000 OA
ATOM      7  N   UNL     1       1.157   8.858  19.174  0.00  0.00    +0.000 N 
ATOM      8  H   UNL     1       0.687   8.249  19.839  0.00  0.00    +0.000 HD
BRANCH   7   9
ATOM      9  C   UNL     1       0.714  10.246  19.060  0.00  0.00    +0.000 C 
ATOM     10  C   UNL     1      -0.512  10.307  18.140  0.00  0.00    +0.000 C 
BRANCH   9  11
ATOM     11  C   UNL     1       0.517  10.905  20.465  0.00  0.00    +0.000 C 
ATOM     12  C   UNL     1       1.324  12.222  20.532  0.00  0.00    +0.000 C 
ATOM     13  C   UNL     1      -0.968  11.260  20.686  0.00  0.00    +0.000 C 
ATOM     14  C   UNL     1       0.974   9.988  21.615  0.00  0.00    +0.000 C 
ENDBRANCH   9  11
ENDBRANCH   7   9
ENDBRANCH   4   5
ENDBRANCH   3   4
ENDBRANCH   2   3
ENDBRANCH   1   2
BRANCH   1  15
ATOM     15  C   UNL     1       6.868   5.509  19.111  0.00  0.00    +0.000 C 
BRANCH  15  16
ATOM     16  C   UNL     1       7.534   5.107  17.794  0.00  0.00    +0.000 C 
BRANCH  16  17
ATOM     17  C   UNL     1       6.854   5.816  16.632  0.00  0.00    +0.000 C 
BRANCH  17  19
ATOM     18  C   UNL     1       6.166   3.889  15.204  0.00  0.00    +0.000 C 
ATOM     19  C   UNL     1       6.873   5.023  15.356  0.00  0.00    +0.000 C 
BRANCH  18  20
ATOM     20  C   UNL     1       5.300   3.310  16.288  0.00  0.00    +0.000 C 
BRANCH  20  22
ATOM     21  C   UNL     1       2.867   3.285  16.945  0.00  0.00    +0.000 C 
ATOM     22  C   UNL     1       3.889   3.827  16.260  0.00  0.00    +0.000 C 
BRANCH  21  23
ATOM     23  C   UNL     1       3.010   2.053  17.791  0.00  0.00    +0.000 C 
BRANCH  23  24
ATOM     24  C   UNL     1       2.333   2.176  19.153  0.00  0.00    +0.000 C 
BRANCH  24  25
ATOM     25  C   UNL     1       1.341   3.339  19.138  0.00  0.00    +0.000 C 
BRANCH  25  27
ATOM     26  C   UNL     1       2.165   3.946  21.431  0.00  0.00    +0.000 C 
ATOM     27  C   UNL     1       0.941   3.745  20.552  0.00  0.00    +0.000 C 
ENDBRANCH  25  27
ENDBRANCH  24  25
ENDBRANCH  23  24
ENDBRANCH  21  23
ENDBRANCH  20  22
ENDBRANCH  18  20
ENDBRANCH  17  19
ENDBRANCH  16  17
ENDBRANCH  15  16
ENDBRANCH   1  15
TORSDOF 16
ENDMDL
MODEL 9
REMARK VINA RESULT:      -5.7      5.847      8.087
REMARK  Name = 
REMARK  21 active torsions:
REMARK  status: ('A' for Active; 'I' for Inactive)
REMARK    1  A    between atoms: C_1  and  C_2
REMARK    2  A    between atoms: C_2  and  C_3
REMARK    3  A    between atoms: C_3  and  C_4
REMARK    4  A    between atoms: C_4  and  C_5
REMARK    5  A    between atoms: C_5  and  C_6
REMARK    6  A    between atoms: C_7  and  C_8
REMARK    7  A    between atoms: C_8  and  C_9
REMARK    8  A    between atoms: C_10  and  C_11
REMARK    9  A    between atoms: C_11  and  C_12
REMARK   10  A    between atoms: C_12  and  C_13
REMARK   11  A    between atoms: C_13  and  C_14
REMARK   12  A    between atoms: C_14  and  C_15
REMARK   13  A    between atoms: C_15  and  C_16
REMARK   14  A    between atoms: C_16  and  C_17
REMARK   15  A    between atoms: C_17  and  C_18
REMARK   16  A    between atoms: N_20  and  C_21
REMARK   17  A    between atoms: C_21  and  C_22
REMARK   18  A    between atoms: C_21  and  C_23
REMARK   19  A    between atoms: C_23  and  C_24
REMARK   20  A    between atoms: C_23  and  C_25
REMARK   21  A    between atoms: C_23  and  C_26
REMARK                            x       y       z     vdW  Elec       q    Type
REMARK                         _______ _______ _______ _____ _____    ______ ____
ROOT
ATOM      1  C   UNL     1       7.939   8.165  17.334  0.00  0.00    +0.000 C 
ENDROOT
BRANCH   1   2
ATOM      2  C   UNL     1       8.507   8.744  18.628  0.00  0.00    +0.000 C 
BRANCH   2   3
ATOM      3  C   UNL     1       9.116  10.112  18.344  0.00  0.00    +0.000 C 
BRANCH   3   4
ATOM      4  C   UNL     1       9.613  10.816  19.600  0.00  0.00    +0.000 C 
BRANCH   4   5
ATOM      5  C   UNL     1      10.555  11.947  19.239  0.00  0.00    +0.000 C 
ATOM      6  O   UNL     1      11.655  11.770  18.723  0.00  0.00    +0.000 OA
ATOM      7  N   UNL     1      10.047  13.195  19.554  0.00  0.00    +0.000 N 
ATOM      8  H   UNL     1       9.074  13.274  19.837  0.00  0.00    +0.000 HD
BRANCH   7   9
ATOM      9  C   UNL     1      10.779  14.412  19.214  0.00  0.00    +0.000 C 
ATOM     10  C   UNL     1      10.359  14.876  17.814  0.00  0.00    +0.000 C 
BRANCH   9  11
ATOM     11  C   UNL     1      10.647  15.496  20.334  0.00  0.00    +0.000 C 
ATOM     12  C   UNL     1       9.521  16.486  19.961  0.00  0.00    +0.000 C 
ATOM     13  C   UNL     1      10.260  14.837  21.674  0.00  0.00    +0.000 C 
ATOM     14  C   UNL     1      11.951  16.290  20.542  0.00  0.00    +0.000 C 
ENDBRANCH   9  11
ENDBRANCH   7   9
ENDBRANCH   4   5
ENDBRANCH   3   4
ENDBRANCH   2   3
ENDBRANCH   1   2
BRANCH   1  15
ATOM     15  C   UNL     1       6.858   7.130  17.604  0.00  0.00    +0.000 C 
BRANCH  15  16
ATOM     16  C   UNL     1       7.452   5.897  18.288  0.00  0.00    +0.000 C 
BRANCH  16  17
ATOM     17  C   UNL     1       7.327   4.688  17.372  0.00  0.00    +0.000 C 
BRANCH  17  19
ATOM     18  C   UNL     1       5.046   4.310  16.435  0.00  0.00    +0.000 C 
ATOM     19  C   UNL     1       6.272   4.848  16.314  0.00  0.00    +0.000 C 
BRANCH  18  20
ATOM     20  C   UNL     1       4.617   3.504  17.630  0.00  0.00    +0.000 C 
BRANCH  20  22
ATOM     21  C   UNL     1       2.148   3.107  17.934  0.00  0.00    +0.000 C 
ATOM     22  C   UNL     1       3.334   2.753  17.411  0.00  0.00    +0.000 C 
BRANCH  21  23
ATOM     23  C   UNL     1       1.974   4.283  18.850  0.00  0.00    +0.000 C 
BRANCH  23  24
ATOM     24  C   UNL     1       1.875   5.614  18.110  0.00  0.00    +0.000 C 
BRANCH  24  25
ATOM     25  C   UNL     1       2.885   6.607  18.686  0.00  0.00    +0.000 C 
BRANCH  25  27
ATOM     26  C   UNL     1       2.185   8.861  17.830  0.00  0.00    +0.000 C 
ATOM     27  C   UNL     1       3.188   7.726  17.698  0.00  0.00    +0.000 C 
ENDBRANCH  25  27
ENDBRANCH  24  25
ENDBRANCH  23  24
ENDBRANCH  21  23
ENDBRANCH  20  22
ENDBRANCH  18  20
ENDBRANCH  17  19
ENDBRANCH  16  17
ENDBRANCH  15  16
ENDBRANCH   1  15
TORSDOF 16
ENDMDL
