MODEL 1
REMARK VINA RESULT:      -7.5      0.000      0.000
REMARK  Name = 
REMARK  9 active torsions:
REMARK  status: ('A' for Active; 'I' for Inactive)
REMARK    1  A    between atoms: C_1  and  C_2
REMARK    2  A    between atoms: C_6  and  N_7
REMARK    3  A    between atoms: N_10  and  C_11
REMARK    4  A    between atoms: N_10  and  C_18
REMARK    5  A    between atoms: C_11  and  C_12
REMARK    6  A    between atoms: C_18  and  C_19
REMARK    7  A    between atoms: C_19  and  C_20
REMARK    8  A    between atoms: C_19  and  C_21
REMARK    9  A    between atoms: C_19  and  O_22
REMARK                            x       y       z     vdW  Elec       q    Type
REMARK                         _______ _______ _______ _____ _____    ______ ____
ROOT
ATOM      1  N   UNL     1       4.923   4.502  17.387  0.00  0.00    +0.000 N 
ATOM      2  C   UNL     1       4.510   5.159  18.517  0.00  0.00    +0.000 C 
ATOM      3  O   UNL     1       5.275   5.865  19.168  0.00  0.00    +0.000 OA
ATOM      4  N   UNL     1       3.167   5.007  18.831  0.00  0.00    +0.000 N 
ATOM      5  H   UNL     1       4.449   3.636  17.194  0.00  0.00    +0.000 HD
ENDROOT
BRANCH   1  11
ATOM      6  C   UNL     1       7.551   6.692  17.396  0.00  0.00    +0.000 C 
ATOM      7  C   UNL     1       6.694   5.979  16.363  0.00  0.00    +0.000 C 
ATOM      8  O   UNL     1       7.464   5.786  15.165  0.00  0.00    +0.000 OA
ATOM      9  C   UNL     1       6.879   4.658  14.503  0.00  0.00    +0.000 C 
ATOM     10  C   UNL     1       6.508   3.687  15.605  0.00  0.00    +0.000 C 
ATOM     11  C   UNL     1       6.264   4.577  16.817  0.00  0.00    +0.000 C 
ENDBRANCH   1  11
BRANCH   4  12
ATOM     12  C   UNL     1       2.661   5.674  20.040  0.00  0.00    +0.000 C 
BRANCH  12  13
ATOM     13  C   UNL     1       2.115   7.062  19.775  0.00  0.00    +0.000 A 
ATOM     14  C   UNL     1       1.436   7.764  20.781  0.00  0.00    +0.000 A 
ATOM     15  C   UNL     1       0.933   9.044  20.541  0.00  0.00    +0.000 A 
ATOM     16  C   UNL     1       1.106   9.642  19.294  0.00  0.00    +0.000 A 
ATOM     17  C   UNL     1       1.793   8.963  18.290  0.00  0.00    +0.000 A 
ATOM     18  C   UNL     1       2.297   7.682  18.528  0.00  0.00    +0.000 A 
ENDBRANCH  12  13
ENDBRANCH   4  12
BRANCH   4  19
ATOM     19  C   UNL     1       2.181   4.253  18.034  0.00  0.00    +0.000 C 
BRANCH  19  20
ATOM     20  C   UNL     1       1.967   2.774  18.464  0.00  0.00    +0.000 C 
ATOM     21  C   UNL     1       2.942   2.264  19.528  0.00  0.00    +0.000 C 
ATOM     22  C   UNL     1       0.535   2.624  18.993  0.00  0.00    +0.000 C 
BRANCH  20  23
ATOM     23  O   UNL     1       2.079   1.920  17.319  0.00  0.00    +0.000 OA
ATOM     24  H   UNL     1       1.948   1.008  17.634  0.00  0.00    +0.000 HD
ENDBRANCH  20  23
ENDBRANCH  19  20
ENDBRANCH   4  19
TORSDOF 6
ENDMDL
MODEL 2
REMARK VINA RESULT:      -7.4      0.179      1.044
REMARK  Name = 
REMARK  9 active torsions:
REMARK  status: ('A' for Active; 'I' for Inactive)
REMARK    1  A    between atoms: C_1  and  C_2
REMARK    2  A    between atoms: C_6  and  N_7
REMARK    3  A    between atoms: N_10  and  C_11
REMARK    4  A    between atoms: N_10  and  C_18
REMARK    5  A    between atoms: C_11  and  C_12
REMARK    6  A    between atoms: C_18  and  C_19
REMARK    7  A    between atoms: C_19  and  C_20
REMARK    8  A    between atoms: C_19  and  C_21
REMARK    9  A    between atoms: C_19  and  O_22
REMARK                            x       y       z     vdW  Elec       q    Type
REMARK                         _______ _______ _______ _____ _____    ______ ____
ROOT
ATOM      1  N   UNL     1       4.770   4.465  17.386  0.00  0.00    +0.000 N 
ATOM      2  C   UNL     1       4.418   5.166  18.511  0.00  0.00    +0.000 C 
ATOM      3  O   UNL     1       5.227   5.867  19.112  0.00  0.00    +0.000 OA
ATOM      4  N   UNL     1       3.084   5.063  18.878  0.00  0.00    +0.000 N 
ATOM      5  H   UNL     1       4.264   3.608  17.236  0.00  0.00    +0.000 HD
ENDROOT
BRANCH   1  11
ATOM      6  C   UNL     1       7.469   6.562  17.258  0.00  0.00    +0.000 C 
ATOM      7  C   UNL     1       6.550   5.862  16.270  0.00  0.00    +0.000 C 
ATOM      8  O   UNL     1       7.266   5.623  15.048  0.00  0.00    +0.000 OA
ATOM      9  C   UNL     1       6.619   4.505  14.429  0.00  0.00    +0.000 C 
ATOM     10  C   UNL     1       6.257   3.566  15.561  0.00  0.00    +0.000 C 
ATOM     11  C   UNL     1       6.090   4.484  16.765  0.00  0.00    +0.000 C 
ENDBRANCH   1  11
BRANCH   4  12
ATOM     12  C   UNL     1       2.643   5.778  20.085  0.00  0.00    +0.000 C 
BRANCH  12  13
ATOM     13  C   UNL     1       2.100   7.163  19.796  0.00  0.00    +0.000 A 
ATOM     14  C   UNL     1       2.268   7.743  18.531  0.00  0.00    +0.000 A 
ATOM     15  C   UNL     1       1.767   9.018  18.262  0.00  0.00    +0.000 A 
ATOM     16  C   UNL     1       1.089   9.728  19.250  0.00  0.00    +0.000 A 
ATOM     17  C   UNL     1       0.900   9.157  20.507  0.00  0.00    +0.000 A 
ATOM     18  C   UNL     1       1.400   7.882  20.779  0.00  0.00    +0.000 A 
ENDBRANCH  12  13
ENDBRANCH   4  12
BRANCH   4  19
ATOM     19  C   UNL     1       2.048   4.315  18.140  0.00  0.00    +0.000 C 
BRANCH  19  20
ATOM     20  C   UNL     1       1.951   2.800  18.477  0.00  0.00    +0.000 C 
ATOM     21  C   UNL     1       2.828   2.341  19.645  0.00  0.00    +0.000 C 
ATOM     22  C   UNL     1       0.488   2.467  18.798  0.00  0.00    +0.000 C 
BRANCH  20  23
ATOM     23  O   UNL     1       2.311   2.028  17.326  0.00  0.00    +0.000 OA
ATOM     24  H   UNL     1       2.121   2.579  16.546  0.00  0.00    +0.000 HD
ENDBRANCH  20  23
ENDBRANCH  19  20
ENDBRANCH   4  19
TORSDOF 6
ENDMDL
MODEL 3
REMARK VINA RESULT:      -7.3      2.275      6.064
REMARK  Name = 
REMARK  9 active torsions:
REMARK  status: ('A' for Active; 'I' for Inactive)
REMARK    1  A    between atoms: C_1  and  C_2
REMARK    2  A    between atoms: C_6  and  N_7
REMARK    3  A    between atoms: N_10  and  C_11
REMARK    4  A    between atoms: N_10  and  C_18
REMARK    5  A    between atoms: C_11  and  C_12
REMARK    6  A    between atoms: C_18  and  C_19
REMARK    7  A    between atoms: C_19  and  C_20
REMARK    8  A    between atoms: C_19  and  C_21
REMARK    9  A    between atoms: C_19  and  O_22
REMARK                            x       y       z     vdW  Elec       q    Type
REMARK                         _______ _______ _______ _____ _____    ______ ____
ROOT
ATOM      1  N   UNL     1       1.704   7.727  19.483  0.00  0.00    +0.000 N 
ATOM      2  C   UNL     1       2.647   7.433  18.532  0.00  0.00    +0.000 C 
ATOM      3  O   UNL     1       3.176   8.310  17.855  0.00  0.00    +0.000 OA
ATOM      4  N   UNL     1       2.989   6.091  18.435  0.00  0.00    +0.000 N 
ATOM      5  H   UNL     1       1.014   7.012  19.641  0.00  0.00    +0.000 HD
ENDROOT
BRANCH   1  11
ATOM      6  C   UNL     1       0.845   9.467  22.300  0.00  0.00    +0.000 C 
ATOM      7  C   UNL     1       0.215   9.133  20.957  0.00  0.00    +0.000 C 
ATOM      8  O   UNL     1      -0.707  10.173  20.597  0.00  0.00    +0.000 OA
ATOM      9  C   UNL     1      -0.799  10.136  19.168  0.00  0.00    +0.000 C 
ATOM     10  C   UNL     1       0.604   9.847  18.677  0.00  0.00    +0.000 C 
ATOM     11  C   UNL     1       1.245   9.070  19.820  0.00  0.00    +0.000 C 
ENDBRANCH   1  11
BRANCH   4  12
ATOM     12  C   UNL     1       3.986   5.704  17.425  0.00  0.00    +0.000 C 
BRANCH  12  13
ATOM     13  C   UNL     1       5.411   6.000  17.845  0.00  0.00    +0.000 A 
ATOM     14  C   UNL     1       6.177   6.944  17.147  0.00  0.00    +0.000 A 
ATOM     15  C   UNL     1       7.490   7.219  17.533  0.00  0.00    +0.000 A 
ATOM     16  C   UNL     1       8.054   6.559  18.622  0.00  0.00    +0.000 A 
ATOM     17  C   UNL     1       7.299   5.630  19.335  0.00  0.00    +0.000 A 
ATOM     18  C   UNL     1       5.986   5.352  18.951  0.00  0.00    +0.000 A 
ENDBRANCH  12  13
ENDBRANCH   4  12
BRANCH   4  19
ATOM     19  C   UNL     1       2.460   5.009  19.287  0.00  0.00    +0.000 C 
BRANCH  19  20
ATOM     20  C   UNL     1       1.823   3.812  18.525  0.00  0.00    +0.000 C 
ATOM     21  C   UNL     1       2.819   2.765  18.020  0.00  0.00    +0.000 C 
ATOM     22  C   UNL     1       0.815   3.126  19.454  0.00  0.00    +0.000 C 
BRANCH  20  23
ATOM     23  O   UNL     1       1.086   4.298  17.397  0.00  0.00    +0.000 OA
ATOM     24  H   UNL     1       0.373   3.656  17.228  0.00  0.00    +0.000 HD
ENDBRANCH  20  23
ENDBRANCH  19  20
ENDBRANCH   4  19
TORSDOF 6
ENDMDL
MODEL 4
REMARK VINA RESULT:      -7.3      2.262      5.975
REMARK  Name = 
REMARK  9 active torsions:
REMARK  status: ('A' for Active; 'I' for Inactive)
REMARK    1  A    between atoms: C_1  and  C_2
REMARK    2  A    between atoms: C_6  and  N_7
REMARK    3  A    between atoms: N_10  and  C_11
REMARK    4  A    between atoms: N_10  and  C_18
REMARK    5  A    between atoms: C_11  and  C_12
REMARK    6  A    between atoms: C_18  and  C_19
REMARK    7  A    between atoms: C_19  and  C_20
REMARK    8  A    between atoms: C_19  and  C_21
REMARK    9  A    between atoms: C_19  and  O_22
REMARK                            x       y       z     vdW  Elec       q    Type
REMARK                         _______ _______ _______ _____ _____    ______ ____
ROOT
ATOM      1  N   UNL     1       1.741   7.703  19.349  0.00  0.00    +0.000 N 
ATOM      2  C   UNL     1       2.719   7.408  18.433  0.00  0.00    +0.000 C 
ATOM      3  O   UNL     1       3.278   8.286  17.781  0.00  0.00    +0.000 OA
ATOM      4  N   UNL     1       3.057   6.065  18.342  0.00  0.00    +0.000 N 
ATOM      5  H   UNL     1       1.042   6.991  19.477  0.00  0.00    +0.000 HD
ENDROOT
BRANCH   1  11
ATOM      6  C   UNL     1       0.978   9.494  22.161  0.00  0.00    +0.000 C 
ATOM      7  C   UNL     1       0.297   9.121  20.854  0.00  0.00    +0.000 C 
ATOM      8  O   UNL     1      -0.656  10.140  20.511  0.00  0.00    +0.000 OA
ATOM      9  C   UNL     1      -0.809  10.069  19.089  0.00  0.00    +0.000 C 
ATOM     10  C   UNL     1       0.577   9.788  18.545  0.00  0.00    +0.000 C 
ATOM     11  C   UNL     1       1.277   9.047  19.676  0.00  0.00    +0.000 C 
ENDBRANCH   1  11
BRANCH   4  12
ATOM     12  C   UNL     1       4.089   5.677  17.369  0.00  0.00    +0.000 C 
BRANCH  12  13
ATOM     13  C   UNL     1       5.496   6.001  17.826  0.00  0.00    +0.000 A 
ATOM     14  C   UNL     1       6.056   5.339  18.928  0.00  0.00    +0.000 A 
ATOM     15  C   UNL     1       7.353   5.633  19.351  0.00  0.00    +0.000 A 
ATOM     16  C   UNL     1       8.110   6.589  18.677  0.00  0.00    +0.000 A 
ATOM     17  C   UNL     1       7.573   7.244  17.571  0.00  0.00    +0.000 A 
ATOM     18  C   UNL     1       6.275   6.951  17.146  0.00  0.00    +0.000 A 
ENDBRANCH  12  13
ENDBRANCH   4  12
BRANCH   4  19
ATOM     19  C   UNL     1       2.490   4.982  19.167  0.00  0.00    +0.000 C 
BRANCH  19  20
ATOM     20  C   UNL     1       1.826   3.819  18.376  0.00  0.00    +0.000 C 
ATOM     21  C   UNL     1       2.801   2.786  17.807  0.00  0.00    +0.000 C 
ATOM     22  C   UNL     1       0.835   3.104  19.303  0.00  0.00    +0.000 C 
BRANCH  20  23
ATOM     23  O   UNL     1       1.065   4.353  17.286  0.00  0.00    +0.000 OA
ATOM     24  H   UNL     1       0.501   5.057  17.654  0.00  0.00    +0.000 HD
ENDBRANCH  20  23
ENDBRANCH  19  20
ENDBRANCH   4  19
TORSDOF 6
ENDMDL
MODEL 5
REMARK VINA RESULT:      -7.3      1.006      1.091
REMARK  Name = 
REMARK  9 active torsions:
REMARK  status: ('A' for Active; 'I' for Inactive)
REMARK    1  A    between atoms: C_1  and  C_2
REMARK    2  A    between atoms: C_6  and  N_7
REMARK    3  A    between atoms: N_10  and  C_11
REMARK    4  A    between atoms: N_10  and  C_18
REMARK    5  A    between atoms: C_11  and  C_12
REMARK    6  A    between atoms: C_18  and  C_19
REMARK    7  A    between atoms: C_19  and  C_20
REMARK    8  A    between atoms: C_19  and  C_21
REMARK    9  A    between atoms: C_19  and  O_22
REMARK                            x       y       z     vdW  Elec       q    Type
REMARK                         _______ _______ _______ _____ _____    ______ ____
ROOT
ATOM      1  N   UNL     1       4.478   4.239  17.320  0.00  0.00    +0.000 N 
ATOM      2  C   UNL     1       4.342   5.183  18.305  0.00  0.00    +0.000 C 
ATOM      3  O   UNL     1       5.259   5.947  18.595  0.00  0.00    +0.000 OA
ATOM      4  N   UNL     1       3.090   5.241  18.899  0.00  0.00    +0.000 N 
ATOM      5  H   UNL     1       3.935   3.401  17.448  0.00  0.00    +0.000 HD
ENDROOT
BRANCH   1  11
ATOM      6  C   UNL     1       7.867   4.498  17.700  0.00  0.00    +0.000 C 
ATOM      7  C   UNL     1       6.802   5.048  16.766  0.00  0.00    +0.000 C 
ATOM      8  O   UNL     1       7.394   5.320  15.485  0.00  0.00    +0.000 OA
ATOM      9  C   UNL     1       6.322   5.250  14.537  0.00  0.00    +0.000 C 
ATOM     10  C   UNL     1       5.446   4.103  14.997  0.00  0.00    +0.000 C 
ATOM     11  C   UNL     1       5.670   4.045  16.502  0.00  0.00    +0.000 C 
ENDBRANCH   1  11
BRANCH   4  12
ATOM     12  C   UNL     1       2.881   6.223  19.974  0.00  0.00    +0.000 C 
BRANCH  12  13
ATOM     13  C   UNL     1       2.203   7.493  19.502  0.00  0.00    +0.000 A 
ATOM     14  C   UNL     1       1.441   8.265  20.390  0.00  0.00    +0.000 A 
ATOM     15  C   UNL     1       0.816   9.437  19.959  0.00  0.00    +0.000 A 
ATOM     16  C   UNL     1       0.948   9.855  18.636  0.00  0.00    +0.000 A 
ATOM     17  C   UNL     1       1.715   9.106  17.746  0.00  0.00    +0.000 A 
ATOM     18  C   UNL     1       2.341   7.934  18.175  0.00  0.00    +0.000 A 
ENDBRANCH  12  13
ENDBRANCH   4  12
BRANCH   4  19
ATOM     19  C   UNL     1       1.925   4.417  18.524  0.00  0.00    +0.000 C 
BRANCH  19  20
ATOM     20  C   UNL     1       1.704   3.142  19.387  0.00  0.00    +0.000 C 
ATOM     21  C   UNL     1       1.182   3.403  20.802  0.00  0.00    +0.000 C 
ATOM     22  C   UNL     1       0.714   2.227  18.657  0.00  0.00    +0.000 C 
BRANCH  20  23
ATOM     23  O   UNL     1       2.935   2.419  19.499  0.00  0.00    +0.000 OA
ATOM     24  H   UNL     1       3.636   3.077  19.656  0.00  0.00    +0.000 HD
ENDBRANCH  20  23
ENDBRANCH  19  20
ENDBRANCH   4  19
TORSDOF 6
ENDMDL
MODEL 6
REMARK VINA RESULT:      -7.3      1.013      1.499
REMARK  Name = 
REMARK  9 active torsions:
REMARK  status: ('A' for Active; 'I' for Inactive)
REMARK    1  A    between atoms: C_1  and  C_2
REMARK    2  A    between atoms: C_6  and  N_7
REMARK    3  A    between atoms: N_10  and  C_11
REMARK    4  A    between atoms: N_10  and  C_18
REMARK    5  A    between atoms: C_11  and  C_12
REMARK    6  A    between atoms: C_18  and  C_19
REMARK    7  A    between atoms: C_19  and  C_20
REMARK    8  A    between atoms: C_19  and  C_21
REMARK    9  A    between atoms: C_19  and  O_22
REMARK                            x       y       z     vdW  Elec       q    Type
REMARK                         _______ _______ _______ _____ _____    ______ ____
ROOT
ATOM      1  N   UNL     1       4.463   4.254  17.353  0.00  0.00    +0.000 N 
ATOM      2  C   UNL     1       4.323   5.203  18.333  0.00  0.00    +0.000 C 
ATOM      3  O   UNL     1       5.238   5.969  18.623  0.00  0.00    +0.000 OA
ATOM      4  N   UNL     1       3.069   5.261  18.924  0.00  0.00    +0.000 N 
ATOM      5  H   UNL     1       3.921   3.416  17.484  0.00  0.00    +0.000 HD
ENDROOT
BRANCH   1  11
ATOM      6  C   UNL     1       7.850   4.525  17.740  0.00  0.00    +0.000 C 
ATOM      7  C   UNL     1       6.786   5.066  16.799  0.00  0.00    +0.000 C 
ATOM      8  O   UNL     1       7.380   5.331  15.518  0.00  0.00    +0.000 OA
ATOM      9  C   UNL     1       6.310   5.253  14.568  0.00  0.00    +0.000 C 
ATOM     10  C   UNL     1       5.437   4.106  15.033  0.00  0.00    +0.000 C 
ATOM     11  C   UNL     1       5.658   4.058  16.539  0.00  0.00    +0.000 C 
ENDBRANCH   1  11
BRANCH   4  12
ATOM     12  C   UNL     1       2.855   6.248  19.994  0.00  0.00    +0.000 C 
BRANCH  12  13
ATOM     13  C   UNL     1       2.191   7.521  19.511  0.00  0.00    +0.000 A 
ATOM     14  C   UNL     1       2.319   7.929  18.176  0.00  0.00    +0.000 A 
ATOM     15  C   UNL     1       1.707   9.100  17.727  0.00  0.00    +0.000 A 
ATOM     16  C   UNL     1       0.956   9.878  18.605  0.00  0.00    +0.000 A 
ATOM     17  C   UNL     1       0.807   9.478  19.932  0.00  0.00    +0.000 A 
ATOM     18  C   UNL     1       1.418   8.306  20.382  0.00  0.00    +0.000 A 
ENDBRANCH  12  13
ENDBRANCH   4  12
BRANCH   4  19
ATOM     19  C   UNL     1       1.907   4.434  18.550  0.00  0.00    +0.000 C 
BRANCH  19  20
ATOM     20  C   UNL     1       1.705   3.145  19.398  0.00  0.00    +0.000 C 
ATOM     21  C   UNL     1       1.180   3.382  20.816  0.00  0.00    +0.000 C 
ATOM     22  C   UNL     1       0.727   2.225  18.656  0.00  0.00    +0.000 C 
BRANCH  20  23
ATOM     23  O   UNL     1       2.946   2.438  19.500  0.00  0.00    +0.000 OA
ATOM     24  H   UNL     1       3.392   2.765  20.301  0.00  0.00    +0.000 HD
ENDBRANCH  20  23
ENDBRANCH  19  20
ENDBRANCH   4  19
TORSDOF 6
ENDMDL
MODEL 7
REMARK VINA RESULT:      -7.1      2.358      6.121
REMARK  Name = 
REMARK  9 active torsions:
REMARK  status: ('A' for Active; 'I' for Inactive)
REMARK    1  A    between atoms: C_1  and  C_2
REMARK    2  A    between atoms: C_6  and  N_7
REMARK    3  A    between atoms: N_10  and  C_11
REMARK    4  A    between atoms: N_10  and  C_18
REMARK    5  A    between atoms: C_11  and  C_12
REMARK    6  A    between atoms: C_18  and  C_19
REMARK    7  A    between atoms: C_19  and  C_20
REMARK    8  A    between atoms: C_19  and  C_21
REMARK    9  A    between atoms: C_19  and  O_22
REMARK                            x       y       z     vdW  Elec       q    Type
REMARK                         _______ _______ _______ _____ _____    ______ ____
ROOT
ATOM      1  N   UNL     1       1.704   8.006  19.378  0.00  0.00    +0.000 N 
ATOM      2  C   UNL     1       2.608   7.591  18.434  0.00  0.00    +0.000 C 
ATOM      3  O   UNL     1       3.021   8.348  17.561  0.00  0.00    +0.000 OA
ATOM      4  N   UNL     1       3.053   6.284  18.577  0.00  0.00    +0.000 N 
ATOM      5  H   UNL     1       1.086   7.292  19.725  0.00  0.00    +0.000 HD
ENDROOT
BRANCH   1  11
ATOM      6  C   UNL     1       0.610  10.106  21.846  0.00  0.00    +0.000 C 
ATOM      7  C   UNL     1       0.069   9.531  20.548  0.00  0.00    +0.000 C 
ATOM      8  O   UNL     1      -0.887  10.446  19.989  0.00  0.00    +0.000 OA
ATOM      9  C   UNL     1      -0.904  10.182  18.581  0.00  0.00    +0.000 C 
ATOM     10  C   UNL     1       0.536   9.905  18.202  0.00  0.00    +0.000 C 
ATOM     11  C   UNL     1       1.158   9.355  19.479  0.00  0.00    +0.000 C 
ENDBRANCH   1  11
BRANCH   4  12
ATOM     12  C   UNL     1       4.014   5.770  17.589  0.00  0.00    +0.000 C 
BRANCH  12  13
ATOM     13  C   UNL     1       5.457   6.056  17.952  0.00  0.00    +0.000 A 
ATOM     14  C   UNL     1       6.196   7.006  17.234  0.00  0.00    +0.000 A 
ATOM     15  C   UNL     1       7.526   7.273  17.567  0.00  0.00    +0.000 A 
ATOM     16  C   UNL     1       8.132   6.598  18.624  0.00  0.00    +0.000 A 
ATOM     17  C   UNL     1       7.405   5.662  19.357  0.00  0.00    +0.000 A 
ATOM     18  C   UNL     1       6.075   5.394  19.026  0.00  0.00    +0.000 A 
ENDBRANCH  12  13
ENDBRANCH   4  12
BRANCH   4  19
ATOM     19  C   UNL     1       2.667   5.362  19.662  0.00  0.00    +0.000 C 
BRANCH  19  20
ATOM     20  C   UNL     1       2.022   4.024  19.201  0.00  0.00    +0.000 C 
ATOM     21  C   UNL     1       0.909   3.497  20.111  0.00  0.00    +0.000 C 
ATOM     22  C   UNL     1       1.454   4.219  17.790  0.00  0.00    +0.000 C 
BRANCH  20  23
ATOM     23  O   UNL     1       3.030   3.012  19.107  0.00  0.00    +0.000 OA
ATOM     24  H   UNL     1       2.638   2.267  18.618  0.00  0.00    +0.000 HD
ENDBRANCH  20  23
ENDBRANCH  19  20
ENDBRANCH   4  19
TORSDOF 6
ENDMDL
MODEL 8
REMARK VINA RESULT:      -7.1      2.620      6.612
REMARK  Name = 
REMARK  9 active torsions:
REMARK  status: ('A' for Active; 'I' for Inactive)
REMARK    1  A    between atoms: C_1  and  C_2
REMARK    2  A    between atoms: C_6  and  N_7
REMARK    3  A    between atoms: N_10  and  C_11
REMARK    4  A    between atoms: N_10  and  C_18
REMARK    5  A    between atoms: C_11  and  C_12
REMARK    6  A    between atoms: C_18  and  C_19
REMARK    7  A    between atoms: C_19  and  C_20
REMARK    8  A    between atoms: C_19  and  C_21
REMARK    9  A    between atoms: C_19  and  O_22
REMARK                            x       y       z     vdW  Elec       q    Type
REMARK                         _______ _______ _______ _____ _____    ______ ____
ROOT
ATOM      1  N   UNL     1       1.506   8.127  20.000  0.00  0.00    +0.000 N 
ATOM      2  C   UNL     1       2.064   8.196  18.749  0.00  0.00    +0.000 C 
ATOM      3  O   UNL     1       1.781   9.099  17.966  0.00  0.00    +0.000 OA
ATOM      4  N   UNL     1       3.000   7.212  18.464  0.00  0.00    +0.000 N 
ATOM      5  H   UNL     1       1.399   7.198  20.373  0.00  0.00    +0.000 HD
ENDROOT
BRANCH   1  11
ATOM      6  C   UNL     1       1.194  11.528  20.182  0.00  0.00    +0.000 C 
ATOM      7  C   UNL     1       1.205  10.353  21.147  0.00  0.00    +0.000 C 
ATOM      8  O   UNL     1       0.421  10.686  22.304  0.00  0.00    +0.000 OA
ATOM      9  C   UNL     1      -0.020   9.437  22.850  0.00  0.00    +0.000 C 
ATOM     10  C   UNL     1      -0.343   8.563  21.656  0.00  0.00    +0.000 C 
ATOM     11  C   UNL     1       0.562   9.093  20.552  0.00  0.00    +0.000 C 
ENDBRANCH   1  11
BRANCH   4  12
ATOM     12  C   UNL     1       3.627   7.220  17.134  0.00  0.00    +0.000 C 
BRANCH  12  13
ATOM     13  C   UNL     1       4.881   6.372  17.058  0.00  0.00    +0.000 A 
ATOM     14  C   UNL     1       4.829   5.070  16.542  0.00  0.00    +0.000 A 
ATOM     15  C   UNL     1       5.983   4.288  16.469  0.00  0.00    +0.000 A 
ATOM     16  C   UNL     1       7.204   4.797  16.906  0.00  0.00    +0.000 A 
ATOM     17  C   UNL     1       7.273   6.095  17.407  0.00  0.00    +0.000 A 
ATOM     18  C   UNL     1       6.120   6.880  17.481  0.00  0.00    +0.000 A 
ENDBRANCH  12  13
ENDBRANCH   4  12
BRANCH   4  19
ATOM     19  C   UNL     1       3.450   6.163  19.399  0.00  0.00    +0.000 C 
BRANCH  19  20
ATOM     20  C   UNL     1       2.519   4.922  19.508  0.00  0.00    +0.000 C 
ATOM     21  C   UNL     1       1.719   4.602  18.243  0.00  0.00    +0.000 C 
ATOM     22  C   UNL     1       3.375   3.703  19.873  0.00  0.00    +0.000 C 
BRANCH  20  23
ATOM     23  O   UNL     1       1.589   5.113  20.581  0.00  0.00    +0.000 OA
ATOM     24  H   UNL     1       1.162   4.252  20.740  0.00  0.00    +0.000 HD
ENDBRANCH  20  23
ENDBRANCH  19  20
ENDBRANCH   4  19
TORSDOF 6
ENDMDL
MODEL 9
REMARK VINA RESULT:      -7.1      2.615      6.591
REMARK  Name = 
REMARK  9 active torsions:
REMARK  status: ('A' for Active; 'I' for Inactive)
REMARK    1  A    between atoms: C_1  and  C_2
REMARK    2  A    between atoms: C_6  and  N_7
REMARK    3  A    between atoms: N_10  and  C_11
REMARK    4  A    between atoms: N_10  and  C_18
REMARK    5  A    between atoms: C_11  and  C_12
REMARK    6  A    between atoms: C_18  and  C_19
REMARK    7  A    between atoms: C_19  and  C_20
REMARK    8  A    between atoms: C_19  and  C_21
REMARK    9  A    between atoms: C_19  and  O_22
REMARK                            x       y       z     vdW  Elec       q    Type
REMARK                         _______ _______ _______ _____ _____    ______ ____
ROOT
ATOM      1  N   UNL     1       1.508   8.102  20.017  0.00  0.00    +0.000 N 
ATOM      2  C   UNL     1       2.058   8.170  18.762  0.00  0.00    +0.000 C 
ATOM      3  O   UNL     1       1.768   9.071  17.980  0.00  0.00    +0.000 OA
ATOM      4  N   UNL     1       2.992   7.186  18.473  0.00  0.00    +0.000 N 
ATOM      5  H   UNL     1       1.404   7.174  20.392  0.00  0.00    +0.000 HD
ENDROOT
BRANCH   1  11
ATOM      6  C   UNL     1       1.203  11.503  20.210  0.00  0.00    +0.000 C 
ATOM      7  C   UNL     1       1.214  10.326  21.171  0.00  0.00    +0.000 C 
ATOM      8  O   UNL     1       0.433  10.657  22.331  0.00  0.00    +0.000 OA
ATOM      9  C   UNL     1      -0.008   9.407  22.874  0.00  0.00    +0.000 C 
ATOM     10  C   UNL     1      -0.336   8.537  21.679  0.00  0.00    +0.000 C 
ATOM     11  C   UNL     1       0.567   9.069  20.574  0.00  0.00    +0.000 C 
ENDBRANCH   1  11
BRANCH   4  12
ATOM     12  C   UNL     1       3.610   7.192  17.138  0.00  0.00    +0.000 C 
BRANCH  12  13
ATOM     13  C   UNL     1       4.869   6.354  17.057  0.00  0.00    +0.000 A 
ATOM     14  C   UNL     1       6.099   6.874  17.483  0.00  0.00    +0.000 A 
ATOM     15  C   UNL     1       7.261   6.103  17.411  0.00  0.00    +0.000 A 
ATOM     16  C   UNL     1       7.208   4.802  16.916  0.00  0.00    +0.000 A 
ATOM     17  C   UNL     1       5.990   4.266  16.503  0.00  0.00    +0.000 A 
ATOM     18  C   UNL     1       4.827   5.035  16.575  0.00  0.00    +0.000 A 
ENDBRANCH  12  13
ENDBRANCH   4  12
BRANCH   4  19
ATOM     19  C   UNL     1       3.450   6.139  19.406  0.00  0.00    +0.000 C 
BRANCH  19  20
ATOM     20  C   UNL     1       2.509   4.908  19.540  0.00  0.00    +0.000 C 
ATOM     21  C   UNL     1       1.692   4.581  18.288  0.00  0.00    +0.000 C 
ATOM     22  C   UNL     1       3.360   3.685  19.907  0.00  0.00    +0.000 C 
BRANCH  20  23
ATOM     23  O   UNL     1       1.594   5.118  20.621  0.00  0.00    +0.000 OA
ATOM     24  H   UNL     1       2.095   5.550  21.335  0.00  0.00    +0.000 HD
ENDBRANCH  20  23
ENDBRANCH  19  20
ENDBRANCH   4  19
TORSDOF 6
ENDMDL
