MODEL 1
REMARK VINA RESULT:      -7.6      0.000      0.000
REMARK  Name = 
REMARK  4 active torsions:
REMARK  status: ('A' for Active; 'I' for Inactive)
REMARK    1  A    between atoms: C_1  and  N_2
REMARK    2  A    between atoms: C_3  and  S_4
REMARK    3  A    between atoms: S_4  and  C_5
REMARK    4  A    between atoms: C_17  and  C_18
REMARK                            x       y       z     vdW  Elec       q    Type
REMARK                         _______ _______ _______ _____ _____    ______ ____
ROOT
ATOM      1  C   UNL     1       1.587   7.760  20.630  0.00  0.00    +0.000 C 
ATOM      2  N   UNL     1       1.862   8.323  19.333  0.00  0.00    +0.000 N 
ATOM      3  C   UNL     1       1.731   9.637  18.961  0.00  0.00    +0.000 A 
ATOM      4  N   UNL     1       2.005   9.763  17.685  0.00  0.00    +0.000 NA
ATOM      5  N   UNL     1       2.364   8.527  17.215  0.00  0.00    +0.000 NA
ATOM      6  C   UNL     1       2.288   7.643  18.197  0.00  0.00    +0.000 A 
ENDROOT
BRANCH   6   7
ATOM      7  C   UNL     1       2.618   6.208  18.070  0.00  0.00    +0.000 A 
ATOM      8  C   UNL     1       1.618   5.237  18.280  0.00  0.00    +0.000 A 
ATOM      9  C   UNL     1       1.890   3.869  18.177  0.00  0.00    +0.000 A 
ATOM     10  C   UNL     1       3.182   3.441  17.904  0.00  0.00    +0.000 A 
ATOM     11 CL   UNL     1       3.521   1.759  17.804  0.00  0.00    +0.000 Cl
ATOM     12  C   UNL     1       4.202   4.368  17.718  0.00  0.00    +0.000 A 
ATOM     13  C   UNL     1       3.919   5.744  17.796  0.00  0.00    +0.000 A 
ATOM     14 CL   UNL     1       5.262   6.802  17.504  0.00  0.00    +0.000 Cl
ENDBRANCH   6   7
BRANCH   3  15
ATOM     15  S   UNL     1       1.147  10.923  19.962  0.00  0.00    +0.000 S 
BRANCH  15  16
ATOM     16  C   UNL     1      -0.481  11.045  19.323  0.00  0.00    +0.000 A 
ATOM     17  N   UNL     1      -0.829  10.488  18.184  0.00  0.00    +0.000 NA
ATOM     18  C   UNL     1      -2.146  10.796  17.892  0.00  0.00    +0.000 A 
ATOM     19  C   UNL     1      -2.862  10.356  16.760  0.00  0.00    +0.000 A 
ATOM     20  C   UNL     1      -4.198  10.734  16.592  0.00  0.00    +0.000 A 
ATOM     21  C   UNL     1      -4.817  11.550  17.534  0.00  0.00    +0.000 A 
ATOM     22 CL   UNL     1      -6.468  11.990  17.314  0.00  0.00    +0.000 Cl
ATOM     23  C   UNL     1      -4.129  12.016  18.657  0.00  0.00    +0.000 A 
ATOM     24  C   UNL     1      -2.789  11.620  18.817  0.00  0.00    +0.000 A 
ATOM     25  S   UNL     1      -1.681  12.009  20.079  0.00  0.00    +0.000 S 
ENDBRANCH  15  16
ENDBRANCH   3  15
TORSDOF 3
ENDMDL
MODEL 2
REMARK VINA RESULT:      -7.4      3.310      8.608
REMARK  Name = 
REMARK  4 active torsions:
REMARK  status: ('A' for Active; 'I' for Inactive)
REMARK    1  A    between atoms: C_1  and  N_2
REMARK    2  A    between atoms: C_3  and  S_4
REMARK    3  A    between atoms: S_4  and  C_5
REMARK    4  A    between atoms: C_17  and  C_18
REMARK                            x       y       z     vdW  Elec       q    Type
REMARK                         _______ _______ _______ _____ _____    ______ ____
ROOT
ATOM      1  C   UNL     1       1.366  11.957  20.552  0.00  0.00    +0.000 C 
ATOM      2  N   UNL     1       0.326  11.293  19.808  0.00  0.00    +0.000 N 
ATOM      3  C   UNL     1       0.489  10.436  18.749  0.00  0.00    +0.000 A 
ATOM      4  N   UNL     1      -0.684  10.084  18.282  0.00  0.00    +0.000 NA
ATOM      5  N   UNL     1      -1.637  10.678  19.068  0.00  0.00    +0.000 NA
ATOM      6  C   UNL     1      -1.047  11.411  19.998  0.00  0.00    +0.000 A 
ENDROOT
BRANCH   6   7
ATOM      7  C   UNL     1      -1.754  12.186  21.039  0.00  0.00    +0.000 A 
ATOM      8  C   UNL     1      -2.459  13.354  20.687  0.00  0.00    +0.000 A 
ATOM      9  C   UNL     1      -3.136  14.120  21.641  0.00  0.00    +0.000 A 
ATOM     10  C   UNL     1      -3.083  13.756  22.981  0.00  0.00    +0.000 A 
ATOM     11 CL   UNL     1      -3.893  14.713  24.157  0.00  0.00    +0.000 Cl
ATOM     12  C   UNL     1      -2.374  12.626  23.372  0.00  0.00    +0.000 A 
ATOM     13  C   UNL     1      -1.718  11.843  22.405  0.00  0.00    +0.000 A 
ATOM     14 CL   UNL     1      -0.903  10.436  23.008  0.00  0.00    +0.000 Cl
ENDBRANCH   6   7
BRANCH   3  15
ATOM     15  S   UNL     1       1.997   9.994  18.023  0.00  0.00    +0.000 S 
BRANCH  15  16
ATOM     16  C   UNL     1       2.142   8.369  18.667  0.00  0.00    +0.000 A 
ATOM     17  N   UNL     1       2.507   7.351  17.920  0.00  0.00    +0.000 NA
ATOM     18  C   UNL     1       2.475   6.185  18.665  0.00  0.00    +0.000 A 
ATOM     19  C   UNL     1       2.820   4.901  18.198  0.00  0.00    +0.000 A 
ATOM     20  C   UNL     1       2.754   3.805  19.064  0.00  0.00    +0.000 A 
ATOM     21  C   UNL     1       2.339   3.978  20.380  0.00  0.00    +0.000 A 
ATOM     22 CL   UNL     1       2.279   2.617  21.434  0.00  0.00    +0.000 Cl
ATOM     23  C   UNL     1       1.974   5.236  20.868  0.00  0.00    +0.000 A 
ATOM     24  C   UNL     1       2.055   6.330  19.989  0.00  0.00    +0.000 A 
ATOM     25  S   UNL     1       1.690   7.990  20.276  0.00  0.00    +0.000 S 
ENDBRANCH  15  16
ENDBRANCH   3  15
TORSDOF 3
ENDMDL
MODEL 3
REMARK VINA RESULT:      -7.2      3.320      8.916
REMARK  Name = 
REMARK  4 active torsions:
REMARK  status: ('A' for Active; 'I' for Inactive)
REMARK    1  A    between atoms: C_1  and  N_2
REMARK    2  A    between atoms: C_3  and  S_4
REMARK    3  A    between atoms: S_4  and  C_5
REMARK    4  A    between atoms: C_17  and  C_18
REMARK                            x       y       z     vdW  Elec       q    Type
REMARK                         _______ _______ _______ _____ _____    ______ ____
ROOT
ATOM      1  C   UNL     1       1.261   8.201  21.342  0.00  0.00    +0.000 C 
ATOM      2  N   UNL     1       1.622   8.293  19.950  0.00  0.00    +0.000 N 
ATOM      3  C   UNL     1       2.338   7.375  19.223  0.00  0.00    +0.000 A 
ATOM      4  N   UNL     1       2.531   7.829  18.009  0.00  0.00    +0.000 NA
ATOM      5  N   UNL     1       1.899   9.042  17.915  0.00  0.00    +0.000 NA
ATOM      6  C   UNL     1       1.340   9.338  19.077  0.00  0.00    +0.000 A 
ENDROOT
BRANCH   6   7
ATOM      7  C   UNL     1       0.557  10.560  19.351  0.00  0.00    +0.000 A 
ATOM      8  C   UNL     1       0.996  11.471  20.333  0.00  0.00    +0.000 A 
ATOM      9  C   UNL     1       0.280  12.636  20.628  0.00  0.00    +0.000 A 
ATOM     10  C   UNL     1      -0.918  12.892  19.975  0.00  0.00    +0.000 A 
ATOM     11 CL   UNL     1      -1.811  14.311  20.357  0.00  0.00    +0.000 Cl
ATOM     12  C   UNL     1      -1.399  12.004  19.020  0.00  0.00    +0.000 A 
ATOM     13  C   UNL     1      -0.663  10.848  18.706  0.00  0.00    +0.000 A 
ATOM     14 CL   UNL     1      -1.343   9.839  17.470  0.00  0.00    +0.000 Cl
ENDBRANCH   6   7
BRANCH   3  15
ATOM     15  S   UNL     1       3.024   5.907  19.834  0.00  0.00    +0.000 S 
BRANCH  15  16
ATOM     16  C   UNL     1       3.937   5.425  18.416  0.00  0.00    +0.000 A 
ATOM     17  N   UNL     1       5.146   5.883  18.175  0.00  0.00    +0.000 NA
ATOM     18  C   UNL     1       5.602   5.391  16.964  0.00  0.00    +0.000 A 
ATOM     19  C   UNL     1       6.863   5.655  16.391  0.00  0.00    +0.000 A 
ATOM     20  C   UNL     1       7.202   5.083  15.161  0.00  0.00    +0.000 A 
ATOM     21  C   UNL     1       6.295   4.262  14.499  0.00  0.00    +0.000 A 
ATOM     22 CL   UNL     1       6.740   3.555  12.993  0.00  0.00    +0.000 Cl
ATOM     23  C   UNL     1       5.031   3.994  15.033  0.00  0.00    +0.000 A 
ATOM     24  C   UNL     1       4.708   4.570  16.274  0.00  0.00    +0.000 A 
ATOM     25  S   UNL     1       3.257   4.433  17.195  0.00  0.00    +0.000 S 
ENDBRANCH  15  16
ENDBRANCH   3  15
TORSDOF 3
ENDMDL
MODEL 4
REMARK VINA RESULT:      -7.1      1.189      1.612
REMARK  Name = 
REMARK  4 active torsions:
REMARK  status: ('A' for Active; 'I' for Inactive)
REMARK    1  A    between atoms: C_1  and  N_2
REMARK    2  A    between atoms: C_3  and  S_4
REMARK    3  A    between atoms: S_4  and  C_5
REMARK    4  A    between atoms: C_17  and  C_18
REMARK                            x       y       z     vdW  Elec       q    Type
REMARK                         _______ _______ _______ _____ _____    ______ ____
ROOT
ATOM      1  C   UNL     1       2.951   7.871  17.503  0.00  0.00    +0.000 C 
ATOM      2  N   UNL     1       2.314   7.769  18.792  0.00  0.00    +0.000 N 
ATOM      3  C   UNL     1       1.749   8.791  19.513  0.00  0.00    +0.000 A 
ATOM      4  N   UNL     1       1.329   8.334  20.668  0.00  0.00    +0.000 NA
ATOM      5  N   UNL     1       1.578   6.986  20.695  0.00  0.00    +0.000 NA
ATOM      6  C   UNL     1       2.170   6.625  19.568  0.00  0.00    +0.000 A 
ENDROOT
BRANCH   6   7
ATOM      7  C   UNL     1       2.575   5.244  19.231  0.00  0.00    +0.000 A 
ATOM      8  C   UNL     1       1.592   4.262  18.996  0.00  0.00    +0.000 A 
ATOM      9  C   UNL     1       1.931   2.943  18.681  0.00  0.00    +0.000 A 
ATOM     10  C   UNL     1       3.267   2.566  18.639  0.00  0.00    +0.000 A 
ATOM     11 CL   UNL     1       3.684   0.938  18.278  0.00  0.00    +0.000 Cl
ATOM     12  C   UNL     1       4.266   3.499  18.892  0.00  0.00    +0.000 A 
ATOM     13  C   UNL     1       3.921   4.832  19.181  0.00  0.00    +0.000 A 
ATOM     14 CL   UNL     1       5.253   5.912  19.438  0.00  0.00    +0.000 Cl
ENDBRANCH   6   7
BRANCH   3  15
ATOM     15  S   UNL     1       1.721  10.461  19.060  0.00  0.00    +0.000 S 
BRANCH  15  16
ATOM     16  C   UNL     1       0.010  10.616  18.706  0.00  0.00    +0.000 A 
ATOM     17  N   UNL     1      -0.551  10.006  17.685  0.00  0.00    +0.000 NA
ATOM     18  C   UNL     1      -1.888  10.354  17.605  0.00  0.00    +0.000 A 
ATOM     19  C   UNL     1      -2.806   9.878  16.648  0.00  0.00    +0.000 A 
ATOM     20  C   UNL     1      -4.137  10.305  16.688  0.00  0.00    +0.000 A 
ATOM     21  C   UNL     1      -4.553  11.204  17.664  0.00  0.00    +0.000 A 
ATOM     22 CL   UNL     1      -6.201  11.703  17.704  0.00  0.00    +0.000 Cl
ATOM     23  C   UNL     1      -3.663  11.707  18.617  0.00  0.00    +0.000 A 
ATOM     24  C   UNL     1      -2.330  11.262  18.569  0.00  0.00    +0.000 A 
ATOM     25  S   UNL     1      -1.005  11.677  19.590  0.00  0.00    +0.000 S 
ENDBRANCH  15  16
ENDBRANCH   3  15
TORSDOF 3
ENDMDL
MODEL 5
REMARK VINA RESULT:      -7.0      3.267      8.696
REMARK  Name = 
REMARK  4 active torsions:
REMARK  status: ('A' for Active; 'I' for Inactive)
REMARK    1  A    between atoms: C_1  and  N_2
REMARK    2  A    between atoms: C_3  and  S_4
REMARK    3  A    between atoms: S_4  and  C_5
REMARK    4  A    between atoms: C_17  and  C_18
REMARK                            x       y       z     vdW  Elec       q    Type
REMARK                         _______ _______ _______ _____ _____    ______ ____
ROOT
ATOM      1  C   UNL     1       1.271  12.158  20.660  0.00  0.00    +0.000 C 
ATOM      2  N   UNL     1       0.311  11.430  19.868  0.00  0.00    +0.000 N 
ATOM      3  C   UNL     1       0.578  10.606  18.804  0.00  0.00    +0.000 A 
ATOM      4  N   UNL     1      -0.548  10.175  18.290  0.00  0.00    +0.000 NA
ATOM      5  N   UNL     1      -1.571  10.681  19.048  0.00  0.00    +0.000 NA
ATOM      6  C   UNL     1      -1.072  11.440  20.010  0.00  0.00    +0.000 A 
ENDROOT
BRANCH   6   7
ATOM      7  C   UNL     1      -1.873  12.140  21.036  0.00  0.00    +0.000 A 
ATOM      8  C   UNL     1      -2.653  13.257  20.676  0.00  0.00    +0.000 A 
ATOM      9  C   UNL     1      -3.419  13.953  21.616  0.00  0.00    +0.000 A 
ATOM     10  C   UNL     1      -3.386  13.571  22.951  0.00  0.00    +0.000 A 
ATOM     11 CL   UNL     1      -4.308  14.442  24.110  0.00  0.00    +0.000 Cl
ATOM     12  C   UNL     1      -2.607  12.491  23.350  0.00  0.00    +0.000 A 
ATOM     13  C   UNL     1      -1.859  11.777  22.397  0.00  0.00    +0.000 A 
ATOM     14 CL   UNL     1      -0.961  10.425  23.009  0.00  0.00    +0.000 Cl
ENDBRANCH   6   7
BRANCH   3  15
ATOM     15  S   UNL     1       2.140  10.293  18.127  0.00  0.00    +0.000 S 
BRANCH  15  16
ATOM     16  C   UNL     1       2.280   8.596  18.544  0.00  0.00    +0.000 A 
ATOM     17  N   UNL     1       1.802   8.111  19.669  0.00  0.00    +0.000 NA
ATOM     18  C   UNL     1       2.108   6.765  19.768  0.00  0.00    +0.000 A 
ATOM     19  C   UNL     1       1.740   5.914  20.830  0.00  0.00    +0.000 A 
ATOM     20  C   UNL     1       2.106   4.564  20.799  0.00  0.00    +0.000 A 
ATOM     21  C   UNL     1       2.839   4.064  19.728  0.00  0.00    +0.000 A 
ATOM     22 CL   UNL     1       3.266   2.395  19.704  0.00  0.00    +0.000 Cl
ATOM     23  C   UNL     1       3.233   4.885  18.668  0.00  0.00    +0.000 A 
ATOM     24  C   UNL     1       2.850   6.238  18.709  0.00  0.00    +0.000 A 
ATOM     25  S   UNL     1       3.164   7.494  17.572  0.00  0.00    +0.000 S 
ENDBRANCH  15  16
ENDBRANCH   3  15
TORSDOF 3
ENDMDL
MODEL 6
REMARK VINA RESULT:      -6.9      3.864      5.506
REMARK  Name = 
REMARK  4 active torsions:
REMARK  status: ('A' for Active; 'I' for Inactive)
REMARK    1  A    between atoms: C_1  and  N_2
REMARK    2  A    between atoms: C_3  and  S_4
REMARK    3  A    between atoms: S_4  and  C_5
REMARK    4  A    between atoms: C_17  and  C_18
REMARK                            x       y       z     vdW  Elec       q    Type
REMARK                         _______ _______ _______ _____ _____    ______ ____
ROOT
ATOM      1  C   UNL     1       0.900   9.556  18.038  0.00  0.00    +0.000 C 
ATOM      2  N   UNL     1       1.057   9.152  19.412  0.00  0.00    +0.000 N 
ATOM      3  C   UNL     1       0.542   9.780  20.519  0.00  0.00    +0.000 A 
ATOM      4  N   UNL     1       0.951   9.166  21.603  0.00  0.00    +0.000 NA
ATOM      5  N   UNL     1       1.708   8.093  21.210  0.00  0.00    +0.000 NA
ATOM      6  C   UNL     1       1.781   8.065  19.889  0.00  0.00    +0.000 A 
ENDROOT
BRANCH   6   7
ATOM      7  C   UNL     1       2.500   7.041  19.105  0.00  0.00    +0.000 A 
ATOM      8  C   UNL     1       3.370   7.433  18.067  0.00  0.00    +0.000 A 
ATOM      9  C   UNL     1       4.064   6.496  17.296  0.00  0.00    +0.000 A 
ATOM     10  C   UNL     1       3.866   5.139  17.517  0.00  0.00    +0.000 A 
ATOM     11 CL   UNL     1       4.699   3.987  16.551  0.00  0.00    +0.000 Cl
ATOM     12  C   UNL     1       2.995   4.711  18.512  0.00  0.00    +0.000 A 
ATOM     13  C   UNL     1       2.320   5.658  19.305  0.00  0.00    +0.000 A 
ATOM     14 CL   UNL     1       1.293   5.005  20.540  0.00  0.00    +0.000 Cl
ENDBRANCH   6   7
BRANCH   3  15
ATOM     15  S   UNL     1      -0.378  11.246  20.520  0.00  0.00    +0.000 S 
BRANCH  15  16
ATOM     16  C   UNL     1       0.926  12.384  20.231  0.00  0.00    +0.000 A 
ATOM     17  N   UNL     1       1.819  12.672  21.152  0.00  0.00    +0.000 NA
ATOM     18  C   UNL     1       2.687  13.640  20.679  0.00  0.00    +0.000 A 
ATOM     19  C   UNL     1       3.781  14.180  21.386  0.00  0.00    +0.000 A 
ATOM     20  C   UNL     1       4.588  15.150  20.783  0.00  0.00    +0.000 A 
ATOM     21  C   UNL     1       4.308  15.588  19.493  0.00  0.00    +0.000 A 
ATOM     22 CL   UNL     1       5.326  16.772  18.764  0.00  0.00    +0.000 Cl
ATOM     23  C   UNL     1       3.222  15.084  18.773  0.00  0.00    +0.000 A 
ATOM     24  C   UNL     1       2.424  14.103  19.389  0.00  0.00    +0.000 A 
ATOM     25  S   UNL     1       1.036  13.285  18.777  0.00  0.00    +0.000 S 
ENDBRANCH  15  16
ENDBRANCH   3  15
TORSDOF 3
ENDMDL
MODEL 7
REMARK VINA RESULT:      -6.9      3.448      8.954
REMARK  Name = 
REMARK  4 active torsions:
REMARK  status: ('A' for Active; 'I' for Inactive)
REMARK    1  A    between atoms: C_1  and  N_2
REMARK    2  A    between atoms: C_3  and  S_4
REMARK    3  A    between atoms: S_4  and  C_5
REMARK    4  A    between atoms: C_17  and  C_18
REMARK                            x       y       z     vdW  Elec       q    Type
REMARK                         _______ _______ _______ _____ _____    ______ ____
ROOT
ATOM      1  C   UNL     1       1.329   7.871  21.036  0.00  0.00    +0.000 C 
ATOM      2  N   UNL     1       1.693   8.148  19.670  0.00  0.00    +0.000 N 
ATOM      3  C   UNL     1       2.486   7.378  18.857  0.00  0.00    +0.000 A 
ATOM      4  N   UNL     1       2.652   7.981  17.705  0.00  0.00    +0.000 NA
ATOM      5  N   UNL     1       1.924   9.142  17.737  0.00  0.00    +0.000 NA
ATOM      6  C   UNL     1       1.334   9.259  18.915  0.00  0.00    +0.000 A 
ENDROOT
BRANCH   6   7
ATOM      7  C   UNL     1       0.451  10.377  19.311  0.00  0.00    +0.000 A 
ATOM      8  C   UNL     1       0.809  11.205  20.393  0.00  0.00    +0.000 A 
ATOM      9  C   UNL     1      -0.000  12.268  20.804  0.00  0.00    +0.000 A 
ATOM     10  C   UNL     1      -1.213  12.498  20.167  0.00  0.00    +0.000 A 
ATOM     11 CL   UNL     1      -2.220  13.789  20.690  0.00  0.00    +0.000 Cl
ATOM     12  C   UNL     1      -1.615  11.686  19.113  0.00  0.00    +0.000 A 
ATOM     13  C   UNL     1      -0.784  10.634  18.685  0.00  0.00    +0.000 A 
ATOM     14 CL   UNL     1      -1.373   9.717  17.335  0.00  0.00    +0.000 Cl
ENDBRANCH   6   7
BRANCH   3  15
ATOM     15  S   UNL     1       3.284   5.910  19.311  0.00  0.00    +0.000 S 
BRANCH  15  16
ATOM     16  C   UNL     1       4.278   5.690  17.882  0.00  0.00    +0.000 A 
ATOM     17  N   UNL     1       4.050   4.730  17.014  0.00  0.00    +0.000 NA
ATOM     18  C   UNL     1       5.019   4.749  16.026  0.00  0.00    +0.000 A 
ATOM     19  C   UNL     1       5.084   3.877  14.920  0.00  0.00    +0.000 A 
ATOM     20  C   UNL     1       6.115   4.014  13.986  0.00  0.00    +0.000 A 
ATOM     21  C   UNL     1       7.080   5.003  14.150  0.00  0.00    +0.000 A 
ATOM     22 CL   UNL     1       8.332   5.164  12.978  0.00  0.00    +0.000 Cl
ATOM     23  C   UNL     1       7.052   5.872  15.244  0.00  0.00    +0.000 A 
ATOM     24  C   UNL     1       6.004   5.727  16.171  0.00  0.00    +0.000 A 
ATOM     25  S   UNL     1       5.683   6.631  17.603  0.00  0.00    +0.000 S 
ENDBRANCH  15  16
ENDBRANCH   3  15
TORSDOF 3
ENDMDL
MODEL 8
REMARK VINA RESULT:      -6.9      1.974      2.460
REMARK  Name = 
REMARK  4 active torsions:
REMARK  status: ('A' for Active; 'I' for Inactive)
REMARK    1  A    between atoms: C_1  and  N_2
REMARK    2  A    between atoms: C_3  and  S_4
REMARK    3  A    between atoms: S_4  and  C_5
REMARK    4  A    between atoms: C_17  and  C_18
REMARK                            x       y       z     vdW  Elec       q    Type
REMARK                         _______ _______ _______ _____ _____    ______ ____
ROOT
ATOM      1  C   UNL     1       3.524   7.484  17.429  0.00  0.00    +0.000 C 
ATOM      2  N   UNL     1       2.692   7.615  18.597  0.00  0.00    +0.000 N 
ATOM      3  C   UNL     1       1.938   8.705  18.953  0.00  0.00    +0.000 A 
ATOM      4  N   UNL     1       1.369   8.487  20.114  0.00  0.00    +0.000 NA
ATOM      5  N   UNL     1       1.712   7.221  20.512  0.00  0.00    +0.000 NA
ATOM      6  C   UNL     1       2.509   6.676  19.606  0.00  0.00    +0.000 A 
ENDROOT
BRANCH   6   7
ATOM      7  C   UNL     1       3.068   5.311  19.686  0.00  0.00    +0.000 A 
ATOM      8  C   UNL     1       4.426   5.089  19.380  0.00  0.00    +0.000 A 
ATOM      9  C   UNL     1       4.993   3.812  19.436  0.00  0.00    +0.000 A 
ATOM     10  C   UNL     1       4.199   2.719  19.755  0.00  0.00    +0.000 A 
ATOM     11 CL   UNL     1       4.891   1.146  19.798  0.00  0.00    +0.000 Cl
ATOM     12  C   UNL     1       2.849   2.892  20.035  0.00  0.00    +0.000 A 
ATOM     13  C   UNL     1       2.288   4.182  20.006  0.00  0.00    +0.000 A 
ATOM     14 CL   UNL     1       0.605   4.277  20.414  0.00  0.00    +0.000 Cl
ENDBRANCH   6   7
BRANCH   3  15
ATOM     15  S   UNL     1       1.857  10.208  18.098  0.00  0.00    +0.000 S 
BRANCH  15  16
ATOM     16  C   UNL     1       0.151  10.552  18.314  0.00  0.00    +0.000 A 
ATOM     17  N   UNL     1      -0.782   9.897  17.659  0.00  0.00    +0.000 NA
ATOM     18  C   UNL     1      -2.027  10.414  17.972  0.00  0.00    +0.000 A 
ATOM     19  C   UNL     1      -3.260   9.949  17.472  0.00  0.00    +0.000 A 
ATOM     20  C   UNL     1      -4.451  10.557  17.881  0.00  0.00    +0.000 A 
ATOM     21  C   UNL     1      -4.420  11.625  18.773  0.00  0.00    +0.000 A 
ATOM     22 CL   UNL     1      -5.900  12.349  19.275  0.00  0.00    +0.000 Cl
ATOM     23  C   UNL     1      -3.212  12.119  19.273  0.00  0.00    +0.000 A 
ATOM     24  C   UNL     1      -2.024  11.492  18.860  0.00  0.00    +0.000 A 
ATOM     25  S   UNL     1      -0.395  11.849  19.293  0.00  0.00    +0.000 S 
ENDBRANCH  15  16
ENDBRANCH   3  15
TORSDOF 3
ENDMDL
MODEL 9
REMARK VINA RESULT:      -6.9      1.364      1.416
REMARK  Name = 
REMARK  4 active torsions:
REMARK  status: ('A' for Active; 'I' for Inactive)
REMARK    1  A    between atoms: C_1  and  N_2
REMARK    2  A    between atoms: C_3  and  S_4
REMARK    3  A    between atoms: S_4  and  C_5
REMARK    4  A    between atoms: C_17  and  C_18
REMARK                            x       y       z     vdW  Elec       q    Type
REMARK                         _______ _______ _______ _____ _____    ______ ____
ROOT
ATOM      1  C   UNL     1       1.420   9.087  21.112  0.00  0.00    +0.000 C 
ATOM      2  N   UNL     1       1.726   9.042  19.705  0.00  0.00    +0.000 N 
ATOM      3  C   UNL     1       1.673  10.087  18.817  0.00  0.00    +0.000 A 
ATOM      4  N   UNL     1       1.951   9.654  17.611  0.00  0.00    +0.000 NA
ATOM      5  N   UNL     1       2.236   8.317  17.706  0.00  0.00    +0.000 NA
ATOM      6  C   UNL     1       2.109   7.928  18.965  0.00  0.00    +0.000 A 
ENDROOT
BRANCH   6   7
ATOM      7  C   UNL     1       2.353   6.555  19.454  0.00  0.00    +0.000 A 
ATOM      8  C   UNL     1       1.464   5.971  20.378  0.00  0.00    +0.000 A 
ATOM      9  C   UNL     1       1.661   4.678  20.871  0.00  0.00    +0.000 A 
ATOM     10  C   UNL     1       2.783   3.956  20.483  0.00  0.00    +0.000 A 
ATOM     11 CL   UNL     1       3.039   2.376  21.111  0.00  0.00    +0.000 Cl
ATOM     12  C   UNL     1       3.698   4.508  19.595  0.00  0.00    +0.000 A 
ATOM     13  C   UNL     1       3.481   5.799  19.080  0.00  0.00    +0.000 A 
ATOM     14 CL   UNL     1       4.669   6.364  17.949  0.00  0.00    +0.000 Cl
ENDBRANCH   6   7
BRANCH   3  15
ATOM     15  S   UNL     1       1.168  11.703  19.178  0.00  0.00    +0.000 S 
BRANCH  15  16
ATOM     16  C   UNL     1      -0.557  11.510  18.924  0.00  0.00    +0.000 A 
ATOM     17  N   UNL     1      -1.045  10.617  18.092  0.00  0.00    +0.000 NA
ATOM     18  C   UNL     1      -2.424  10.727  18.040  0.00  0.00    +0.000 A 
ATOM     19  C   UNL     1      -3.285   9.922  17.268  0.00  0.00    +0.000 A 
ATOM     20  C   UNL     1      -4.666  10.134  17.317  0.00  0.00    +0.000 A 
ATOM     21  C   UNL     1      -5.190  11.142  18.119  0.00  0.00    +0.000 A 
ATOM     22 CL   UNL     1      -6.896  11.375  18.176  0.00  0.00    +0.000 Cl
ATOM     23  C   UNL     1      -4.362  11.969  18.883  0.00  0.00    +0.000 A 
ATOM     24  C   UNL     1      -2.976  11.738  18.830  0.00  0.00    +0.000 A 
ATOM     25  S   UNL     1      -1.701  12.562  19.647  0.00  0.00    +0.000 S 
ENDBRANCH  15  16
ENDBRANCH   3  15
TORSDOF 3
ENDMDL
