MODEL 1
REMARK VINA RESULT:      -7.6      0.000      0.000
REMARK  Name = 
REMARK  6 active torsions:
REMARK  status: ('A' for Active; 'I' for Inactive)
REMARK    1  A    between atoms: C_1  and  C_2
REMARK    2  A    between atoms: C_2  and  C_3
REMARK    3  A    between atoms: C_11  and  O_12
REMARK    4  A    between atoms: O_12  and  C_13
REMARK    5  A    between atoms: C_13  and  C_14
REMARK    6  A    between atoms: C_14  and  O_16
REMARK                            x       y       z     vdW  Elec       q    Type
REMARK                         _______ _______ _______ _____ _____    ______ ____
ROOT
ATOM      1  C   UNL     1       7.258   5.023  16.534  0.00  0.00    +0.000 C 
ATOM      2  C   UNL     1       5.891   4.730  15.878  0.00  0.00    +0.000 C 
ATOM      3  C   UNL     1       5.093   3.723  16.743  0.00  0.00    +0.000 C 
ATOM      4  C   UNL     1       4.303   4.602  17.663  0.00  0.00    +0.000 A 
ATOM      5  C   UNL     1       3.682   4.206  18.835  0.00  0.00    +0.000 A 
ATOM      6  C   UNL     1       3.014   5.164  19.605  0.00  0.00    +0.000 A 
ATOM      7  C   UNL     1       2.892   6.493  19.124  0.00  0.00    +0.000 A 
ATOM      8 CL   UNL     1       2.010   7.644  20.085  0.00  0.00    +0.000 Cl
ATOM      9  C   UNL     1       3.497   6.880  17.907  0.00  0.00    +0.000 A 
ATOM     10 CL   UNL     1       3.411   8.506  17.332  0.00  0.00    +0.000 Cl
ATOM     11  C   UNL     1       4.209   5.915  17.209  0.00  0.00    +0.000 A 
ATOM     12  C   UNL     1       5.037   6.003  15.997  0.00  0.00    +0.000 C 
ATOM     13  O   UNL     1       5.080   6.983  15.276  0.00  0.00    +0.000 OA
ENDROOT
BRANCH   2  14
ATOM     14  C   UNL     1       6.106   4.325  14.429  0.00  0.00    +0.000 A 
ATOM     15  C   UNL     1       5.226   3.620  13.617  0.00  0.00    +0.000 A 
ATOM     16  C   UNL     1       5.691   3.472  12.282  0.00  0.00    +0.000 A 
ATOM     17  C   UNL     1       6.920   4.059  12.099  0.00  0.00    +0.000 A 
ATOM     18  S   UNL     1       7.485   4.810  13.523  0.00  0.00    +0.000 S 
ENDBRANCH   2  14
BRANCH   6  19
ATOM     19  O   UNL     1       2.472   4.870  20.840  0.00  0.00    +0.000 OA
BRANCH  19  20
ATOM     20  C   UNL     1       1.479   3.837  20.834  0.00  0.00    +0.000 C 
BRANCH  20  21
ATOM     21  C   UNL     1       1.822   2.718  21.800  0.00  0.00    +0.000 C 
ATOM     22  O   UNL     1       2.957   2.279  21.940  0.00  0.00    +0.000 OA
BRANCH  21  23
ATOM     23  O   UNL     1       0.764   2.249  22.492  0.00  0.00    +0.000 OA
ATOM     24  H   UNL     1       1.061   1.760  23.291  0.00  0.00    +0.000 HD
ENDBRANCH  21  23
ENDBRANCH  20  21
ENDBRANCH  19  20
ENDBRANCH   6  19
TORSDOF 5
ENDMDL
MODEL 2
REMARK VINA RESULT:      -7.5      1.206      1.332
REMARK  Name = 
REMARK  6 active torsions:
REMARK  status: ('A' for Active; 'I' for Inactive)
REMARK    1  A    between atoms: C_1  and  C_2
REMARK    2  A    between atoms: C_2  and  C_3
REMARK    3  A    between atoms: C_11  and  O_12
REMARK    4  A    between atoms: O_12  and  C_13
REMARK    5  A    between atoms: C_13  and  C_14
REMARK    6  A    between atoms: C_14  and  O_16
REMARK                            x       y       z     vdW  Elec       q    Type
REMARK                         _______ _______ _______ _____ _____    ______ ____
ROOT
ATOM      1  C   UNL     1       7.550   4.902  16.355  0.00  0.00    +0.000 C 
ATOM      2  C   UNL     1       6.213   4.535  15.676  0.00  0.00    +0.000 C 
ATOM      3  C   UNL     1       5.540   3.361  16.430  0.00  0.00    +0.000 C 
ATOM      4  C   UNL     1       4.674   4.047  17.442  0.00  0.00    +0.000 A 
ATOM      5  C   UNL     1       4.116   3.463  18.567  0.00  0.00    +0.000 A 
ATOM      6  C   UNL     1       3.361   4.256  19.437  0.00  0.00    +0.000 A 
ATOM      7  C   UNL     1       3.090   5.608  19.102  0.00  0.00    +0.000 A 
ATOM      8 CL   UNL     1       2.105   6.548  20.184  0.00  0.00    +0.000 Cl
ATOM      9  C   UNL     1       3.633   6.186  17.932  0.00  0.00    +0.000 A 
ATOM     10 CL   UNL     1       3.365   7.844  17.536  0.00  0.00    +0.000 Cl
ATOM     11  C   UNL     1       4.433   5.382  17.132  0.00  0.00    +0.000 A 
ATOM     12  C   UNL     1       5.230   5.688  15.934  0.00  0.00    +0.000 C 
ATOM     13  O   UNL     1       5.157   6.739  15.323  0.00  0.00    +0.000 OA
ENDROOT
BRANCH   2  14
ATOM     14  C   UNL     1       6.448   4.313  14.191  0.00  0.00    +0.000 A 
ATOM     15  C   UNL     1       5.664   3.566  13.321  0.00  0.00    +0.000 A 
ATOM     16  C   UNL     1       6.111   3.623  11.973  0.00  0.00    +0.000 A 
ATOM     17  C   UNL     1       7.233   4.405  11.838  0.00  0.00    +0.000 A 
ATOM     18  S   UNL     1       7.715   5.088  13.324  0.00  0.00    +0.000 S 
ENDBRANCH   2  14
BRANCH   6  19
ATOM     19  O   UNL     1       2.872   3.775  20.635  0.00  0.00    +0.000 OA
BRANCH  19  20
ATOM     20  C   UNL     1       2.086   2.581  20.532  0.00  0.00    +0.000 C 
BRANCH  20  21
ATOM     21  C   UNL     1       0.800   2.816  19.761  0.00  0.00    +0.000 C 
ATOM     22  O   UNL     1       0.448   2.120  18.817  0.00  0.00    +0.000 OA
BRANCH  21  23
ATOM     23  O   UNL     1       0.076   3.862  20.211  0.00  0.00    +0.000 OA
ATOM     24  H   UNL     1      -0.436   3.611  21.010  0.00  0.00    +0.000 HD
ENDBRANCH  21  23
ENDBRANCH  20  21
ENDBRANCH  19  20
ENDBRANCH   6  19
TORSDOF 5
ENDMDL
MODEL 3
REMARK VINA RESULT:      -7.1      0.706      1.130
REMARK  Name = 
REMARK  6 active torsions:
REMARK  status: ('A' for Active; 'I' for Inactive)
REMARK    1  A    between atoms: C_1  and  C_2
REMARK    2  A    between atoms: C_2  and  C_3
REMARK    3  A    between atoms: C_11  and  O_12
REMARK    4  A    between atoms: O_12  and  C_13
REMARK    5  A    between atoms: C_13  and  C_14
REMARK    6  A    between atoms: C_14  and  O_16
REMARK                            x       y       z     vdW  Elec       q    Type
REMARK                         _______ _______ _______ _____ _____    ______ ____
ROOT
ATOM      1  C   UNL     1       7.310   5.460  16.773  0.00  0.00    +0.000 C 
ATOM      2  C   UNL     1       5.997   5.052  16.070  0.00  0.00    +0.000 C 
ATOM      3  C   UNL     1       5.267   3.967  16.899  0.00  0.00    +0.000 C 
ATOM      4  C   UNL     1       4.370   4.760  17.800  0.00  0.00    +0.000 A 
ATOM      5  C   UNL     1       3.751   4.296  18.947  0.00  0.00    +0.000 A 
ATOM      6  C   UNL     1       2.973   5.181  19.702  0.00  0.00    +0.000 A 
ATOM      7  C   UNL     1       2.746   6.499  19.229  0.00  0.00    +0.000 A 
ATOM      8 CL   UNL     1       1.733   7.554  20.170  0.00  0.00    +0.000 Cl
ATOM      9  C   UNL     1       3.353   6.953  18.036  0.00  0.00    +0.000 A 
ATOM     10 CL   UNL     1       3.138   8.570  17.473  0.00  0.00    +0.000 Cl
ATOM     11  C   UNL     1       4.172   6.064  17.354  0.00  0.00    +0.000 A 
ATOM     12  C   UNL     1       5.028   6.241  16.171  0.00  0.00    +0.000 C 
ATOM     13  O   UNL     1       5.005   7.229  15.460  0.00  0.00    +0.000 OA
ENDROOT
BRANCH   2  14
ATOM     14  C   UNL     1       6.295   4.685  14.625  0.00  0.00    +0.000 A 
ATOM     15  C   UNL     1       7.386   5.088  13.867  0.00  0.00    +0.000 A 
ATOM     16  C   UNL     1       7.415   4.504  12.571  0.00  0.00    +0.000 A 
ATOM     17  C   UNL     1       6.342   3.673  12.359  0.00  0.00    +0.000 A 
ATOM     18  S   UNL     1       5.331   3.577  13.730  0.00  0.00    +0.000 S 
ENDBRANCH   2  14
BRANCH   6  19
ATOM     19  O   UNL     1       2.421   4.825  20.917  0.00  0.00    +0.000 OA
BRANCH  19  20
ATOM     20  C   UNL     1       1.471   3.753  20.858  0.00  0.00    +0.000 C 
BRANCH  20  21
ATOM     21  C   UNL     1       1.784   2.665  21.869  0.00  0.00    +0.000 C 
ATOM     22  O   UNL     1       0.936   2.164  22.597  0.00  0.00    +0.000 OA
BRANCH  21  23
ATOM     23  O   UNL     1       3.081   2.297  21.893  0.00  0.00    +0.000 OA
ATOM     24  H   UNL     1       3.626   2.978  22.344  0.00  0.00    +0.000 HD
ENDBRANCH  21  23
ENDBRANCH  20  21
ENDBRANCH  19  20
ENDBRANCH   6  19
TORSDOF 5
ENDMDL
MODEL 4
REMARK VINA RESULT:      -6.7      3.452      7.285
REMARK  Name = 
REMARK  6 active torsions:
REMARK  status: ('A' for Active; 'I' for Inactive)
REMARK    1  A    between atoms: C_1  and  C_2
REMARK    2  A    between atoms: C_2  and  C_3
REMARK    3  A    between atoms: C_11  and  O_12
REMARK    4  A    between atoms: O_12  and  C_13
REMARK    5  A    between atoms: C_13  and  C_14
REMARK    6  A    between atoms: C_14  and  O_16
REMARK                            x       y       z     vdW  Elec       q    Type
REMARK                         _______ _______ _______ _____ _____    ______ ____
ROOT
ATOM      1  C   UNL     1       2.479   5.577  17.744  0.00  0.00    +0.000 C 
ATOM      2  C   UNL     1       3.459   4.456  18.151  0.00  0.00    +0.000 C 
ATOM      3  C   UNL     1       3.594   3.427  17.000  0.00  0.00    +0.000 C 
ATOM      4  C   UNL     1       4.747   3.949  16.199  0.00  0.00    +0.000 A 
ATOM      5  C   UNL     1       5.068   3.585  14.902  0.00  0.00    +0.000 A 
ATOM      6  C   UNL     1       6.159   4.200  14.278  0.00  0.00    +0.000 A 
ATOM      7  C   UNL     1       6.977   5.097  15.012  0.00  0.00    +0.000 A 
ATOM      8 CL   UNL     1       8.354   5.802  14.217  0.00  0.00    +0.000 Cl
ATOM      9  C   UNL     1       6.663   5.434  16.348  0.00  0.00    +0.000 A 
ATOM     10 CL   UNL     1       7.610   6.568  17.240  0.00  0.00    +0.000 Cl
ATOM     11  C   UNL     1       5.532   4.855  16.906  0.00  0.00    +0.000 A 
ATOM     12  C   UNL     1       4.868   5.068  18.202  0.00  0.00    +0.000 C 
ATOM     13  O   UNL     1       5.355   5.710  19.114  0.00  0.00    +0.000 OA
ENDROOT
BRANCH   2  14
ATOM     14  C   UNL     1       3.041   3.886  19.496  0.00  0.00    +0.000 A 
ATOM     15  C   UNL     1       1.993   4.317  20.299  0.00  0.00    +0.000 A 
ATOM     16  C   UNL     1       1.811   3.520  21.462  0.00  0.00    +0.000 A 
ATOM     17  C   UNL     1       2.728   2.499  21.531  0.00  0.00    +0.000 A 
ATOM     18  S   UNL     1       3.773   2.489  20.183  0.00  0.00    +0.000 S 
ENDBRANCH   2  14
BRANCH   6  19
ATOM     19  O   UNL     1       6.471   3.977  12.952  0.00  0.00    +0.000 OA
BRANCH  19  20
ATOM     20  C   UNL     1       5.638   3.017  12.288  0.00  0.00    +0.000 C 
BRANCH  20  21
ATOM     21  C   UNL     1       6.457   1.967  11.559  0.00  0.00    +0.000 C 
ATOM     22  O   UNL     1       7.566   2.189  11.090  0.00  0.00    +0.000 OA
BRANCH  21  23
ATOM     23  O   UNL     1       5.852   0.764  11.475  0.00  0.00    +0.000 OA
ATOM     24  H   UNL     1       5.388   0.551  12.314  0.00  0.00    +0.000 HD
ENDBRANCH  21  23
ENDBRANCH  20  21
ENDBRANCH  19  20
ENDBRANCH   6  19
TORSDOF 5
ENDMDL
MODEL 5
REMARK VINA RESULT:      -6.6      1.276      1.516
REMARK  Name = 
REMARK  6 active torsions:
REMARK  status: ('A' for Active; 'I' for Inactive)
REMARK    1  A    between atoms: C_1  and  C_2
REMARK    2  A    between atoms: C_2  and  C_3
REMARK    3  A    between atoms: C_11  and  O_12
REMARK    4  A    between atoms: O_12  and  C_13
REMARK    5  A    between atoms: C_13  and  C_14
REMARK    6  A    between atoms: C_14  and  O_16
REMARK                            x       y       z     vdW  Elec       q    Type
REMARK                         _______ _______ _______ _____ _____    ______ ____
ROOT
ATOM      1  C   UNL     1       7.304   4.395  16.671  0.00  0.00    +0.000 C 
ATOM      2  C   UNL     1       6.127   4.500  15.677  0.00  0.00    +0.000 C 
ATOM      3  C   UNL     1       5.151   3.314  15.886  0.00  0.00    +0.000 C 
ATOM      4  C   UNL     1       4.169   3.842  16.885  0.00  0.00    +0.000 A 
ATOM      5  C   UNL     1       3.294   3.085  17.646  0.00  0.00    +0.000 A 
ATOM      6  C   UNL     1       2.465   3.732  18.569  0.00  0.00    +0.000 A 
ATOM      7  C   UNL     1       2.456   5.149  18.634  0.00  0.00    +0.000 A 
ATOM      8 CL   UNL     1       1.375   5.919  19.759  0.00  0.00    +0.000 Cl
ATOM      9  C   UNL     1       3.326   5.916  17.828  0.00  0.00    +0.000 A 
ATOM     10 CL   UNL     1       3.374   7.638  17.934  0.00  0.00    +0.000 Cl
ATOM     11  C   UNL     1       4.181   5.231  16.975  0.00  0.00    +0.000 A 
ATOM     12  C   UNL     1       5.267   5.701  16.102  0.00  0.00    +0.000 C 
ATOM     13  O   UNL     1       5.475   6.875  15.852  0.00  0.00    +0.000 OA
ENDROOT
BRANCH   2  14
ATOM     14  C   UNL     1       6.671   4.663  14.268  0.00  0.00    +0.000 A 
ATOM     15  C   UNL     1       7.697   5.505  13.859  0.00  0.00    +0.000 A 
ATOM     16  C   UNL     1       8.024   5.363  12.483  0.00  0.00    +0.000 A 
ATOM     17  C   UNL     1       7.239   4.421  11.864  0.00  0.00    +0.000 A 
ATOM     18  S   UNL     1       6.140   3.696  12.948  0.00  0.00    +0.000 S 
ENDBRANCH   2  14
BRANCH   6  19
ATOM     19  O   UNL     1       1.652   3.038  19.442  0.00  0.00    +0.000 OA
BRANCH  19  20
ATOM     20  C   UNL     1       2.345   2.307  20.462  0.00  0.00    +0.000 C 
BRANCH  20  21
ATOM     21  C   UNL     1       2.037   2.842  21.849  0.00  0.00    +0.000 C 
ATOM     22  O   UNL     1       2.594   3.821  22.328  0.00  0.00    +0.000 OA
BRANCH  21  23
ATOM     23  O   UNL     1       1.093   2.140  22.508  0.00  0.00    +0.000 OA
ATOM     24  H   UNL     1       0.363   2.729  22.799  0.00  0.00    +0.000 HD
ENDBRANCH  21  23
ENDBRANCH  20  21
ENDBRANCH  19  20
ENDBRANCH   6  19
TORSDOF 5
ENDMDL
MODEL 6
REMARK VINA RESULT:      -6.6      1.305      1.611
REMARK  Name = 
REMARK  6 active torsions:
REMARK  status: ('A' for Active; 'I' for Inactive)
REMARK    1  A    between atoms: C_1  and  C_2
REMARK    2  A    between atoms: C_2  and  C_3
REMARK    3  A    between atoms: C_11  and  O_12
REMARK    4  A    between atoms: O_12  and  C_13
REMARK    5  A    between atoms: C_13  and  C_14
REMARK    6  A    between atoms: C_14  and  O_16
REMARK                            x       y       z     vdW  Elec       q    Type
REMARK                         _______ _______ _______ _____ _____    ______ ____
ROOT
ATOM      1  C   UNL     1       7.424   5.408  16.612  0.00  0.00    +0.000 C 
ATOM      2  C   UNL     1       6.141   4.961  15.879  0.00  0.00    +0.000 C 
ATOM      3  C   UNL     1       5.497   3.762  16.620  0.00  0.00    +0.000 C 
ATOM      4  C   UNL     1       4.551   4.413  17.581  0.00  0.00    +0.000 A 
ATOM      5  C   UNL     1       3.974   3.814  18.688  0.00  0.00    +0.000 A 
ATOM      6  C   UNL     1       3.139   4.577  19.512  0.00  0.00    +0.000 A 
ATOM      7  C   UNL     1       2.813   5.908  19.145  0.00  0.00    +0.000 A 
ATOM      8 CL   UNL     1       1.731   6.808  20.168  0.00  0.00    +0.000 Cl
ATOM      9  C   UNL     1       3.377   6.499  17.992  0.00  0.00    +0.000 A 
ATOM     10 CL   UNL     1       3.040   8.136  17.559  0.00  0.00    +0.000 Cl
ATOM     11  C   UNL     1       4.255   5.730  17.241  0.00  0.00    +0.000 A 
ATOM     12  C   UNL     1       5.088   6.063  16.075  0.00  0.00    +0.000 C 
ATOM     13  O   UNL     1       4.987   7.101  15.446  0.00  0.00    +0.000 OA
ENDROOT
BRANCH   2  14
ATOM     14  C   UNL     1       6.455   4.733  14.409  0.00  0.00    +0.000 A 
ATOM     15  C   UNL     1       7.483   5.310  13.674  0.00  0.00    +0.000 A 
ATOM     16  C   UNL     1       7.557   4.826  12.339  0.00  0.00    +0.000 A 
ATOM     17  C   UNL     1       6.581   3.895  12.076  0.00  0.00    +0.000 A 
ATOM     18  S   UNL     1       5.609   3.588  13.444  0.00  0.00    +0.000 S 
ENDBRANCH   2  14
BRANCH   6  19
ATOM     19  O   UNL     1       2.622   4.086  20.694  0.00  0.00    +0.000 OA
BRANCH  19  20
ATOM     20  C   UNL     1       1.304   3.533  20.594  0.00  0.00    +0.000 C 
BRANCH  20  21
ATOM     21  C   UNL     1       1.115   2.750  19.306  0.00  0.00    +0.000 C 
ATOM     22  O   UNL     1       0.638   3.238  18.290  0.00  0.00    +0.000 OA
BRANCH  21  23
ATOM     23  O   UNL     1       1.522   1.467  19.382  0.00  0.00    +0.000 OA
ATOM     24  H   UNL     1       2.453   1.380  19.082  0.00  0.00    +0.000 HD
ENDBRANCH  21  23
ENDBRANCH  20  21
ENDBRANCH  19  20
ENDBRANCH   6  19
TORSDOF 5
ENDMDL
MODEL 7
REMARK VINA RESULT:      -6.5      3.522      7.312
REMARK  Name = 
REMARK  6 active torsions:
REMARK  status: ('A' for Active; 'I' for Inactive)
REMARK    1  A    between atoms: C_1  and  C_2
REMARK    2  A    between atoms: C_2  and  C_3
REMARK    3  A    between atoms: C_11  and  O_12
REMARK    4  A    between atoms: O_12  and  C_13
REMARK    5  A    between atoms: C_13  and  C_14
REMARK    6  A    between atoms: C_14  and  O_16
REMARK                            x       y       z     vdW  Elec       q    Type
REMARK                         _______ _______ _______ _____ _____    ______ ____
ROOT
ATOM      1  C   UNL     1       2.278   5.429  17.888  0.00  0.00    +0.000 C 
ATOM      2  C   UNL     1       3.233   4.276  18.269  0.00  0.00    +0.000 C 
ATOM      3  C   UNL     1       3.396   3.306  17.073  0.00  0.00    +0.000 C 
ATOM      4  C   UNL     1       4.580   3.853  16.337  0.00  0.00    +0.000 A 
ATOM      5  C   UNL     1       4.941   3.552  15.035  0.00  0.00    +0.000 A 
ATOM      6  C   UNL     1       6.059   4.184  14.479  0.00  0.00    +0.000 A 
ATOM      7  C   UNL     1       6.860   5.034  15.284  0.00  0.00    +0.000 A 
ATOM      8 CL   UNL     1       8.270   5.761  14.571  0.00  0.00    +0.000 Cl
ATOM      9  C   UNL     1       6.505   5.306  16.623  0.00  0.00    +0.000 A 
ATOM     10 CL   UNL     1       7.433   6.384  17.603  0.00  0.00    +0.000 Cl
ATOM     11  C   UNL     1       5.350   4.713  17.115  0.00  0.00    +0.000 A 
ATOM     12  C   UNL     1       4.646   4.868  18.397  0.00  0.00    +0.000 C 
ATOM     13  O   UNL     1       5.109   5.459  19.356  0.00  0.00    +0.000 OA
ENDROOT
BRANCH   2  14
ATOM     14  C   UNL     1       2.765   3.644  19.569  0.00  0.00    +0.000 A 
ATOM     15  C   UNL     1       3.444   2.709  20.338  0.00  0.00    +0.000 A 
ATOM     16  C   UNL     1       2.768   2.376  21.544  0.00  0.00    +0.000 A 
ATOM     17  C   UNL     1       1.582   3.057  21.671  0.00  0.00    +0.000 A 
ATOM     18  S   UNL     1       1.309   4.112  20.359  0.00  0.00    +0.000 S 
ENDBRANCH   2  14
BRANCH   6  19
ATOM     19  O   UNL     1       6.412   4.024  13.154  0.00  0.00    +0.000 OA
BRANCH  19  20
ATOM     20  C   UNL     1       5.471   3.288  12.362  0.00  0.00    +0.000 C 
BRANCH  20  21
ATOM     21  C   UNL     1       6.127   2.123  11.642  0.00  0.00    +0.000 C 
ATOM     22  O   UNL     1       5.504   1.150  11.238  0.00  0.00    +0.000 OA
BRANCH  21  23
ATOM     23  O   UNL     1       7.460   2.257  11.488  0.00  0.00    +0.000 OA
ATOM     24  H   UNL     1       7.941   1.625  12.065  0.00  0.00    +0.000 HD
ENDBRANCH  21  23
ENDBRANCH  20  21
ENDBRANCH  19  20
ENDBRANCH   6  19
TORSDOF 5
ENDMDL
MODEL 8
REMARK VINA RESULT:      -6.4      4.795      7.195
REMARK  Name = 
REMARK  6 active torsions:
REMARK  status: ('A' for Active; 'I' for Inactive)
REMARK    1  A    between atoms: C_1  and  C_2
REMARK    2  A    between atoms: C_2  and  C_3
REMARK    3  A    between atoms: C_11  and  O_12
REMARK    4  A    between atoms: O_12  and  C_13
REMARK    5  A    between atoms: C_13  and  C_14
REMARK    6  A    between atoms: C_14  and  O_16
REMARK                            x       y       z     vdW  Elec       q    Type
REMARK                         _______ _______ _______ _____ _____    ______ ____
ROOT
ATOM      1  C   UNL     1      -0.861  10.149  18.441  0.00  0.00    +0.000 C 
ATOM      2  C   UNL     1       0.434  10.528  19.194  0.00  0.00    +0.000 C 
ATOM      3  C   UNL     1       0.501   9.774  20.545  0.00  0.00    +0.000 C 
ATOM      4  C   UNL     1       1.237   8.514  20.205  0.00  0.00    +0.000 A 
ATOM      5  C   UNL     1       1.279   7.362  20.973  0.00  0.00    +0.000 A 
ATOM      6  C   UNL     1       1.982   6.253  20.491  0.00  0.00    +0.000 A 
ATOM      7  C   UNL     1       2.724   6.358  19.286  0.00  0.00    +0.000 A 
ATOM      8 CL   UNL     1       3.626   4.973  18.746  0.00  0.00    +0.000 Cl
ATOM      9  C   UNL     1       2.705   7.550  18.528  0.00  0.00    +0.000 A 
ATOM     10 CL   UNL     1       3.552   7.680  17.029  0.00  0.00    +0.000 Cl
ATOM     11  C   UNL     1       1.939   8.604  19.006  0.00  0.00    +0.000 A 
ATOM     12  C   UNL     1       1.614   9.914  18.423  0.00  0.00    +0.000 C 
ATOM     13  O   UNL     1       2.156  10.367  17.432  0.00  0.00    +0.000 OA
ENDROOT
BRANCH   2  14
ATOM     14  C   UNL     1       0.540  12.042  19.280  0.00  0.00    +0.000 A 
ATOM     15  C   UNL     1       1.485  12.776  19.985  0.00  0.00    +0.000 A 
ATOM     16  C   UNL     1       1.360  14.179  19.797  0.00  0.00    +0.000 A 
ATOM     17  C   UNL     1       0.318  14.493  18.957  0.00  0.00    +0.000 A 
ATOM     18  S   UNL     1      -0.476  13.098  18.380  0.00  0.00    +0.000 S 
ENDBRANCH   2  14
BRANCH   6  19
ATOM     19  O   UNL     1       1.973   5.035  21.142  0.00  0.00    +0.000 OA
BRANCH  19  20
ATOM     20  C   UNL     1       1.025   4.087  20.637  0.00  0.00    +0.000 C 
BRANCH  20  21
ATOM     21  C   UNL     1       1.526   2.660  20.771  0.00  0.00    +0.000 C 
ATOM     22  O   UNL     1       1.679   1.912  19.815  0.00  0.00    +0.000 OA
BRANCH  21  23
ATOM     23  O   UNL     1       1.788   2.290  22.042  0.00  0.00    +0.000 OA
ATOM     24  H   UNL     1       1.368   2.911  22.676  0.00  0.00    +0.000 HD
ENDBRANCH  21  23
ENDBRANCH  20  21
ENDBRANCH  19  20
ENDBRANCH   6  19
TORSDOF 5
ENDMDL
MODEL 9
REMARK VINA RESULT:      -6.2      3.227      7.164
REMARK  Name = 
REMARK  6 active torsions:
REMARK  status: ('A' for Active; 'I' for Inactive)
REMARK    1  A    between atoms: C_1  and  C_2
REMARK    2  A    between atoms: C_2  and  C_3
REMARK    3  A    between atoms: C_11  and  O_12
REMARK    4  A    between atoms: O_12  and  C_13
REMARK    5  A    between atoms: C_13  and  C_14
REMARK    6  A    between atoms: C_14  and  O_16
REMARK                            x       y       z     vdW  Elec       q    Type
REMARK                         _______ _______ _______ _____ _____    ______ ____
ROOT
ATOM      1  C   UNL     1       1.816   4.710  17.533  0.00  0.00    +0.000 C 
ATOM      2  C   UNL     1       2.976   3.973  18.238  0.00  0.00    +0.000 C 
ATOM      3  C   UNL     1       3.524   2.850  17.323  0.00  0.00    +0.000 C 
ATOM      4  C   UNL     1       4.613   3.528  16.550  0.00  0.00    +0.000 A 
ATOM      5  C   UNL     1       5.195   3.064  15.383  0.00  0.00    +0.000 A 
ATOM      6  C   UNL     1       6.177   3.842  14.760  0.00  0.00    +0.000 A 
ATOM      7  C   UNL     1       6.634   5.032  15.384  0.00  0.00    +0.000 A 
ATOM      8 CL   UNL     1       7.891   5.946  14.604  0.00  0.00    +0.000 Cl
ATOM      9  C   UNL     1       6.059   5.479  16.595  0.00  0.00    +0.000 A 
ATOM     10 CL   UNL     1       6.558   6.954  17.341  0.00  0.00    +0.000 Cl
ATOM     11  C   UNL     1       5.040   4.713  17.144  0.00  0.00    +0.000 A 
ATOM     12  C   UNL     1       4.167   4.942  18.305  0.00  0.00    +0.000 C 
ATOM     13  O   UNL     1       4.345   5.829  19.121  0.00  0.00    +0.000 OA
ENDROOT
BRANCH   2  14
ATOM     14  C   UNL     1       2.525   3.533  19.621  0.00  0.00    +0.000 A 
ATOM     15  C   UNL     1       1.264   3.692  20.181  0.00  0.00    +0.000 A 
ATOM     16  C   UNL     1       1.142   3.096  21.466  0.00  0.00    +0.000 A 
ATOM     17  C   UNL     1       2.313   2.500  21.868  0.00  0.00    +0.000 A 
ATOM     18  S   UNL     1       3.534   2.633  20.685  0.00  0.00    +0.000 S 
ENDBRANCH   2  14
BRANCH   6  19
ATOM     19  O   UNL     1       6.719   3.503  13.536  0.00  0.00    +0.000 OA
BRANCH  19  20
ATOM     20  C   UNL     1       5.981   3.968  12.399  0.00  0.00    +0.000 C 
BRANCH  20  21
ATOM     21  C   UNL     1       5.214   2.844  11.726  0.00  0.00    +0.000 C 
ATOM     22  O   UNL     1       4.077   2.977  11.291  0.00  0.00    +0.000 OA
BRANCH  21  23
ATOM     23  O   UNL     1       5.897   1.684  11.649  0.00  0.00    +0.000 OA
ATOM     24  H   UNL     1       6.140   1.365  12.546  0.00  0.00    +0.000 HD
ENDBRANCH  21  23
ENDBRANCH  20  21
ENDBRANCH  19  20
ENDBRANCH   6  19
TORSDOF 5
ENDMDL
