MODEL 1
REMARK VINA RESULT:      -9.0      0.000      0.000
REMARK  Name = 
REMARK  5 active torsions:
REMARK  status: ('A' for Active; 'I' for Inactive)
REMARK    1  A    between atoms: C_1  and  C_2
REMARK    2  A    between atoms: C_5  and  C_6
REMARK    3  A    between atoms: C_9  and  S_10
REMARK    4  A    between atoms: S_10  and  N_13
REMARK    5  A    between atoms: N_13  and  C_14
REMARK                            x       y       z     vdW  Elec       q    Type
REMARK                         _______ _______ _______ _____ _____    ______ ____
ROOT
ATOM      1  C   UNL     1       1.203   9.474  19.436  0.00  0.00    +0.000 A 
ATOM      2  N   UNL     1       1.089   8.868  20.639  0.00  0.00    +0.000 NA
ATOM      3  C   UNL     1       1.565   7.615  20.749  0.00  0.00    +0.000 A 
ATOM      4  C   UNL     1       2.128   6.956  19.692  0.00  0.00    +0.000 A 
ATOM      5  C   UNL     1       2.268   7.657  18.522  0.00  0.00    +0.000 A 
ATOM      6  N   UNL     1       1.797   8.909  18.363  0.00  0.00    +0.000 NA
ENDROOT
BRANCH   1  11
ATOM      7  C   UNL     1      -3.283  10.353  15.848  0.00  0.00    +0.000 C 
ATOM      8  C   UNL     1      -2.256  10.762  16.834  0.00  0.00    +0.000 A 
ATOM      9  C   UNL     1      -1.298  10.017  17.492  0.00  0.00    +0.000 A 
ATOM     10  C   UNL     1      -0.550  10.888  18.338  0.00  0.00    +0.000 A 
ATOM     11  C   UNL     1       0.531  10.758  19.237  0.00  0.00    +0.000 A 
ATOM     12  C   UNL     1       0.942  11.931  19.894  0.00  0.00    +0.000 A 
ATOM     13  C   UNL     1       0.306  13.133  19.622  0.00  0.00    +0.000 A 
ATOM     14  N   UNL     1      -0.722  13.301  18.764  0.00  0.00    +0.000 NA
ATOM     15  C   UNL     1      -1.097  12.155  18.166  0.00  0.00    +0.000 A 
ATOM     16  N   UNL     1      -2.114  12.062  17.256  0.00  0.00    +0.000 N 
ATOM     17  H   UNL     1      -2.666  12.855  16.959  0.00  0.00    +0.000 HD
ENDBRANCH   1  11
BRANCH   4  18
ATOM     18  S   UNL     1       2.576   5.284  19.790  0.00  0.00    +0.000 S 
ATOM     19  O   UNL     1       2.512   4.915  21.189  0.00  0.00    +0.000 OA
ATOM     20  O   UNL     1       1.897   4.538  18.763  0.00  0.00    +0.000 OA
BRANCH  18  21
ATOM     21  N   UNL     1       4.227   5.337  19.415  0.00  0.00    +0.000 NA
ATOM     22  H   UNL     1       4.713   5.110  20.292  0.00  0.00    +0.000 HD
BRANCH  21  23
ATOM     23  C   UNL     1       4.790   4.638  18.237  0.00  0.00    +0.000 C 
ATOM     24  C   UNL     1       6.301   4.480  18.486  0.00  0.00    +0.000 C 
ATOM     25  C   UNL     1       7.040   5.810  18.543  0.00  0.00    +0.000 C 
ATOM     26  S   UNL     1       6.909   6.709  17.014  0.00  0.00    +0.000 S 
ATOM     27  O   UNL     1       7.248   8.093  17.295  0.00  0.00    +0.000 OA
ATOM     28  O   UNL     1       7.634   5.953  16.012  0.00  0.00    +0.000 OA
ATOM     29  C   UNL     1       5.187   6.641  16.611  0.00  0.00    +0.000 C 
ATOM     30  C   UNL     1       4.530   5.293  16.877  0.00  0.00    +0.000 C 
ENDBRANCH  21  23
ENDBRANCH  18  21
ENDBRANCH   4  18
TORSDOF 4
ENDMDL
MODEL 2
REMARK VINA RESULT:      -8.7      0.978      1.089
REMARK  Name = 
REMARK  5 active torsions:
REMARK  status: ('A' for Active; 'I' for Inactive)
REMARK    1  A    between atoms: C_1  and  C_2
REMARK    2  A    between atoms: C_5  and  C_6
REMARK    3  A    between atoms: C_9  and  S_10
REMARK    4  A    between atoms: S_10  and  N_13
REMARK    5  A    between atoms: N_13  and  C_14
REMARK                            x       y       z     vdW  Elec       q    Type
REMARK                         _______ _______ _______ _____ _____    ______ ____
ROOT
ATOM      1  C   UNL     1       0.935   9.596  19.619  0.00  0.00    +0.000 A 
ATOM      2  N   UNL     1       0.833   8.853  20.743  0.00  0.00    +0.000 NA
ATOM      3  C   UNL     1       1.442   7.654  20.751  0.00  0.00    +0.000 A 
ATOM      4  C   UNL     1       2.125   7.178  19.667  0.00  0.00    +0.000 A 
ATOM      5  C   UNL     1       2.240   8.014  18.586  0.00  0.00    +0.000 A 
ATOM      6  N   UNL     1       1.639   9.219  18.531  0.00  0.00    +0.000 NA
ENDROOT
BRANCH   1  11
ATOM      7  C   UNL     1      -3.369  10.420  15.803  0.00  0.00    +0.000 C 
ATOM      8  C   UNL     1      -2.467  10.813  16.910  0.00  0.00    +0.000 A 
ATOM      9  C   UNL     1      -1.475  10.101  17.553  0.00  0.00    +0.000 A 
ATOM     10  C   UNL     1      -0.893  10.936  18.551  0.00  0.00    +0.000 A 
ATOM     11  C   UNL     1       0.133  10.814  19.514  0.00  0.00    +0.000 A 
ATOM     12  C   UNL     1       0.357  11.934  20.333  0.00  0.00    +0.000 A 
ATOM     13  C   UNL     1      -0.395  13.085  20.150  0.00  0.00    +0.000 A 
ATOM     14  N   UNL     1      -1.375  13.246  19.237  0.00  0.00    +0.000 NA
ATOM     15  C   UNL     1      -1.572  12.149  18.482  0.00  0.00    +0.000 A 
ATOM     16  N   UNL     1      -2.507  12.059  17.488  0.00  0.00    +0.000 N 
ATOM     17  H   UNL     1      -3.126  12.818  17.240  0.00  0.00    +0.000 HD
ENDBRANCH   1  11
BRANCH   4  18
ATOM     18  S   UNL     1       2.754   5.564  19.617  0.00  0.00    +0.000 S 
ATOM     19  O   UNL     1       2.573   5.004  20.940  0.00  0.00    +0.000 OA
ATOM     20  O   UNL     1       2.292   4.899  18.428  0.00  0.00    +0.000 OA
BRANCH  18  21
ATOM     21  N   UNL     1       4.419   5.837  19.470  0.00  0.00    +0.000 NA
ATOM     22  H   UNL     1       4.644   6.540  20.184  0.00  0.00    +0.000 HD
BRANCH  21  23
ATOM     23  C   UNL     1       5.398   4.726  19.416  0.00  0.00    +0.000 C 
ATOM     24  C   UNL     1       6.799   5.361  19.359  0.00  0.00    +0.000 C 
ATOM     25  C   UNL     1       7.042   6.160  18.086  0.00  0.00    +0.000 C 
ATOM     26  S   UNL     1       6.930   5.142  16.631  0.00  0.00    +0.000 S 
ATOM     27  O   UNL     1       6.741   6.029  15.497  0.00  0.00    +0.000 OA
ATOM     28  O   UNL     1       8.041   4.213  16.675  0.00  0.00    +0.000 OA
ATOM     29  C   UNL     1       5.436   4.220  16.856  0.00  0.00    +0.000 C 
ATOM     30  C   UNL     1       5.211   3.719  18.276  0.00  0.00    +0.000 C 
ENDBRANCH  21  23
ENDBRANCH  18  21
ENDBRANCH   4  18
TORSDOF 4
ENDMDL
MODEL 3
REMARK VINA RESULT:      -8.7      1.198      1.768
REMARK  Name = 
REMARK  5 active torsions:
REMARK  status: ('A' for Active; 'I' for Inactive)
REMARK    1  A    between atoms: C_1  and  C_2
REMARK    2  A    between atoms: C_5  and  C_6
REMARK    3  A    between atoms: C_9  and  S_10
REMARK    4  A    between atoms: S_10  and  N_13
REMARK    5  A    between atoms: N_13  and  C_14
REMARK                            x       y       z     vdW  Elec       q    Type
REMARK                         _______ _______ _______ _____ _____    ______ ____
ROOT
ATOM      1  C   UNL     1       1.216   9.471  19.228  0.00  0.00    +0.000 A 
ATOM      2  N   UNL     1       1.215   8.735  20.360  0.00  0.00    +0.000 NA
ATOM      3  C   UNL     1       1.764   7.508  20.302  0.00  0.00    +0.000 A 
ATOM      4  C   UNL     1       2.290   7.001  19.147  0.00  0.00    +0.000 A 
ATOM      5  C   UNL     1       2.314   7.830  18.055  0.00  0.00    +0.000 A 
ATOM      6  N   UNL     1       1.767   9.062  18.065  0.00  0.00    +0.000 NA
ENDROOT
BRANCH   1  11
ATOM      7  C   UNL     1      -3.521  10.464  16.012  0.00  0.00    +0.000 C 
ATOM      8  C   UNL     1      -2.461  10.824  16.981  0.00  0.00    +0.000 A 
ATOM      9  C   UNL     1      -1.425  10.071  17.497  0.00  0.00    +0.000 A 
ATOM     10  C   UNL     1      -0.675  10.887  18.394  0.00  0.00    +0.000 A 
ATOM     11  C   UNL     1       0.464  10.726  19.212  0.00  0.00    +0.000 A 
ATOM     12  C   UNL     1       0.849  11.842  19.975  0.00  0.00    +0.000 A 
ATOM     13  C   UNL     1       0.133  13.026  19.876  0.00  0.00    +0.000 A 
ATOM     14  N   UNL     1      -0.953  13.224  19.100  0.00  0.00    +0.000 NA
ATOM     15  C   UNL     1      -1.300  12.130  18.397  0.00  0.00    +0.000 A 
ATOM     16  N   UNL     1      -2.365  12.076  17.539  0.00  0.00    +0.000 N 
ATOM     17  H   UNL     1      -2.976  12.861  17.365  0.00  0.00    +0.000 HD
ENDBRANCH   1  11
BRANCH   4  18
ATOM     18  S   UNL     1       2.833   5.359  19.033  0.00  0.00    +0.000 S 
ATOM     19  O   UNL     1       3.743   5.141  20.138  0.00  0.00    +0.000 OA
ATOM     20  O   UNL     1       1.714   4.494  18.772  0.00  0.00    +0.000 OA
BRANCH  18  21
ATOM     21  N   UNL     1       3.811   5.405  17.650  0.00  0.00    +0.000 NA
ATOM     22  H   UNL     1       3.299   5.984  16.973  0.00  0.00    +0.000 HD
BRANCH  21  23
ATOM     23  C   UNL     1       5.256   5.727  17.718  0.00  0.00    +0.000 C 
ATOM     24  C   UNL     1       5.540   6.760  16.612  0.00  0.00    +0.000 C 
ATOM     25  C   UNL     1       5.327   6.208  15.209  0.00  0.00    +0.000 C 
ATOM     26  S   UNL     1       6.409   4.840  14.862  0.00  0.00    +0.000 S 
ATOM     27  O   UNL     1       5.854   4.128  13.725  0.00  0.00    +0.000 OA
ATOM     28  O   UNL     1       7.760   5.365  14.826  0.00  0.00    +0.000 OA
ATOM     29  C   UNL     1       6.265   3.795  16.283  0.00  0.00    +0.000 C 
ATOM     30  C   UNL     1       6.217   4.539  17.611  0.00  0.00    +0.000 C 
ENDBRANCH  21  23
ENDBRANCH  18  21
ENDBRANCH   4  18
TORSDOF 4
ENDMDL
MODEL 4
REMARK VINA RESULT:      -8.5      4.051      8.731
REMARK  Name = 
REMARK  5 active torsions:
REMARK  status: ('A' for Active; 'I' for Inactive)
REMARK    1  A    between atoms: C_1  and  C_2
REMARK    2  A    between atoms: C_5  and  C_6
REMARK    3  A    between atoms: C_9  and  S_10
REMARK    4  A    between atoms: S_10  and  N_13
REMARK    5  A    between atoms: N_13  and  C_14
REMARK                            x       y       z     vdW  Elec       q    Type
REMARK                         _______ _______ _______ _____ _____    ______ ____
ROOT
ATOM      1  C   UNL     1       2.229   6.550  19.242  0.00  0.00    +0.000 A 
ATOM      2  N   UNL     1       2.281   7.588  18.380  0.00  0.00    +0.000 NA
ATOM      3  C   UNL     1       1.810   8.773  18.808  0.00  0.00    +0.000 A 
ATOM      4  C   UNL     1       1.276   8.935  20.055  0.00  0.00    +0.000 A 
ATOM      5  C   UNL     1       1.315   7.853  20.897  0.00  0.00    +0.000 A 
ATOM      6  N   UNL     1       1.769   6.646  20.508  0.00  0.00    +0.000 NA
ENDROOT
BRANCH   1  11
ATOM      7  C   UNL     1       7.534   4.833  17.602  0.00  0.00    +0.000 C 
ATOM      8  C   UNL     1       6.081   4.659  17.833  0.00  0.00    +0.000 A 
ATOM      9  C   UNL     1       5.144   5.532  18.349  0.00  0.00    +0.000 A 
ATOM     10  C   UNL     1       3.876   4.880  18.359  0.00  0.00    +0.000 A 
ATOM     11  C   UNL     1       2.560   5.214  18.745  0.00  0.00    +0.000 A 
ATOM     12  C   UNL     1       1.589   4.209  18.590  0.00  0.00    +0.000 A 
ATOM     13  C   UNL     1       1.948   2.979  18.058  0.00  0.00    +0.000 A 
ATOM     14  N   UNL     1       3.190   2.625  17.669  0.00  0.00    +0.000 NA
ATOM     15  C   UNL     1       4.094   3.606  17.846  0.00  0.00    +0.000 A 
ATOM     16  N   UNL     1       5.420   3.493  17.529  0.00  0.00    +0.000 N 
ATOM     17  H   UNL     1       5.826   2.657  17.133  0.00  0.00    +0.000 HD
ENDBRANCH   1  11
BRANCH   4  18
ATOM     18  S   UNL     1       0.509  10.413  20.537  0.00  0.00    +0.000 S 
ATOM     19  O   UNL     1       0.140  10.259  21.929  0.00  0.00    +0.000 OA
ATOM     20  O   UNL     1       1.272  11.536  20.061  0.00  0.00    +0.000 OA
BRANCH  18  21
ATOM     21  N   UNL     1      -0.950  10.351  19.678  0.00  0.00    +0.000 NA
ATOM     22  H   UNL     1      -1.665  10.697  20.330  0.00  0.00    +0.000 HD
BRANCH  21  23
ATOM     23  C   UNL     1      -1.085  10.910  18.313  0.00  0.00    +0.000 C 
ATOM     24  C   UNL     1      -1.861  12.234  18.442  0.00  0.00    +0.000 C 
ATOM     25  C   UNL     1      -3.291  12.043  18.931  0.00  0.00    +0.000 C 
ATOM     26  S   UNL     1      -4.248  11.046  17.811  0.00  0.00    +0.000 S 
ATOM     27  O   UNL     1      -5.409  10.569  18.542  0.00  0.00    +0.000 OA
ATOM     28  O   UNL     1      -4.398  11.806  16.587  0.00  0.00    +0.000 OA
ATOM     29  C   UNL     1      -3.210   9.654  17.467  0.00  0.00    +0.000 C 
ATOM     30  C   UNL     1      -1.740   9.996  17.272  0.00  0.00    +0.000 C 
ENDBRANCH  21  23
ENDBRANCH  18  21
ENDBRANCH   4  18
TORSDOF 4
ENDMDL
MODEL 5
REMARK VINA RESULT:      -8.5      1.090      1.407
REMARK  Name = 
REMARK  5 active torsions:
REMARK  status: ('A' for Active; 'I' for Inactive)
REMARK    1  A    between atoms: C_1  and  C_2
REMARK    2  A    between atoms: C_5  and  C_6
REMARK    3  A    between atoms: C_9  and  S_10
REMARK    4  A    between atoms: S_10  and  N_13
REMARK    5  A    between atoms: N_13  and  C_14
REMARK                            x       y       z     vdW  Elec       q    Type
REMARK                         _______ _______ _______ _____ _____    ______ ____
ROOT
ATOM      1  C   UNL     1       1.042   9.550  19.648  0.00  0.00    +0.000 A 
ATOM      2  N   UNL     1       0.959   8.749  20.732  0.00  0.00    +0.000 NA
ATOM      3  C   UNL     1       1.514   7.527  20.643  0.00  0.00    +0.000 A 
ATOM      4  C   UNL     1       2.123   7.086  19.502  0.00  0.00    +0.000 A 
ATOM      5  C   UNL     1       2.225   7.977  18.465  0.00  0.00    +0.000 A 
ATOM      6  N   UNL     1       1.676   9.207  18.506  0.00  0.00    +0.000 NA
ENDROOT
BRANCH   1  11
ATOM      7  C   UNL     1      -3.465  10.731  16.174  0.00  0.00    +0.000 C 
ATOM      8  C   UNL     1      -2.474  11.034  17.232  0.00  0.00    +0.000 A 
ATOM      9  C   UNL     1      -1.475  10.251  17.775  0.00  0.00    +0.000 A 
ATOM     10  C   UNL     1      -0.790  11.015  18.765  0.00  0.00    +0.000 A 
ATOM     11  C   UNL     1       0.290  10.805  19.650  0.00  0.00    +0.000 A 
ATOM     12  C   UNL     1       0.620  11.876  20.498  0.00  0.00    +0.000 A 
ATOM     13  C   UNL     1      -0.089  13.066  20.416  0.00  0.00    +0.000 A 
ATOM     14  N   UNL     1      -1.119  13.309  19.580  0.00  0.00    +0.000 NA
ATOM     15  C   UNL     1      -1.416  12.257  18.795  0.00  0.00    +0.000 A 
ATOM     16  N   UNL     1      -2.419  12.253  17.864  0.00  0.00    +0.000 N 
ATOM     17  H   UNL     1      -3.018  13.048  17.692  0.00  0.00    +0.000 HD
ENDBRANCH   1  11
BRANCH   4  18
ATOM     18  S   UNL     1       2.676   5.452  19.332  0.00  0.00    +0.000 S 
ATOM     19  O   UNL     1       2.831   4.922  20.671  0.00  0.00    +0.000 OA
ATOM     20  O   UNL     1       1.904   4.780  18.321  0.00  0.00    +0.000 OA
BRANCH  18  21
ATOM     21  N   UNL     1       4.252   5.670  18.752  0.00  0.00    +0.000 NA
ATOM     22  H   UNL     1       4.744   4.793  18.962  0.00  0.00    +0.000 HD
BRANCH  21  23
ATOM     23  C   UNL     1       4.525   6.180  17.388  0.00  0.00    +0.000 C 
ATOM     24  C   UNL     1       4.620   4.956  16.459  0.00  0.00    +0.000 C 
ATOM     25  C   UNL     1       5.800   4.049  16.783  0.00  0.00    +0.000 C 
ATOM     26  S   UNL     1       7.355   4.894  16.603  0.00  0.00    +0.000 S 
ATOM     27  O   UNL     1       8.351   4.125  17.327  0.00  0.00    +0.000 OA
ATOM     28  O   UNL     1       7.519   5.188  15.194  0.00  0.00    +0.000 OA
ATOM     29  C   UNL     1       7.123   6.427  17.458  0.00  0.00    +0.000 C 
ATOM     30  C   UNL     1       5.762   7.072  17.237  0.00  0.00    +0.000 C 
ENDBRANCH  21  23
ENDBRANCH  18  21
ENDBRANCH   4  18
TORSDOF 4
ENDMDL
MODEL 6
REMARK VINA RESULT:      -8.3      4.059      8.556
REMARK  Name = 
REMARK  5 active torsions:
REMARK  status: ('A' for Active; 'I' for Inactive)
REMARK    1  A    between atoms: C_1  and  C_2
REMARK    2  A    between atoms: C_5  and  C_6
REMARK    3  A    between atoms: C_9  and  S_10
REMARK    4  A    between atoms: S_10  and  N_13
REMARK    5  A    between atoms: N_13  and  C_14
REMARK                            x       y       z     vdW  Elec       q    Type
REMARK                         _______ _______ _______ _____ _____    ______ ____
ROOT
ATOM      1  C   UNL     1       2.938   7.296  18.174  0.00  0.00    +0.000 A 
ATOM      2  N   UNL     1       2.541   7.015  19.434  0.00  0.00    +0.000 NA
ATOM      3  C   UNL     1       1.748   7.912  20.048  0.00  0.00    +0.000 A 
ATOM      4  C   UNL     1       1.365   9.077  19.446  0.00  0.00    +0.000 A 
ATOM      5  C   UNL     1       1.754   9.264  18.144  0.00  0.00    +0.000 A 
ATOM      6  N   UNL     1       2.556   8.398  17.493  0.00  0.00    +0.000 NA
ENDROOT
BRANCH   1  11
ATOM      7  C   UNL     1       2.985   1.492  18.460  0.00  0.00    +0.000 C 
ATOM      8  C   UNL     1       3.506   2.817  18.054  0.00  0.00    +0.000 A 
ATOM      9  C   UNL     1       3.002   4.084  18.271  0.00  0.00    +0.000 A 
ATOM     10  C   UNL     1       3.887   5.031  17.677  0.00  0.00    +0.000 A 
ATOM     11  C   UNL     1       3.945   6.436  17.553  0.00  0.00    +0.000 A 
ATOM     12  C   UNL     1       5.037   6.956  16.835  0.00  0.00    +0.000 A 
ATOM     13  C   UNL     1       5.995   6.096  16.318  0.00  0.00    +0.000 A 
ATOM     14  N   UNL     1       5.981   4.751  16.424  0.00  0.00    +0.000 NA
ATOM     15  C   UNL     1       4.915   4.290  17.103  0.00  0.00    +0.000 A 
ATOM     16  N   UNL     1       4.674   2.965  17.345  0.00  0.00    +0.000 N 
ATOM     17  H   UNL     1       5.285   2.225  17.030  0.00  0.00    +0.000 HD
ENDBRANCH   1  11
BRANCH   4  18
ATOM     18  S   UNL     1       0.495  10.307  20.302  0.00  0.00    +0.000 S 
ATOM     19  O   UNL     1       0.240   9.792  21.631  0.00  0.00    +0.000 OA
ATOM     20  O   UNL     1       1.113  11.587  20.076  0.00  0.00    +0.000 OA
BRANCH  18  21
ATOM     21  N   UNL     1      -1.007  10.288  19.519  0.00  0.00    +0.000 NA
ATOM     22  H   UNL     1      -1.686  10.605  20.222  0.00  0.00    +0.000 HD
BRANCH  21  23
ATOM     23  C   UNL     1      -1.210  10.910  18.190  0.00  0.00    +0.000 C 
ATOM     24  C   UNL     1      -1.993  12.216  18.417  0.00  0.00    +0.000 C 
ATOM     25  C   UNL     1      -3.396  11.985  18.961  0.00  0.00    +0.000 C 
ATOM     26  S   UNL     1      -4.394  11.031  17.839  0.00  0.00    +0.000 S 
ATOM     27  O   UNL     1      -5.515  10.505  18.598  0.00  0.00    +0.000 OA
ATOM     28  O   UNL     1      -4.609  11.847  16.661  0.00  0.00    +0.000 OA
ATOM     29  C   UNL     1      -3.360   9.669  17.382  0.00  0.00    +0.000 C 
ATOM     30  C   UNL     1      -1.903  10.039  17.137  0.00  0.00    +0.000 C 
ENDBRANCH  21  23
ENDBRANCH  18  21
ENDBRANCH   4  18
TORSDOF 4
ENDMDL
MODEL 7
REMARK VINA RESULT:      -8.2      4.254      8.454
REMARK  Name = 
REMARK  5 active torsions:
REMARK  status: ('A' for Active; 'I' for Inactive)
REMARK    1  A    between atoms: C_1  and  C_2
REMARK    2  A    between atoms: C_5  and  C_6
REMARK    3  A    between atoms: C_9  and  S_10
REMARK    4  A    between atoms: S_10  and  N_13
REMARK    5  A    between atoms: N_13  and  C_14
REMARK                            x       y       z     vdW  Elec       q    Type
REMARK                         _______ _______ _______ _____ _____    ______ ____
ROOT
ATOM      1  C   UNL     1       2.716   7.326  18.532  0.00  0.00    +0.000 A 
ATOM      2  N   UNL     1       2.473   8.455  17.831  0.00  0.00    +0.000 NA
ATOM      3  C   UNL     1       1.779   9.429  18.446  0.00  0.00    +0.000 A 
ATOM      4  C   UNL     1       1.311   9.293  19.723  0.00  0.00    +0.000 A 
ATOM      5  C   UNL     1       1.651   8.146  20.393  0.00  0.00    +0.000 A 
ATOM      6  N   UNL     1       2.336   7.141  19.814  0.00  0.00    +0.000 NA
ENDROOT
BRANCH   1  11
ATOM      7  C   UNL     1       0.708   1.879  18.795  0.00  0.00    +0.000 C 
ATOM      8  C   UNL     1       1.638   2.944  18.353  0.00  0.00    +0.000 A 
ATOM      9  C   UNL     1       1.636   4.300  18.613  0.00  0.00    +0.000 A 
ATOM     10  C   UNL     1       2.756   4.888  17.955  0.00  0.00    +0.000 A 
ATOM     11  C   UNL     1       3.302   6.184  17.831  0.00  0.00    +0.000 A 
ATOM     12  C   UNL     1       4.452   6.303  17.031  0.00  0.00    +0.000 A 
ATOM     13  C   UNL     1       5.000   5.175  16.437  0.00  0.00    +0.000 A 
ATOM     14  N   UNL     1       4.515   3.921  16.539  0.00  0.00    +0.000 NA
ATOM     15  C   UNL     1       3.407   3.848  17.299  0.00  0.00    +0.000 A 
ATOM     16  N   UNL     1       2.727   2.688  17.555  0.00  0.00    +0.000 N 
ATOM     17  H   UNL     1       3.008   1.790  17.190  0.00  0.00    +0.000 HD
ENDBRANCH   1  11
BRANCH   4  18
ATOM     18  S   UNL     1       0.267  10.473  20.446  0.00  0.00    +0.000 S 
ATOM     19  O   UNL     1      -0.062   9.986  21.769  0.00  0.00    +0.000 OA
ATOM     20  O   UNL     1       0.794  11.793  20.218  0.00  0.00    +0.000 OA
BRANCH  18  21
ATOM     21  N   UNL     1      -1.152  10.294  19.538  0.00  0.00    +0.000 NA
ATOM     22  H   UNL     1      -1.920  10.477  20.194  0.00  0.00    +0.000 HD
BRANCH  21  23
ATOM     23  C   UNL     1      -1.335  10.957  18.226  0.00  0.00    +0.000 C 
ATOM     24  C   UNL     1      -2.156  12.235  18.476  0.00  0.00    +0.000 C 
ATOM     25  C   UNL     1      -3.567  11.952  18.973  0.00  0.00    +0.000 C 
ATOM     26  S   UNL     1      -4.511  11.013  17.793  0.00  0.00    +0.000 S 
ATOM     27  O   UNL     1      -5.638  10.435  18.503  0.00  0.00    +0.000 OA
ATOM     28  O   UNL     1      -4.714  11.864  16.638  0.00  0.00    +0.000 OA
ATOM     29  C   UNL     1      -3.431   9.693  17.318  0.00  0.00    +0.000 C 
ATOM     30  C   UNL     1      -1.978  10.106  17.125  0.00  0.00    +0.000 C 
ENDBRANCH  21  23
ENDBRANCH  18  21
ENDBRANCH   4  18
TORSDOF 4
ENDMDL
MODEL 8
REMARK VINA RESULT:      -8.2      4.511      9.176
REMARK  Name = 
REMARK  5 active torsions:
REMARK  status: ('A' for Active; 'I' for Inactive)
REMARK    1  A    between atoms: C_1  and  C_2
REMARK    2  A    between atoms: C_5  and  C_6
REMARK    3  A    between atoms: C_9  and  S_10
REMARK    4  A    between atoms: S_10  and  N_13
REMARK    5  A    between atoms: N_13  and  C_14
REMARK                            x       y       z     vdW  Elec       q    Type
REMARK                         _______ _______ _______ _____ _____    ______ ____
ROOT
ATOM      1  C   UNL     1       2.219   6.964  19.758  0.00  0.00    +0.000 A 
ATOM      2  N   UNL     1       2.335   7.541  18.542  0.00  0.00    +0.000 NA
ATOM      3  C   UNL     1       1.801   8.765  18.384  0.00  0.00    +0.000 A 
ATOM      4  C   UNL     1       1.145   9.409  19.395  0.00  0.00    +0.000 A 
ATOM      5  C   UNL     1       1.123   8.789  20.619  0.00  0.00    +0.000 A 
ATOM      6  N   UNL     1       1.636   7.560  20.820  0.00  0.00    +0.000 NA
ENDROOT
BRANCH   1  11
ATOM      7  C   UNL     1       7.228   4.729  17.838  0.00  0.00    +0.000 C 
ATOM      8  C   UNL     1       5.903   4.676  18.495  0.00  0.00    +0.000 A 
ATOM      9  C   UNL     1       4.985   5.676  18.746  0.00  0.00    +0.000 A 
ATOM     10  C   UNL     1       3.857   5.101  19.403  0.00  0.00    +0.000 A 
ATOM     11  C   UNL     1       2.623   5.566  19.907  0.00  0.00    +0.000 A 
ATOM     12  C   UNL     1       1.798   4.608  20.521  0.00  0.00    +0.000 A 
ATOM     13  C   UNL     1       2.206   3.283  20.582  0.00  0.00    +0.000 A 
ATOM     14  N   UNL     1       3.370   2.798  20.104  0.00  0.00    +0.000 NA
ATOM     15  C   UNL     1       4.140   3.746  19.538  0.00  0.00    +0.000 A 
ATOM     16  N   UNL     1       5.367   3.507  18.982  0.00  0.00    +0.000 N 
ATOM     17  H   UNL     1       5.792   2.592  18.952  0.00  0.00    +0.000 HD
ENDBRANCH   1  11
BRANCH   4  18
ATOM     18  S   UNL     1       0.305  10.903  19.137  0.00  0.00    +0.000 S 
ATOM     19  O   UNL     1       1.315  11.916  18.910  0.00  0.00    +0.000 OA
ATOM     20  O   UNL     1      -0.795  10.693  18.234  0.00  0.00    +0.000 OA
BRANCH  18  21
ATOM     21  N   UNL     1      -0.318  11.230  20.678  0.00  0.00    +0.000 NA
ATOM     22  H   UNL     1       0.150  10.567  21.308  0.00  0.00    +0.000 HD
BRANCH  21  23
ATOM     23  C   UNL     1      -0.385  12.605  21.225  0.00  0.00    +0.000 C 
ATOM     24  C   UNL     1      -0.829  12.486  22.694  0.00  0.00    +0.000 C 
ATOM     25  C   UNL     1      -2.239  11.932  22.849  0.00  0.00    +0.000 C 
ATOM     26  S   UNL     1      -3.452  12.980  22.077  0.00  0.00    +0.000 S 
ATOM     27  O   UNL     1      -4.655  12.187  21.897  0.00  0.00    +0.000 OA
ATOM     28  O   UNL     1      -3.482  14.220  22.826  0.00  0.00    +0.000 OA
ATOM     29  C   UNL     1      -2.780  13.323  20.476  0.00  0.00    +0.000 C 
ATOM     30  C   UNL     1      -1.281  13.589  20.466  0.00  0.00    +0.000 C 
ENDBRANCH  21  23
ENDBRANCH  18  21
ENDBRANCH   4  18
TORSDOF 4
ENDMDL
MODEL 9
REMARK VINA RESULT:      -8.1      4.050      8.747
REMARK  Name = 
REMARK  5 active torsions:
REMARK  status: ('A' for Active; 'I' for Inactive)
REMARK    1  A    between atoms: C_1  and  C_2
REMARK    2  A    between atoms: C_5  and  C_6
REMARK    3  A    between atoms: C_9  and  S_10
REMARK    4  A    between atoms: S_10  and  N_13
REMARK    5  A    between atoms: N_13  and  C_14
REMARK                            x       y       z     vdW  Elec       q    Type
REMARK                         _______ _______ _______ _____ _____    ______ ____
ROOT
ATOM      1  C   UNL     1       2.226   6.404  19.929  0.00  0.00    +0.000 A 
ATOM      2  N   UNL     1       1.558   6.769  21.046  0.00  0.00    +0.000 NA
ATOM      3  C   UNL     1       1.058   8.017  21.088  0.00  0.00    +0.000 A 
ATOM      4  C   UNL     1       1.226   8.903  20.061  0.00  0.00    +0.000 A 
ATOM      5  C   UNL     1       1.859   8.442  18.935  0.00  0.00    +0.000 A 
ATOM      6  N   UNL     1       2.384   7.203  18.852  0.00  0.00    +0.000 NA
ENDROOT
BRANCH   1  11
ATOM      7  C   UNL     1       7.383   5.471  17.418  0.00  0.00    +0.000 C 
ATOM      8  C   UNL     1       6.174   5.081  18.179  0.00  0.00    +0.000 A 
ATOM      9  C   UNL     1       5.090   5.833  18.586  0.00  0.00    +0.000 A 
ATOM     10  C   UNL     1       4.187   4.982  19.288  0.00  0.00    +0.000 A 
ATOM     11  C   UNL     1       2.938   5.127  19.930  0.00  0.00    +0.000 A 
ATOM     12  C   UNL     1       2.408   3.972  20.533  0.00  0.00    +0.000 A 
ATOM     13  C   UNL     1       3.098   2.772  20.452  0.00  0.00    +0.000 A 
ATOM     14  N   UNL     1       4.287   2.590  19.840  0.00  0.00    +0.000 NA
ATOM     15  C   UNL     1       4.770   3.719  19.289  0.00  0.00    +0.000 A 
ATOM     16  N   UNL     1       5.958   3.795  18.613  0.00  0.00    +0.000 N 
ATOM     17  H   UNL     1       6.567   3.002  18.474  0.00  0.00    +0.000 HD
ENDBRANCH   1  11
BRANCH   4  18
ATOM     18  S   UNL     1       0.737  10.561  20.193  0.00  0.00    +0.000 S 
ATOM     19  O   UNL     1       0.527  10.824  21.601  0.00  0.00    +0.000 OA
ATOM     20  O   UNL     1       1.584  11.385  19.372  0.00  0.00    +0.000 OA
BRANCH  18  21
ATOM     21  N   UNL     1      -0.812  10.529  19.508  0.00  0.00    +0.000 NA
ATOM     22  H   UNL     1      -1.422  10.994  20.191  0.00  0.00    +0.000 HD
BRANCH  21  23
ATOM     23  C   UNL     1      -1.065  10.956  18.112  0.00  0.00    +0.000 C 
ATOM     24  C   UNL     1      -1.848  12.280  18.181  0.00  0.00    +0.000 C 
ATOM     25  C   UNL     1      -3.230  12.126  18.800  0.00  0.00    +0.000 C 
ATOM     26  S   UNL     1      -4.259  11.021  17.859  0.00  0.00    +0.000 S 
ATOM     27  O   UNL     1      -5.350  10.606  18.723  0.00  0.00    +0.000 OA
ATOM     28  O   UNL     1      -4.520  11.662  16.586  0.00  0.00    +0.000 OA
ATOM     29  C   UNL     1      -3.232   9.610  17.562  0.00  0.00    +0.000 C 
ATOM     30  C   UNL     1      -1.787   9.944  17.217  0.00  0.00    +0.000 C 
ENDBRANCH  21  23
ENDBRANCH  18  21
ENDBRANCH   4  18
TORSDOF 4
ENDMDL
