MODEL 1
REMARK VINA RESULT:      -8.0      0.000      0.000
REMARK  Name = 
REMARK  5 active torsions:
REMARK  status: ('A' for Active; 'I' for Inactive)
REMARK    1  A    between atoms: C_5  and  N_6
REMARK    2  A    between atoms: N_9  and  C_10
REMARK    3  A    between atoms: C_10  and  C_11
REMARK    4  A    between atoms: C_11  and  O_12
REMARK    5  A    between atoms: O_12  and  C_13
REMARK                            x       y       z     vdW  Elec       q    Type
REMARK                         _______ _______ _______ _____ _____    ______ ____
ROOT
ATOM      1  N   UNL     1      -2.055  11.353  18.405  0.00  0.00    +0.000 N 
ATOM      2  C   UNL     1      -0.996  12.352  18.190  0.00  0.00    +0.000 C 
ATOM      3  C   UNL     1       0.073  12.266  19.303  0.00  0.00    +0.000 C 
ATOM      4  N   UNL     1       0.653  10.921  19.521  0.00  0.00    +0.000 NA
ATOM      5  C   UNL     1      -0.476   9.995  19.782  0.00  0.00    +0.000 C 
ATOM      6  C   UNL     1      -1.583   9.985  18.695  0.00  0.00    +0.000 C 
ENDROOT
BRANCH   1  11
ATOM      7 CL   UNL     1      -7.721  13.150  18.121  0.00  0.00    +0.000 Cl
ATOM      8  C   UNL     1      -6.100  12.580  18.192  0.00  0.00    +0.000 A 
ATOM      9  C   UNL     1      -5.393  12.649  19.381  0.00  0.00    +0.000 A 
ATOM     10  C   UNL     1      -4.064  12.213  19.425  0.00  0.00    +0.000 A 
ATOM     11  C   UNL     1      -3.398  11.681  18.299  0.00  0.00    +0.000 A 
ATOM     12  C   UNL     1      -4.180  11.578  17.118  0.00  0.00    +0.000 A 
ATOM     13 CL   UNL     1      -3.638  10.776  15.674  0.00  0.00    +0.000 Cl
ATOM     14  C   UNL     1      -5.503  12.045  17.062  0.00  0.00    +0.000 A 
ENDBRANCH   1  11
BRANCH   4  15
ATOM     15  C   UNL     1       1.471  10.452  18.384  0.00  0.00    +0.000 C 
BRANCH  15  16
ATOM     16  C   UNL     1       1.706   8.935  18.389  0.00  0.00    +0.000 C 
BRANCH  16  17
ATOM     17  O   UNL     1       3.022   8.646  17.913  0.00  0.00    +0.000 OA
BRANCH  17  18
ATOM     18  C   UNL     1       3.298   7.316  17.717  0.00  0.00    +0.000 A 
ATOM     19  C   UNL     1       4.465   6.802  17.145  0.00  0.00    +0.000 A 
ATOM     20  C   UNL     1       4.642   5.423  17.021  0.00  0.00    +0.000 A 
ATOM     21  C   UNL     1       3.659   4.532  17.463  0.00  0.00    +0.000 A 
ATOM     22  C   UNL     1       3.836   3.143  17.360  0.00  0.00    +0.000 A 
ATOM     23  C   UNL     1       2.853   2.267  17.813  0.00  0.00    +0.000 A 
ATOM     24  C   UNL     1       1.678   2.764  18.365  0.00  0.00    +0.000 A 
ATOM     25  C   UNL     1       1.486   4.144  18.473  0.00  0.00    +0.000 A 
ATOM     26  C   UNL     1       2.467   5.044  18.031  0.00  0.00    +0.000 A 
ATOM     27  C   UNL     1       2.305   6.435  18.145  0.00  0.00    +0.000 A 
ENDBRANCH  17  18
ENDBRANCH  16  17
ENDBRANCH  15  16
ENDBRANCH   4  15
TORSDOF 5
ENDMDL
MODEL 2
REMARK VINA RESULT:      -8.0      6.791     10.439
REMARK  Name = 
REMARK  5 active torsions:
REMARK  status: ('A' for Active; 'I' for Inactive)
REMARK    1  A    between atoms: C_5  and  N_6
REMARK    2  A    between atoms: N_9  and  C_10
REMARK    3  A    between atoms: C_10  and  C_11
REMARK    4  A    between atoms: C_11  and  O_12
REMARK    5  A    between atoms: O_12  and  C_13
REMARK                            x       y       z     vdW  Elec       q    Type
REMARK                         _______ _______ _______ _____ _____    ______ ____
ROOT
ATOM      1  N   UNL     1       4.598   5.839  17.947  0.00  0.00    +0.000 N 
ATOM      2  C   UNL     1       5.718   5.927  18.898  0.00  0.00    +0.000 C 
ATOM      3  C   UNL     1       7.070   5.955  18.152  0.00  0.00    +0.000 C 
ATOM      4  N   UNL     1       7.191   6.988  17.098  0.00  0.00    +0.000 NA
ATOM      5  C   UNL     1       6.058   6.791  16.161  0.00  0.00    +0.000 C 
ATOM      6  C   UNL     1       4.653   6.787  16.818  0.00  0.00    +0.000 C 
ENDROOT
BRANCH   1  11
ATOM      7 CL   UNL     1       0.402   1.708  18.805  0.00  0.00    +0.000 Cl
ATOM      8  C   UNL     1       1.575   2.936  18.541  0.00  0.00    +0.000 A 
ATOM      9  C   UNL     1       2.558   2.760  17.580  0.00  0.00    +0.000 A 
ATOM     10  C   UNL     1       3.530   3.749  17.392  0.00  0.00    +0.000 A 
ATOM     11  C   UNL     1       3.551   4.950  18.135  0.00  0.00    +0.000 A 
ATOM     12  C   UNL     1       2.492   5.110  19.068  0.00  0.00    +0.000 A 
ATOM     13 CL   UNL     1       2.201   6.582  19.947  0.00  0.00    +0.000 Cl
ATOM     14  C   UNL     1       1.534   4.106  19.283  0.00  0.00    +0.000 A 
ENDBRANCH   1  11
BRANCH   4  15
ATOM     15  C   UNL     1       7.199   8.365  17.635  0.00  0.00    +0.000 C 
BRANCH  15  16
ATOM     16  C   UNL     1       8.611   8.941  17.811  0.00  0.00    +0.000 C 
BRANCH  16  17
ATOM     17  O   UNL     1       8.817   9.313  19.175  0.00  0.00    +0.000 OA
BRANCH  17  18
ATOM     18  C   UNL     1       9.480  10.500  19.367  0.00  0.00    +0.000 A 
ATOM     19  C   UNL     1       9.687  11.127  20.599  0.00  0.00    +0.000 A 
ATOM     20  C   UNL     1      10.400  12.324  20.670  0.00  0.00    +0.000 A 
ATOM     21  C   UNL     1      10.920  12.918  19.515  0.00  0.00    +0.000 A 
ATOM     22  C   UNL     1      11.656  14.112  19.579  0.00  0.00    +0.000 A 
ATOM     23  C   UNL     1      12.175  14.688  18.423  0.00  0.00    +0.000 A 
ATOM     24  C   UNL     1      11.960  14.086  17.188  0.00  0.00    +0.000 A 
ATOM     25  C   UNL     1      11.228  12.899  17.107  0.00  0.00    +0.000 A 
ATOM     26  C   UNL     1      10.703  12.297  18.262  0.00  0.00    +0.000 A 
ATOM     27  C   UNL     1       9.979  11.095  18.208  0.00  0.00    +0.000 A 
ENDBRANCH  17  18
ENDBRANCH  16  17
ENDBRANCH  15  16
ENDBRANCH   4  15
TORSDOF 5
ENDMDL
MODEL 3
REMARK VINA RESULT:      -7.9      5.463      9.938
REMARK  Name = 
REMARK  5 active torsions:
REMARK  status: ('A' for Active; 'I' for Inactive)
REMARK    1  A    between atoms: C_5  and  N_6
REMARK    2  A    between atoms: N_9  and  C_10
REMARK    3  A    between atoms: C_10  and  C_11
REMARK    4  A    between atoms: C_11  and  O_12
REMARK    5  A    between atoms: O_12  and  C_13
REMARK                            x       y       z     vdW  Elec       q    Type
REMARK                         _______ _______ _______ _____ _____    ______ ____
ROOT
ATOM      1  N   UNL     1       4.402   4.009  17.478  0.00  0.00    +0.000 N 
ATOM      2  C   UNL     1       3.221   4.869  17.663  0.00  0.00    +0.000 C 
ATOM      3  C   UNL     1       1.955   4.017  17.900  0.00  0.00    +0.000 C 
ATOM      4  N   UNL     1       2.057   3.019  18.990  0.00  0.00    +0.000 NA
ATOM      5  C   UNL     1       3.235   2.168  18.694  0.00  0.00    +0.000 C 
ATOM      6  C   UNL     1       4.566   2.937  18.478  0.00  0.00    +0.000 C 
ENDROOT
BRANCH   1  11
ATOM      7 CL   UNL     1       7.983   5.173  12.870  0.00  0.00    +0.000 Cl
ATOM      8  C   UNL     1       6.986   4.802  14.220  0.00  0.00    +0.000 A 
ATOM      9  C   UNL     1       5.753   4.200  14.026  0.00  0.00    +0.000 A 
ATOM     10  C   UNL     1       4.932   3.929  15.126  0.00  0.00    +0.000 A 
ATOM     11  C   UNL     1       5.310   4.230  16.453  0.00  0.00    +0.000 A 
ATOM     12  C   UNL     1       6.604   4.794  16.607  0.00  0.00    +0.000 A 
ATOM     13 CL   UNL     1       7.358   5.061  18.152  0.00  0.00    +0.000 Cl
ATOM     14  C   UNL     1       7.417   5.097  15.504  0.00  0.00    +0.000 A 
ENDBRANCH   1  11
BRANCH   4  15
ATOM     15  C   UNL     1       2.172   3.634  20.329  0.00  0.00    +0.000 C 
BRANCH  15  16
ATOM     16  C   UNL     1       1.366   4.931  20.473  0.00  0.00    +0.000 C 
BRANCH  16  17
ATOM     17  O   UNL     1       2.240   6.012  20.806  0.00  0.00    +0.000 OA
BRANCH  17  18
ATOM     18  C   UNL     1       1.827   7.252  20.390  0.00  0.00    +0.000 A 
ATOM     19  C   UNL     1       2.102   7.826  19.145  0.00  0.00    +0.000 A 
ATOM     20  C   UNL     1       1.604   9.090  18.826  0.00  0.00    +0.000 A 
ATOM     21  C   UNL     1       0.827   9.806  19.742  0.00  0.00    +0.000 A 
ATOM     22  C   UNL     1       0.305  11.071  19.423  0.00  0.00    +0.000 A 
ATOM     23  C   UNL     1      -0.475  11.768  20.341  0.00  0.00    +0.000 A 
ATOM     24  C   UNL     1      -0.739  11.220  21.591  0.00  0.00    +0.000 A 
ATOM     25  C   UNL     1      -0.226   9.963  21.924  0.00  0.00    +0.000 A 
ATOM     26  C   UNL     1       0.556   9.239  21.011  0.00  0.00    +0.000 A 
ATOM     27  C   UNL     1       1.068   7.967  21.316  0.00  0.00    +0.000 A 
ENDBRANCH  17  18
ENDBRANCH  16  17
ENDBRANCH  15  16
ENDBRANCH   4  15
TORSDOF 5
ENDMDL
MODEL 4
REMARK VINA RESULT:      -7.9      5.205     10.057
REMARK  Name = 
REMARK  5 active torsions:
REMARK  status: ('A' for Active; 'I' for Inactive)
REMARK    1  A    between atoms: C_5  and  N_6
REMARK    2  A    between atoms: N_9  and  C_10
REMARK    3  A    between atoms: C_10  and  C_11
REMARK    4  A    between atoms: C_11  and  O_12
REMARK    5  A    between atoms: O_12  and  C_13
REMARK                            x       y       z     vdW  Elec       q    Type
REMARK                         _______ _______ _______ _____ _____    ______ ____
ROOT
ATOM      1  N   UNL     1       4.549   4.762  17.783  0.00  0.00    +0.000 N 
ATOM      2  C   UNL     1       3.305   5.549  17.815  0.00  0.00    +0.000 C 
ATOM      3  C   UNL     1       2.120   4.682  18.293  0.00  0.00    +0.000 C 
ATOM      4  N   UNL     1       2.329   3.974  19.577  0.00  0.00    +0.000 NA
ATOM      5  C   UNL     1       3.567   3.169  19.435  0.00  0.00    +0.000 C 
ATOM      6  C   UNL     1       4.824   3.965  18.994  0.00  0.00    +0.000 C 
ENDROOT
BRANCH   1  11
ATOM      7 CL   UNL     1       7.917   5.102  12.889  0.00  0.00    +0.000 Cl
ATOM      8  C   UNL     1       6.984   4.976  14.327  0.00  0.00    +0.000 A 
ATOM      9  C   UNL     1       5.792   4.270  14.320  0.00  0.00    +0.000 A 
ATOM     10  C   UNL     1       5.021   4.198  15.485  0.00  0.00    +0.000 A 
ATOM     11  C   UNL     1       5.411   4.808  16.698  0.00  0.00    +0.000 A 
ATOM     12  C   UNL     1       6.667   5.472  16.672  0.00  0.00    +0.000 A 
ATOM     13 CL   UNL     1       7.440   6.119  18.088  0.00  0.00    +0.000 Cl
ATOM     14  C   UNL     1       7.427   5.574  15.496  0.00  0.00    +0.000 A 
ENDBRANCH   1  11
BRANCH   4  15
ATOM     15  C   UNL     1       2.423   4.889  20.734  0.00  0.00    +0.000 C 
BRANCH  15  16
ATOM     16  C   UNL     1       1.381   6.015  20.704  0.00  0.00    +0.000 C 
BRANCH  16  17
ATOM     17  O   UNL     1       1.982   7.244  21.120  0.00  0.00    +0.000 OA
BRANCH  17  18
ATOM     18  C   UNL     1       1.227   8.370  20.906  0.00  0.00    +0.000 A 
ATOM     19  C   UNL     1       1.053   9.011  19.676  0.00  0.00    +0.000 A 
ATOM     20  C   UNL     1       0.238  10.140  19.578  0.00  0.00    +0.000 A 
ATOM     21  C   UNL     1      -0.416  10.650  20.704  0.00  0.00    +0.000 A 
ATOM     22  C   UNL     1      -1.254  11.774  20.612  0.00  0.00    +0.000 A 
ATOM     23  C   UNL     1      -1.907  12.266  21.739  0.00  0.00    +0.000 A 
ATOM     24  C   UNL     1      -1.727  11.651  22.973  0.00  0.00    +0.000 A 
ATOM     25  C   UNL     1      -0.895  10.533  23.082  0.00  0.00    +0.000 A 
ATOM     26  C   UNL     1      -0.235  10.016  21.957  0.00  0.00    +0.000 A 
ATOM     27  C   UNL     1       0.592   8.883  22.037  0.00  0.00    +0.000 A 
ENDBRANCH  17  18
ENDBRANCH  16  17
ENDBRANCH  15  16
ENDBRANCH   4  15
TORSDOF 5
ENDMDL
MODEL 5
REMARK VINA RESULT:      -7.9      1.027      1.658
REMARK  Name = 
REMARK  5 active torsions:
REMARK  status: ('A' for Active; 'I' for Inactive)
REMARK    1  A    between atoms: C_5  and  N_6
REMARK    2  A    between atoms: N_9  and  C_10
REMARK    3  A    between atoms: C_10  and  C_11
REMARK    4  A    between atoms: C_11  and  O_12
REMARK    5  A    between atoms: O_12  and  C_13
REMARK                            x       y       z     vdW  Elec       q    Type
REMARK                         _______ _______ _______ _____ _____    ______ ____
ROOT
ATOM      1  N   UNL     1      -1.663  11.414  18.361  0.00  0.00    +0.000 N 
ATOM      2  C   UNL     1      -0.686  12.485  18.106  0.00  0.00    +0.000 C 
ATOM      3  C   UNL     1       0.369  12.544  19.232  0.00  0.00    +0.000 C 
ATOM      4  N   UNL     1       1.055  11.265  19.526  0.00  0.00    +0.000 NA
ATOM      5  C   UNL     1       0.002  10.263  19.821  0.00  0.00    +0.000 C 
ATOM      6  C   UNL     1      -1.085  10.106  18.725  0.00  0.00    +0.000 C 
ENDROOT
BRANCH   1  11
ATOM      7 CL   UNL     1      -7.458  12.705  17.962  0.00  0.00    +0.000 Cl
ATOM      8  C   UNL     1      -5.795  12.281  18.064  0.00  0.00    +0.000 A 
ATOM      9  C   UNL     1      -5.131  12.366  19.277  0.00  0.00    +0.000 A 
ATOM     10  C   UNL     1      -3.770  12.050  19.347  0.00  0.00    +0.000 A 
ATOM     11  C   UNL     1      -3.026  11.624  18.224  0.00  0.00    +0.000 A 
ATOM     12  C   UNL     1      -3.762  11.498  17.016  0.00  0.00    +0.000 A 
ATOM     13 CL   UNL     1      -3.108  10.805  15.561  0.00  0.00    +0.000 Cl
ATOM     14  C   UNL     1      -5.120  11.846  16.935  0.00  0.00    +0.000 A 
ENDBRANCH   1  11
BRANCH   4  15
ATOM     15  C   UNL     1       1.925  10.807  18.422  0.00  0.00    +0.000 C 
BRANCH  15  16
ATOM     16  C   UNL     1       1.558   9.413  17.897  0.00  0.00    +0.000 C 
BRANCH  16  17
ATOM     17  O   UNL     1       2.661   8.522  18.075  0.00  0.00    +0.000 OA
BRANCH  17  18
ATOM     18  C   UNL     1       2.374   7.358  18.743  0.00  0.00    +0.000 A 
ATOM     19  C   UNL     1       2.106   7.250  20.111  0.00  0.00    +0.000 A 
ATOM     20  C   UNL     1       1.803   6.010  20.675  0.00  0.00    +0.000 A 
ATOM     21  C   UNL     1       1.762   4.855  19.886  0.00  0.00    +0.000 A 
ATOM     22  C   UNL     1       1.438   3.606  20.440  0.00  0.00    +0.000 A 
ATOM     23  C   UNL     1       1.392   2.467  19.642  0.00  0.00    +0.000 A 
ATOM     24  C   UNL     1       1.676   2.555  18.284  0.00  0.00    +0.000 A 
ATOM     25  C   UNL     1       2.001   3.790  17.717  0.00  0.00    +0.000 A 
ATOM     26  C   UNL     1       2.046   4.953  18.503  0.00  0.00    +0.000 A 
ATOM     27  C   UNL     1       2.353   6.209  17.953  0.00  0.00    +0.000 A 
ENDBRANCH  17  18
ENDBRANCH  16  17
ENDBRANCH  15  16
ENDBRANCH   4  15
TORSDOF 5
ENDMDL
MODEL 6
REMARK VINA RESULT:      -7.7      6.899     10.486
REMARK  Name = 
REMARK  5 active torsions:
REMARK  status: ('A' for Active; 'I' for Inactive)
REMARK    1  A    between atoms: C_5  and  N_6
REMARK    2  A    between atoms: N_9  and  C_10
REMARK    3  A    between atoms: C_10  and  C_11
REMARK    4  A    between atoms: C_11  and  O_12
REMARK    5  A    between atoms: O_12  and  C_13
REMARK                            x       y       z     vdW  Elec       q    Type
REMARK                         _______ _______ _______ _____ _____    ______ ____
ROOT
ATOM      1  N   UNL     1       4.965   5.404  18.106  0.00  0.00    +0.000 N 
ATOM      2  C   UNL     1       6.292   4.768  18.146  0.00  0.00    +0.000 C 
ATOM      3  C   UNL     1       7.195   5.310  17.017  0.00  0.00    +0.000 C 
ATOM      4  N   UNL     1       7.319   6.784  16.957  0.00  0.00    +0.000 NA
ATOM      5  C   UNL     1       5.945   7.335  16.864  0.00  0.00    +0.000 C 
ATOM      6  C   UNL     1       4.974   6.874  17.983  0.00  0.00    +0.000 C 
ENDROOT
BRANCH   1  11
ATOM      7 CL   UNL     1       0.204   1.881  18.686  0.00  0.00    +0.000 Cl
ATOM      8  C   UNL     1       1.548   2.937  18.496  0.00  0.00    +0.000 A 
ATOM      9  C   UNL     1       2.602   2.575  17.673  0.00  0.00    +0.000 A 
ATOM     10  C   UNL     1       3.707   3.423  17.546  0.00  0.00    +0.000 A 
ATOM     11  C   UNL     1       3.798   4.663  18.217  0.00  0.00    +0.000 A 
ATOM     12  C   UNL     1       2.670   5.017  19.004  0.00  0.00    +0.000 A 
ATOM     13 CL   UNL     1       2.473   6.573  19.754  0.00  0.00    +0.000 Cl
ATOM     14  C   UNL     1       1.574   4.153  19.159  0.00  0.00    +0.000 A 
ENDBRANCH   1  11
BRANCH   4  15
ATOM     15  C   UNL     1       8.039   7.352  18.116  0.00  0.00    +0.000 C 
BRANCH  15  16
ATOM     16  C   UNL     1       8.234   8.872  18.026  0.00  0.00    +0.000 C 
BRANCH  16  17
ATOM     17  O   UNL     1       8.961   9.336  19.165  0.00  0.00    +0.000 OA
BRANCH  17  18
ATOM     18  C   UNL     1       9.453  10.614  19.068  0.00  0.00    +0.000 A 
ATOM     19  C   UNL     1       9.945  11.210  17.903  0.00  0.00    +0.000 A 
ATOM     20  C   UNL     1      10.397  12.530  17.923  0.00  0.00    +0.000 A 
ATOM     21  C   UNL     1      10.369  13.279  19.104  0.00  0.00    +0.000 A 
ATOM     22  C   UNL     1      10.804  14.614  19.130  0.00  0.00    +0.000 A 
ATOM     23  C   UNL     1      10.761  15.351  20.311  0.00  0.00    +0.000 A 
ATOM     24  C   UNL     1      10.294  14.765  21.482  0.00  0.00    +0.000 A 
ATOM     25  C   UNL     1       9.859  13.437  21.473  0.00  0.00    +0.000 A 
ATOM     26  C   UNL     1       9.886  12.679  20.292  0.00  0.00    +0.000 A 
ATOM     27  C   UNL     1       9.438  11.348  20.254  0.00  0.00    +0.000 A 
ENDBRANCH  17  18
ENDBRANCH  16  17
ENDBRANCH  15  16
ENDBRANCH   4  15
TORSDOF 5
ENDMDL
MODEL 7
REMARK VINA RESULT:      -7.6      5.048     10.050
REMARK  Name = 
REMARK  5 active torsions:
REMARK  status: ('A' for Active; 'I' for Inactive)
REMARK    1  A    between atoms: C_5  and  N_6
REMARK    2  A    between atoms: N_9  and  C_10
REMARK    3  A    between atoms: C_10  and  C_11
REMARK    4  A    between atoms: C_11  and  O_12
REMARK    5  A    between atoms: O_12  and  C_13
REMARK                            x       y       z     vdW  Elec       q    Type
REMARK                         _______ _______ _______ _____ _____    ______ ____
ROOT
ATOM      1  N   UNL     1       4.581   4.855  17.715  0.00  0.00    +0.000 N 
ATOM      2  C   UNL     1       3.333   5.636  17.738  0.00  0.00    +0.000 C 
ATOM      3  C   UNL     1       2.162   4.783  18.274  0.00  0.00    +0.000 C 
ATOM      4  N   UNL     1       2.400   4.132  19.583  0.00  0.00    +0.000 NA
ATOM      5  C   UNL     1       3.640   3.328  19.452  0.00  0.00    +0.000 C 
ATOM      6  C   UNL     1       4.883   4.112  18.954  0.00  0.00    +0.000 C 
ENDROOT
BRANCH   1  11
ATOM      7 CL   UNL     1       7.853   4.995  12.747  0.00  0.00    +0.000 Cl
ATOM      8  C   UNL     1       6.948   4.930  14.208  0.00  0.00    +0.000 A 
ATOM      9  C   UNL     1       5.776   4.194  14.264  0.00  0.00    +0.000 A 
ATOM     10  C   UNL     1       5.027   4.170  15.446  0.00  0.00    +0.000 A 
ATOM     11  C   UNL     1       5.423   4.859  16.614  0.00  0.00    +0.000 A 
ATOM     12  C   UNL     1       6.659   5.553  16.525  0.00  0.00    +0.000 A 
ATOM     13 CL   UNL     1       7.440   6.302  17.887  0.00  0.00    +0.000 Cl
ATOM     14  C   UNL     1       7.396   5.606  15.331  0.00  0.00    +0.000 A 
ENDBRANCH   1  11
BRANCH   4  15
ATOM     15  C   UNL     1       2.509   5.095  20.698  0.00  0.00    +0.000 C 
BRANCH  15  16
ATOM     16  C   UNL     1       1.411   6.167  20.685  0.00  0.00    +0.000 C 
BRANCH  16  17
ATOM     17  O   UNL     1       1.988   7.449  20.427  0.00  0.00    +0.000 OA
BRANCH  17  18
ATOM     18  C   UNL     1       1.206   8.525  20.766  0.00  0.00    +0.000 A 
ATOM     19  C   UNL     1       0.778   8.843  22.059  0.00  0.00    +0.000 A 
ATOM     20  C   UNL     1       0.002   9.982  22.283  0.00  0.00    +0.000 A 
ATOM     21  C   UNL     1      -0.362  10.821  21.225  0.00  0.00    +0.000 A 
ATOM     22  C   UNL     1      -1.125  11.980  21.444  0.00  0.00    +0.000 A 
ATOM     23  C   UNL     1      -1.472  12.812  20.383  0.00  0.00    +0.000 A 
ATOM     24  C   UNL     1      -1.071  12.496  19.090  0.00  0.00    +0.000 A 
ATOM     25  C   UNL     1      -0.312  11.346  18.855  0.00  0.00    +0.000 A 
ATOM     26  C   UNL     1       0.055  10.498  19.912  0.00  0.00    +0.000 A 
ATOM     27  C   UNL     1       0.833   9.347  19.703  0.00  0.00    +0.000 A 
ENDBRANCH  17  18
ENDBRANCH  16  17
ENDBRANCH  15  16
ENDBRANCH   4  15
TORSDOF 5
ENDMDL
MODEL 8
REMARK VINA RESULT:      -7.6      6.746     10.528
REMARK  Name = 
REMARK  5 active torsions:
REMARK  status: ('A' for Active; 'I' for Inactive)
REMARK    1  A    between atoms: C_5  and  N_6
REMARK    2  A    between atoms: N_9  and  C_10
REMARK    3  A    between atoms: C_10  and  C_11
REMARK    4  A    between atoms: C_11  and  O_12
REMARK    5  A    between atoms: O_12  and  C_13
REMARK                            x       y       z     vdW  Elec       q    Type
REMARK                         _______ _______ _______ _____ _____    ______ ____
ROOT
ATOM      1  N   UNL     1       5.108   5.533  18.092  0.00  0.00    +0.000 N 
ATOM      2  C   UNL     1       6.394   5.064  18.633  0.00  0.00    +0.000 C 
ATOM      3  C   UNL     1       7.542   5.342  17.639  0.00  0.00    +0.000 C 
ATOM      4  N   UNL     1       7.648   6.742  17.168  0.00  0.00    +0.000 NA
ATOM      5  C   UNL     1       6.331   7.110  16.593  0.00  0.00    +0.000 C 
ATOM      6  C   UNL     1       5.118   6.900  17.537  0.00  0.00    +0.000 C 
ENDROOT
BRANCH   1  11
ATOM      7 CL   UNL     1       0.408   1.921  18.611  0.00  0.00    +0.000 Cl
ATOM      8  C   UNL     1       1.743   2.986  18.417  0.00  0.00    +0.000 A 
ATOM      9  C   UNL     1       3.004   2.476  18.153  0.00  0.00    +0.000 A 
ATOM     10  C   UNL     1       4.092   3.346  18.027  0.00  0.00    +0.000 A 
ATOM     11  C   UNL     1       3.966   4.748  18.143  0.00  0.00    +0.000 A 
ATOM     12  C   UNL     1       2.646   5.228  18.358  0.00  0.00    +0.000 A 
ATOM     13 CL   UNL     1       2.222   6.914  18.334  0.00  0.00    +0.000 Cl
ATOM     14  C   UNL     1       1.558   4.356  18.517  0.00  0.00    +0.000 A 
ENDBRANCH   1  11
BRANCH   4  15
ATOM     15  C   UNL     1       8.040   7.684  18.237  0.00  0.00    +0.000 C 
BRANCH  15  16
ATOM     16  C   UNL     1       8.323   9.102  17.724  0.00  0.00    +0.000 C 
BRANCH  16  17
ATOM     17  O   UNL     1       8.874   9.898  18.776  0.00  0.00    +0.000 OA
BRANCH  17  18
ATOM     18  C   UNL     1       9.502  11.051  18.374  0.00  0.00    +0.000 A 
ATOM     19  C   UNL     1      10.794  11.132  17.847  0.00  0.00    +0.000 A 
ATOM     20  C   UNL     1      11.317  12.364  17.449  0.00  0.00    +0.000 A 
ATOM     21  C   UNL     1      10.562  13.535  17.571  0.00  0.00    +0.000 A 
ATOM     22  C   UNL     1      11.072  14.776  17.156  0.00  0.00    +0.000 A 
ATOM     23  C   UNL     1      10.307  15.933  17.274  0.00  0.00    +0.000 A 
ATOM     24  C   UNL     1       9.028  15.871  17.816  0.00  0.00    +0.000 A 
ATOM     25  C   UNL     1       8.507  14.644  18.235  0.00  0.00    +0.000 A 
ATOM     26  C   UNL     1       9.258  13.464  18.117  0.00  0.00    +0.000 A 
ATOM     27  C   UNL     1       8.749  12.217  18.515  0.00  0.00    +0.000 A 
ENDBRANCH  17  18
ENDBRANCH  16  17
ENDBRANCH  15  16
ENDBRANCH   4  15
TORSDOF 5
ENDMDL
MODEL 9
REMARK VINA RESULT:      -7.5      4.463      6.825
REMARK  Name = 
REMARK  5 active torsions:
REMARK  status: ('A' for Active; 'I' for Inactive)
REMARK    1  A    between atoms: C_5  and  N_6
REMARK    2  A    between atoms: N_9  and  C_10
REMARK    3  A    between atoms: C_10  and  C_11
REMARK    4  A    between atoms: C_11  and  O_12
REMARK    5  A    between atoms: O_12  and  C_13
REMARK                            x       y       z     vdW  Elec       q    Type
REMARK                         _______ _______ _______ _____ _____    ______ ____
ROOT
ATOM      1  N   UNL     1       2.400   6.015  19.092  0.00  0.00    +0.000 N 
ATOM      2  C   UNL     1       3.331   5.445  20.079  0.00  0.00    +0.000 C 
ATOM      3  C   UNL     1       2.721   4.193  20.749  0.00  0.00    +0.000 C 
ATOM      4  N   UNL     1       2.236   3.149  19.817  0.00  0.00    +0.000 NA
ATOM      5  C   UNL     1       1.268   3.798  18.899  0.00  0.00    +0.000 C 
ATOM      6  C   UNL     1       1.807   5.046  18.150  0.00  0.00    +0.000 C 
ENDROOT
BRANCH   1  11
ATOM      7 CL   UNL     1       1.121  11.792  18.460  0.00  0.00    +0.000 Cl
ATOM      8  C   UNL     1       1.519  10.135  18.687  0.00  0.00    +0.000 A 
ATOM      9  C   UNL     1       2.275   9.468  17.736  0.00  0.00    +0.000 A 
ATOM     10  C   UNL     1       2.569   8.111  17.911  0.00  0.00    +0.000 A 
ATOM     11  C   UNL     1       2.140   7.376  19.037  0.00  0.00    +0.000 A 
ATOM     12  C   UNL     1       1.417   8.116  20.011  0.00  0.00    +0.000 A 
ATOM     13 CL   UNL     1       0.964   7.474  21.563  0.00  0.00    +0.000 Cl
ATOM     14  C   UNL     1       1.093   9.469  19.824  0.00  0.00    +0.000 A 
ENDBRANCH   1  11
BRANCH   4  15
ATOM     15  C   UNL     1       3.325   2.495  19.062  0.00  0.00    +0.000 C 
BRANCH  15  16
ATOM     16  C   UNL     1       3.276   2.781  17.555  0.00  0.00    +0.000 C 
BRANCH  16  17
ATOM     17  O   UNL     1       4.604   2.850  17.030  0.00  0.00    +0.000 OA
BRANCH  17  18
ATOM     18  C   UNL     1       5.145   4.109  16.964  0.00  0.00    +0.000 A 
ATOM     19  C   UNL     1       4.753   5.118  16.080  0.00  0.00    +0.000 A 
ATOM     20  C   UNL     1       5.365   6.372  16.125  0.00  0.00    +0.000 A 
ATOM     21  C   UNL     1       6.379   6.641  17.050  0.00  0.00    +0.000 A 
ATOM     22  C   UNL     1       6.987   7.906  17.116  0.00  0.00    +0.000 A 
ATOM     23  C   UNL     1       7.988   8.163  18.047  0.00  0.00    +0.000 A 
ATOM     24  C   UNL     1       8.404   7.163  18.919  0.00  0.00    +0.000 A 
ATOM     25  C   UNL     1       7.810   5.899  18.865  0.00  0.00    +0.000 A 
ATOM     26  C   UNL     1       6.792   5.621  17.939  0.00  0.00    +0.000 A 
ATOM     27  C   UNL     1       6.168   4.364  17.878  0.00  0.00    +0.000 A 
ENDBRANCH  17  18
ENDBRANCH  16  17
ENDBRANCH  15  16
ENDBRANCH   4  15
TORSDOF 5
ENDMDL
