MODEL 1
REMARK VINA RESULT:      -6.3      0.000      0.000
REMARK  Name = 
REMARK  1 active torsions:
REMARK  status: ('A' for Active; 'I' for Inactive)
REMARK    1  A    between atoms: C_4  and  C_5
REMARK                            x       y       z     vdW  Elec       q    Type
REMARK                         _______ _______ _______ _____ _____    ______ ____
ROOT
ATOM      1  S   UNL     1       7.539   7.532  17.631  0.00  0.00    +0.000 S 
ATOM      2  C   UNL     1       6.778   6.210  16.934  0.00  0.00    +0.000 A 
ATOM      3  N   UNL     1       5.617   5.665  17.417  0.00  0.00    +0.000 NA
ATOM      4  C   UNL     1       5.128   4.607  16.839  0.00  0.00    +0.000 A 
ATOM      5  C   UNL     1       5.754   3.943  15.668  0.00  0.00    +0.000 A 
ATOM      6  C   UNL     1       6.859   4.530  15.208  0.00  0.00    +0.000 A 
ATOM      7  N   UNL     1       7.354   5.645  15.823  0.00  0.00    +0.000 N 
ATOM      8  H   UNL     1       8.204   6.082  15.485  0.00  0.00    +0.000 HD
ENDROOT
BRANCH   4   9
ATOM      9  C   UNL     1       3.865   4.001  17.366  0.00  0.00    +0.000 A 
ATOM     10  C   UNL     1       2.790   4.831  17.677  0.00  0.00    +0.000 A 
ATOM     11  C   UNL     1       1.644   4.261  18.217  0.00  0.00    +0.000 A 
ATOM     12  C   UNL     1       1.604   2.889  18.426  0.00  0.00    +0.000 A 
ATOM     13  C   UNL     1       2.713   2.135  18.073  0.00  0.00    +0.000 A 
ATOM     14  N   UNL     1       3.844   2.655  17.546  0.00  0.00    +0.000 NA
ENDBRANCH   4   9
TORSDOF 1
ENDMDL
MODEL 2
REMARK VINA RESULT:      -6.1      2.036      2.348
REMARK  Name = 
REMARK  1 active torsions:
REMARK  status: ('A' for Active; 'I' for Inactive)
REMARK    1  A    between atoms: C_4  and  C_5
REMARK                            x       y       z     vdW  Elec       q    Type
REMARK                         _______ _______ _______ _____ _____    ______ ____
ROOT
ATOM      1  S   UNL     1       6.548   4.220  13.975  0.00  0.00    +0.000 S 
ATOM      2  C   UNL     1       6.355   4.339  15.637  0.00  0.00    +0.000 A 
ATOM      3  N   UNL     1       5.151   4.183  16.271  0.00  0.00    +0.000 NA
ATOM      4  C   UNL     1       5.089   4.344  17.560  0.00  0.00    +0.000 A 
ATOM      5  C   UNL     1       6.261   4.688  18.405  0.00  0.00    +0.000 A 
ATOM      6  C   UNL     1       7.419   4.792  17.752  0.00  0.00    +0.000 A 
ATOM      7  N   UNL     1       7.465   4.612  16.398  0.00  0.00    +0.000 N 
ATOM      8  H   UNL     1       8.342   4.708  15.899  0.00  0.00    +0.000 HD
ENDROOT
BRANCH   4   9
ATOM      9  C   UNL     1       3.775   4.183  18.258  0.00  0.00    +0.000 A 
ATOM     10  C   UNL     1       2.624   3.978  17.501  0.00  0.00    +0.000 A 
ATOM     11  C   UNL     1       1.403   3.885  18.159  0.00  0.00    +0.000 A 
ATOM     12  C   UNL     1       1.369   3.996  19.543  0.00  0.00    +0.000 A 
ATOM     13  C   UNL     1       2.566   4.185  20.220  0.00  0.00    +0.000 A 
ATOM     14  N   UNL     1       3.769   4.279  19.613  0.00  0.00    +0.000 NA
ENDBRANCH   4   9
TORSDOF 1
ENDMDL
MODEL 3
REMARK VINA RESULT:      -6.1      3.106      5.163
REMARK  Name = 
REMARK  1 active torsions:
REMARK  status: ('A' for Active; 'I' for Inactive)
REMARK    1  A    between atoms: C_4  and  C_5
REMARK                            x       y       z     vdW  Elec       q    Type
REMARK                         _______ _______ _______ _____ _____    ______ ____
ROOT
ATOM      1  S   UNL     1       1.937   2.870  21.534  0.00  0.00    +0.000 S 
ATOM      2  C   UNL     1       2.793   2.991  20.097  0.00  0.00    +0.000 A 
ATOM      3  N   UNL     1       3.793   3.904  19.889  0.00  0.00    +0.000 NA
ATOM      4  C   UNL     1       4.368   3.957  18.723  0.00  0.00    +0.000 A 
ATOM      5  C   UNL     1       4.006   3.074  17.585  0.00  0.00    +0.000 A 
ATOM      6  C   UNL     1       3.057   2.175  17.845  0.00  0.00    +0.000 A 
ATOM      7  N   UNL     1       2.470   2.129  19.078  0.00  0.00    +0.000 N 
ATOM      8  H   UNL     1       1.736   1.458  19.271  0.00  0.00    +0.000 HD
ENDROOT
BRANCH   4   9
ATOM      9  C   UNL     1       5.454   4.958  18.485  0.00  0.00    +0.000 A 
ATOM     10  C   UNL     1       5.290   5.917  17.488  0.00  0.00    +0.000 A 
ATOM     11  C   UNL     1       6.329   6.805  17.241  0.00  0.00    +0.000 A 
ATOM     12  C   UNL     1       7.493   6.712  17.994  0.00  0.00    +0.000 A 
ATOM     13  C   UNL     1       7.567   5.737  18.978  0.00  0.00    +0.000 A 
ATOM     14  N   UNL     1       6.576   4.857  19.245  0.00  0.00    +0.000 NA
ENDBRANCH   4   9
TORSDOF 1
ENDMDL
MODEL 4
REMARK VINA RESULT:      -6.1      0.801      1.341
REMARK  Name = 
REMARK  1 active torsions:
REMARK  status: ('A' for Active; 'I' for Inactive)
REMARK    1  A    between atoms: C_4  and  C_5
REMARK                            x       y       z     vdW  Elec       q    Type
REMARK                         _______ _______ _______ _____ _____    ______ ____
ROOT
ATOM      1  S   UNL     1       7.595   7.681  17.490  0.00  0.00    +0.000 S 
ATOM      2  C   UNL     1       6.836   6.322  16.863  0.00  0.00    +0.000 A 
ATOM      3  N   UNL     1       5.671   5.809  17.367  0.00  0.00    +0.000 NA
ATOM      4  C   UNL     1       5.183   4.720  16.847  0.00  0.00    +0.000 A 
ATOM      5  C   UNL     1       5.817   3.989  15.721  0.00  0.00    +0.000 A 
ATOM      6  C   UNL     1       6.927   4.546  15.237  0.00  0.00    +0.000 A 
ATOM      7  N   UNL     1       7.420   5.694  15.791  0.00  0.00    +0.000 N 
ATOM      8  H   UNL     1       8.273   6.109  15.436  0.00  0.00    +0.000 HD
ENDROOT
BRANCH   4   9
ATOM      9  C   UNL     1       3.915   4.148  17.398  0.00  0.00    +0.000 A 
ATOM     10  C   UNL     1       3.803   2.769  17.556  0.00  0.00    +0.000 A 
ATOM     11  C   UNL     1       2.600   2.247  18.016  0.00  0.00    +0.000 A 
ATOM     12  C   UNL     1       1.553   3.112  18.307  0.00  0.00    +0.000 A 
ATOM     13  C   UNL     1       1.756   4.474  18.137  0.00  0.00    +0.000 A 
ATOM     14  N   UNL     1       2.911   5.016  17.691  0.00  0.00    +0.000 NA
ENDBRANCH   4   9
TORSDOF 1
ENDMDL
MODEL 5
REMARK VINA RESULT:      -6.1      3.164      5.311
REMARK  Name = 
REMARK  1 active torsions:
REMARK  status: ('A' for Active; 'I' for Inactive)
REMARK    1  A    between atoms: C_4  and  C_5
REMARK                            x       y       z     vdW  Elec       q    Type
REMARK                         _______ _______ _______ _____ _____    ______ ____
ROOT
ATOM      1  S   UNL     1       1.897   2.864  21.526  0.00  0.00    +0.000 S 
ATOM      2  C   UNL     1       2.401   3.590  20.101  0.00  0.00    +0.000 A 
ATOM      3  N   UNL     1       3.625   4.184  19.948  0.00  0.00    +0.000 NA
ATOM      4  C   UNL     1       3.908   4.767  18.820  0.00  0.00    +0.000 A 
ATOM      5  C   UNL     1       2.975   4.827  17.666  0.00  0.00    +0.000 A 
ATOM      6  C   UNL     1       1.811   4.201  17.845  0.00  0.00    +0.000 A 
ATOM      7  N   UNL     1       1.535   3.588  19.035  0.00  0.00    +0.000 N 
ATOM      8  H   UNL     1       0.644   3.128  19.179  0.00  0.00    +0.000 HD
ENDROOT
BRANCH   4   9
ATOM      9  C   UNL     1       5.240   5.427  18.648  0.00  0.00    +0.000 A 
ATOM     10  C   UNL     1       5.438   6.290  17.573  0.00  0.00    +0.000 A 
ATOM     11  C   UNL     1       6.697   6.853  17.394  0.00  0.00    +0.000 A 
ATOM     12  C   UNL     1       7.711   6.541  18.290  0.00  0.00    +0.000 A 
ATOM     13  C   UNL     1       7.423   5.684  19.342  0.00  0.00    +0.000 A 
ATOM     14  N   UNL     1       6.212   5.120  19.546  0.00  0.00    +0.000 NA
ENDBRANCH   4   9
TORSDOF 1
ENDMDL
MODEL 6
REMARK VINA RESULT:      -6.1      2.123      4.946
REMARK  Name = 
REMARK  1 active torsions:
REMARK  status: ('A' for Active; 'I' for Inactive)
REMARK    1  A    between atoms: C_4  and  C_5
REMARK                            x       y       z     vdW  Elec       q    Type
REMARK                         _______ _______ _______ _____ _____    ______ ____
ROOT
ATOM      1  S   UNL     1       7.887   5.782  19.301  0.00  0.00    +0.000 S 
ATOM      2  C   UNL     1       6.897   5.099  18.132  0.00  0.00    +0.000 A 
ATOM      3  N   UNL     1       7.206   5.082  16.798  0.00  0.00    +0.000 NA
ATOM      4  C   UNL     1       6.352   4.575  15.957  0.00  0.00    +0.000 A 
ATOM      5  C   UNL     1       5.043   3.999  16.359  0.00  0.00    +0.000 A 
ATOM      6  C   UNL     1       4.802   4.001  17.671  0.00  0.00    +0.000 A 
ATOM      7  N   UNL     1       5.715   4.531  18.538  0.00  0.00    +0.000 N 
ATOM      8  H   UNL     1       5.525   4.549  19.533  0.00  0.00    +0.000 HD
ENDROOT
BRANCH   4   9
ATOM      9  C   UNL     1       6.678   4.562  14.497  0.00  0.00    +0.000 A 
ATOM     10  C   UNL     1       6.005   3.676  13.658  0.00  0.00    +0.000 A 
ATOM     11  C   UNL     1       6.357   3.635  12.314  0.00  0.00    +0.000 A 
ATOM     12  C   UNL     1       7.360   4.477  11.851  0.00  0.00    +0.000 A 
ATOM     13  C   UNL     1       7.967   5.340  12.752  0.00  0.00    +0.000 A 
ATOM     14  N   UNL     1       7.650   5.405  14.064  0.00  0.00    +0.000 NA
ENDBRANCH   4   9
TORSDOF 1
ENDMDL
MODEL 7
REMARK VINA RESULT:      -6.0      1.740      1.999
REMARK  Name = 
REMARK  1 active torsions:
REMARK  status: ('A' for Active; 'I' for Inactive)
REMARK    1  A    between atoms: C_4  and  C_5
REMARK                            x       y       z     vdW  Elec       q    Type
REMARK                         _______ _______ _______ _____ _____    ______ ____
ROOT
ATOM      1  S   UNL     1       6.921   4.407  13.638  0.00  0.00    +0.000 S 
ATOM      2  C   UNL     1       6.543   4.360  15.271  0.00  0.00    +0.000 A 
ATOM      3  N   UNL     1       5.315   3.988  15.752  0.00  0.00    +0.000 NA
ATOM      4  C   UNL     1       5.099   4.032  17.034  0.00  0.00    +0.000 A 
ATOM      5  C   UNL     1       6.116   4.461  18.027  0.00  0.00    +0.000 A 
ATOM      6  C   UNL     1       7.308   4.774  17.518  0.00  0.00    +0.000 A 
ATOM      7  N   UNL     1       7.518   4.716  16.170  0.00  0.00    +0.000 N 
ATOM      8  H   UNL     1       8.418   4.971  15.780  0.00  0.00    +0.000 HD
ENDROOT
BRANCH   4   9
ATOM      9  C   UNL     1       3.757   3.636  17.566  0.00  0.00    +0.000 A 
ATOM     10  C   UNL     1       2.752   4.596  17.657  0.00  0.00    +0.000 A 
ATOM     11  C   UNL     1       1.528   4.229  18.204  0.00  0.00    +0.000 A 
ATOM     12  C   UNL     1       1.345   2.922  18.636  0.00  0.00    +0.000 A 
ATOM     13  C   UNL     1       2.395   2.026  18.493  0.00  0.00    +0.000 A 
ATOM     14  N   UNL     1       3.597   2.349  17.967  0.00  0.00    +0.000 NA
ENDBRANCH   4   9
TORSDOF 1
ENDMDL
MODEL 8
REMARK VINA RESULT:      -6.0      2.629      5.095
REMARK  Name = 
REMARK  1 active torsions:
REMARK  status: ('A' for Active; 'I' for Inactive)
REMARK    1  A    between atoms: C_4  and  C_5
REMARK                            x       y       z     vdW  Elec       q    Type
REMARK                         _______ _______ _______ _____ _____    ______ ____
ROOT
ATOM      1  S   UNL     1       3.609   3.448  18.756  0.00  0.00    +0.000 S 
ATOM      2  C   UNL     1       5.019   4.041  18.068  0.00  0.00    +0.000 A 
ATOM      3  N   UNL     1       5.252   4.058  16.718  0.00  0.00    +0.000 NA
ATOM      4  C   UNL     1       6.398   4.491  16.280  0.00  0.00    +0.000 A 
ATOM      5  C   UNL     1       7.487   4.981  17.163  0.00  0.00    +0.000 A 
ATOM      6  C   UNL     1       7.201   4.984  18.466  0.00  0.00    +0.000 A 
ATOM      7  N   UNL     1       5.989   4.532  18.907  0.00  0.00    +0.000 N 
ATOM      8  H   UNL     1       5.778   4.517  19.897  0.00  0.00    +0.000 HD
ENDROOT
BRANCH   4   9
ATOM      9  C   UNL     1       6.663   4.503  14.807  0.00  0.00    +0.000 A 
ATOM     10  C   UNL     1       5.924   3.666  13.976  0.00  0.00    +0.000 A 
ATOM     11  C   UNL     1       6.218   3.647  12.618  0.00  0.00    +0.000 A 
ATOM     12  C   UNL     1       7.233   4.463  12.134  0.00  0.00    +0.000 A 
ATOM     13  C   UNL     1       7.909   5.278  13.030  0.00  0.00    +0.000 A 
ATOM     14  N   UNL     1       7.649   5.321  14.355  0.00  0.00    +0.000 NA
ENDBRANCH   4   9
TORSDOF 1
ENDMDL
MODEL 9
REMARK VINA RESULT:      -6.0      1.976      2.463
REMARK  Name = 
REMARK  1 active torsions:
REMARK  status: ('A' for Active; 'I' for Inactive)
REMARK    1  A    between atoms: C_4  and  C_5
REMARK                            x       y       z     vdW  Elec       q    Type
REMARK                         _______ _______ _______ _____ _____    ______ ____
ROOT
ATOM      1  S   UNL     1       6.232   4.054  14.490  0.00  0.00    +0.000 S 
ATOM      2  C   UNL     1       5.389   4.830  15.715  0.00  0.00    +0.000 A 
ATOM      3  N   UNL     1       4.429   4.217  16.477  0.00  0.00    +0.000 NA
ATOM      4  C   UNL     1       3.791   4.914  17.371  0.00  0.00    +0.000 A 
ATOM      5  C   UNL     1       4.046   6.355  17.628  0.00  0.00    +0.000 A 
ATOM      6  C   UNL     1       5.015   6.899  16.892  0.00  0.00    +0.000 A 
ATOM      7  N   UNL     1       5.678   6.149  15.963  0.00  0.00    +0.000 N 
ATOM      8  H   UNL     1       6.403   6.566  15.391  0.00  0.00    +0.000 HD
ENDROOT
BRANCH   4   9
ATOM      9  C   UNL     1       2.735   4.255  18.200  0.00  0.00    +0.000 A 
ATOM     10  C   UNL     1       2.254   4.907  19.333  0.00  0.00    +0.000 A 
ATOM     11  C   UNL     1       1.312   4.259  20.125  0.00  0.00    +0.000 A 
ATOM     12  C   UNL     1       0.880   2.990  19.761  0.00  0.00    +0.000 A 
ATOM     13  C   UNL     1       1.401   2.421  18.608  0.00  0.00    +0.000 A 
ATOM     14  N   UNL     1       2.316   3.021  17.816  0.00  0.00    +0.000 NA
ENDBRANCH   4   9
TORSDOF 1
ENDMDL
